MODEL 1
REMARK VINA RESULT:      -6.6      0.000      0.000
REMARK  Name = 
REMARK  7 active torsions:
REMARK  status: ('A' for Active; 'I' for Inactive)
REMARK    1  A    between atoms: C_2  and  C_3
REMARK    2  A    between atoms: C_2  and  C_4
REMARK    3  A    between atoms: C_4  and  N_5
REMARK    4  A    between atoms: C_6  and  S_7
REMARK    5  A    between atoms: N_11  and  C_12
REMARK    6  A    between atoms: C_12  and  C_13
REMARK    7  A    between atoms: C_12  and  C_19
REMARK                            x       y       z     vdW  Elec       q    Type
REMARK                         _______ _______ _______ _____ _____    ______ ____
ROOT
ATOM      1  N   UNL     1       0.768   9.440  20.530  0.00  0.00    +0.000 NA
ATOM      2  C   UNL     1       1.151   9.386  19.298  0.00  0.00    +0.000 C 
ATOM      3  N   UNL     1       1.817   8.271  18.812  0.00  0.00    +0.000 N 
ATOM      4  C   UNL     1       2.708   8.269  17.643  0.00  0.00    +0.000 C 
ATOM      5  C   UNL     1       4.093   7.684  18.010  0.00  0.00    +0.000 C 
ATOM      6  N   UNL     1       4.067   6.329  18.626  0.00  0.00    +0.000 NA
ATOM      7  C   UNL     1       3.175   6.432  19.812  0.00  0.00    +0.000 C 
ATOM      8  C   UNL     1       1.762   6.984  19.531  0.00  0.00    +0.000 C 
ENDROOT
BRANCH   2   9
ATOM      9  S   UNL     1       0.849  10.681  18.126  0.00  0.00    +0.000 S 
ATOM     10  H   UNL     1      -0.467  10.810  18.283  0.00  0.00    +0.000 HD
ENDBRANCH   2   9
BRANCH   1  11
ATOM     11  C   UNL     1       0.114  10.609  21.098  0.00  0.00    +0.000 C 
BRANCH  11  13
ATOM     12  C   UNL     1       0.202   9.299  23.218  0.00  0.00    +0.000 C 
ATOM     13  C   UNL     1      -0.325  10.313  22.512  0.00  0.00    +0.000 C 
ATOM     14  C   UNL     1      -1.421  11.172  23.078  0.00  0.00    +0.000 C 
ENDBRANCH  11  13
ENDBRANCH   1  11
BRANCH   6  15
ATOM     15  C   UNL     1       3.636   5.290  17.644  0.00  0.00    +0.000 C 
BRANCH  15  16
ATOM     16  C   UNL     1       4.808   4.870  16.738  0.00  0.00    +0.000 A 
ATOM     17  C   UNL     1       6.141   4.919  17.184  0.00  0.00    +0.000 A 
ATOM     18  C   UNL     1       7.202   4.656  16.316  0.00  0.00    +0.000 A 
ATOM     19  C   UNL     1       6.952   4.362  14.981  0.00  0.00    +0.000 A 
ATOM     20  C   UNL     1       5.639   4.305  14.516  0.00  0.00    +0.000 A 
ATOM     21  C   UNL     1       4.574   4.545  15.389  0.00  0.00    +0.000 A 
ENDBRANCH  15  16
BRANCH  15  22
ATOM     22  C   UNL     1       2.938   4.072  18.274  0.00  0.00    +0.000 A 
ATOM     23  C   UNL     1       1.567   3.856  18.037  0.00  0.00    +0.000 A 
ATOM     24  C   UNL     1       0.909   2.744  18.571  0.00  0.00    +0.000 A 
ATOM     25  C   UNL     1       1.611   1.821  19.340  0.00  0.00    +0.000 A 
ATOM     26  C   UNL     1       2.963   2.026  19.602  0.00  0.00    +0.000 A 
ATOM     27  C   UNL     1       3.614   3.151  19.090  0.00  0.00    +0.000 A 
ENDBRANCH  15  22
ENDBRANCH   6  15
TORSDOF 6
ENDMDL
MODEL 2
REMARK VINA RESULT:      -6.5      0.703      1.498
REMARK  Name = 
REMARK  7 active torsions:
REMARK  status: ('A' for Active; 'I' for Inactive)
REMARK    1  A    between atoms: C_2  and  C_3
REMARK    2  A    between atoms: C_2  and  C_4
REMARK    3  A    between atoms: C_4  and  N_5
REMARK    4  A    between atoms: C_6  and  S_7
REMARK    5  A    between atoms: N_11  and  C_12
REMARK    6  A    between atoms: C_12  and  C_13
REMARK    7  A    between atoms: C_12  and  C_19
REMARK                            x       y       z     vdW  Elec       q    Type
REMARK                         _______ _______ _______ _____ _____    ______ ____
ROOT
ATOM      1  N   UNL     1       1.359   9.128  20.688  0.00  0.00    +0.000 NA
ATOM      2  C   UNL     1       1.621   9.182  19.425  0.00  0.00    +0.000 C 
ATOM      3  N   UNL     1       2.229   8.114  18.781  0.00  0.00    +0.000 N 
ATOM      4  C   UNL     1       3.002   8.215  17.536  0.00  0.00    +0.000 C 
ATOM      5  C   UNL     1       4.411   7.601  17.715  0.00  0.00    +0.000 C 
ATOM      6  N   UNL     1       4.434   6.197  18.210  0.00  0.00    +0.000 NA
ATOM      7  C   UNL     1       3.662   6.195  19.481  0.00  0.00    +0.000 C 
ATOM      8  C   UNL     1       2.232   6.769  19.387  0.00  0.00    +0.000 C 
ENDROOT
BRANCH   2   9
ATOM      9  S   UNL     1       1.218  10.575  18.405  0.00  0.00    +0.000 S 
ATOM     10  H   UNL     1       1.873  11.525  19.070  0.00  0.00    +0.000 HD
ENDBRANCH   2   9
BRANCH   1  11
ATOM     11  C   UNL     1       0.772  10.243  21.416  0.00  0.00    +0.000 C 
BRANCH  11  13
ATOM     12  C   UNL     1      -0.634   8.435  22.403  0.00  0.00    +0.000 C 
ATOM     13  C   UNL     1      -0.335   9.742  22.313  0.00  0.00    +0.000 C 
ATOM     14  C   UNL     1      -1.128  10.779  23.058  0.00  0.00    +0.000 C 
ENDBRANCH  11  13
ENDBRANCH   1  11
BRANCH   6  15
ATOM     15  C   UNL     1       3.902   5.248  17.187  0.00  0.00    +0.000 C 
BRANCH  15  16
ATOM     16  C   UNL     1       4.956   4.961  16.102  0.00  0.00    +0.000 A 
ATOM     17  C   UNL     1       4.613   4.353  14.882  0.00  0.00    +0.000 A 
ATOM     18  C   UNL     1       5.593   3.984  13.959  0.00  0.00    +0.000 A 
ATOM     19  C   UNL     1       6.936   4.194  14.249  0.00  0.00    +0.000 A 
ATOM     20  C   UNL     1       7.301   4.796  15.452  0.00  0.00    +0.000 A 
ATOM     21  C   UNL     1       6.319   5.189  16.367  0.00  0.00    +0.000 A 
ENDBRANCH  15  16
BRANCH  15  22
ATOM     22  C   UNL     1       3.316   3.949  17.771  0.00  0.00    +0.000 A 
ATOM     23  C   UNL     1       4.177   2.994  18.344  0.00  0.00    +0.000 A 
ATOM     24  C   UNL     1       3.675   1.817  18.908  0.00  0.00    +0.000 A 
ATOM     25  C   UNL     1       2.303   1.581  18.922  0.00  0.00    +0.000 A 
ATOM     26  C   UNL     1       1.437   2.505  18.344  0.00  0.00    +0.000 A 
ATOM     27  C   UNL     1       1.941   3.668  17.757  0.00  0.00    +0.000 A 
ENDBRANCH  15  22
ENDBRANCH   6  15
TORSDOF 6
ENDMDL
MODEL 3
REMARK VINA RESULT:      -6.3      0.204      1.185
REMARK  Name = 
REMARK  7 active torsions:
REMARK  status: ('A' for Active; 'I' for Inactive)
REMARK    1  A    between atoms: C_2  and  C_3
REMARK    2  A    between atoms: C_2  and  C_4
REMARK    3  A    between atoms: C_4  and  N_5
REMARK    4  A    between atoms: C_6  and  S_7
REMARK    5  A    between atoms: N_11  and  C_12
REMARK    6  A    between atoms: C_12  and  C_13
REMARK    7  A    between atoms: C_12  and  C_19
REMARK                            x       y       z     vdW  Elec       q    Type
REMARK                         _______ _______ _______ _____ _____    ______ ____
ROOT
ATOM      1  N   UNL     1       0.533   9.501  20.472  0.00  0.00    +0.000 NA
ATOM      2  C   UNL     1       0.926   9.455  19.243  0.00  0.00    +0.000 C 
ATOM      3  N   UNL     1       1.644   8.367  18.769  0.00  0.00    +0.000 N 
ATOM      4  C   UNL     1       2.541   8.395  17.605  0.00  0.00    +0.000 C 
ATOM      5  C   UNL     1       3.948   7.874  17.985  0.00  0.00    +0.000 C 
ATOM      6  N   UNL     1       3.977   6.523  18.611  0.00  0.00    +0.000 NA
ATOM      7  C   UNL     1       3.074   6.595  19.791  0.00  0.00    +0.000 C 
ATOM      8  C   UNL     1       1.640   7.083  19.497  0.00  0.00    +0.000 C 
ENDROOT
BRANCH   2   9
ATOM      9  S   UNL     1       0.576  10.727  18.060  0.00  0.00    +0.000 S 
ATOM     10  H   UNL     1       1.026  11.782  18.737  0.00  0.00    +0.000 HD
ENDBRANCH   2   9
BRANCH   1  11
ATOM     11  C   UNL     1      -0.174  10.645  21.027  0.00  0.00    +0.000 C 
BRANCH  11  13
ATOM     12  C   UNL     1      -1.410  11.126  23.139  0.00  0.00    +0.000 C 
ATOM     13  C   UNL     1      -0.500  10.389  22.479  0.00  0.00    +0.000 C 
ATOM     14  C   UNL     1       0.281   9.308  23.172  0.00  0.00    +0.000 C 
ENDBRANCH  11  13
ENDBRANCH   1  11
BRANCH   6  15
ATOM     15  C   UNL     1       3.598   5.459  17.634  0.00  0.00    +0.000 C 
BRANCH  15  16
ATOM     16  C   UNL     1       4.787   5.098  16.725  0.00  0.00    +0.000 A 
ATOM     17  C   UNL     1       4.597   4.558  15.441  0.00  0.00    +0.000 A 
ATOM     18  C   UNL     1       5.678   4.118  14.676  0.00  0.00    +0.000 A 
ATOM     19  C   UNL     1       6.968   4.189  15.190  0.00  0.00    +0.000 A 
ATOM     20  C   UNL     1       7.181   4.723  16.460  0.00  0.00    +0.000 A 
ATOM     21  C   UNL     1       6.102   5.186  17.218  0.00  0.00    +0.000 A 
ENDBRANCH  15  16
BRANCH  15  22
ATOM     22  C   UNL     1       2.967   4.208  18.272  0.00  0.00    +0.000 A 
ATOM     23  C   UNL     1       1.619   3.897  18.008  0.00  0.00    +0.000 A 
ATOM     24  C   UNL     1       1.024   2.753  18.549  0.00  0.00    +0.000 A 
ATOM     25  C   UNL     1       1.768   1.893  19.350  0.00  0.00    +0.000 A 
ATOM     26  C   UNL     1       3.098   2.191  19.637  0.00  0.00    +0.000 A 
ATOM     27  C   UNL     1       3.684   3.348  19.118  0.00  0.00    +0.000 A 
ENDBRANCH  15  22
ENDBRANCH   6  15
TORSDOF 6
ENDMDL
MODEL 4
REMARK VINA RESULT:      -6.2      0.732      1.414
REMARK  Name = 
REMARK  7 active torsions:
REMARK  status: ('A' for Active; 'I' for Inactive)
REMARK    1  A    between atoms: C_2  and  C_3
REMARK    2  A    between atoms: C_2  and  C_4
REMARK    3  A    between atoms: C_4  and  N_5
REMARK    4  A    between atoms: C_6  and  S_7
REMARK    5  A    between atoms: N_11  and  C_12
REMARK    6  A    between atoms: C_12  and  C_13
REMARK    7  A    between atoms: C_12  and  C_19
REMARK                            x       y       z     vdW  Elec       q    Type
REMARK                         _______ _______ _______ _____ _____    ______ ____
ROOT
ATOM      1  N   UNL     1       0.808   9.740  20.766  0.00  0.00    +0.000 NA
ATOM      2  C   UNL     1       1.040   9.646  19.499  0.00  0.00    +0.000 C 
ATOM      3  N   UNL     1       1.659   8.522  18.973  0.00  0.00    +0.000 N 
ATOM      4  C   UNL     1       2.401   8.487  17.706  0.00  0.00    +0.000 C 
ATOM      5  C   UNL     1       3.829   7.931  17.921  0.00  0.00    +0.000 C 
ATOM      6  N   UNL     1       3.899   6.598  18.583  0.00  0.00    +0.000 NA
ATOM      7  C   UNL     1       3.156   6.734  19.864  0.00  0.00    +0.000 C 
ATOM      8  C   UNL     1       1.711   7.260  19.737  0.00  0.00    +0.000 C 
ENDROOT
BRANCH   2   9
ATOM      9  S   UNL     1       0.579  10.895  18.328  0.00  0.00    +0.000 S 
ATOM     10  H   UNL     1       1.486  10.651  17.385  0.00  0.00    +0.000 HD
ENDBRANCH   2   9
BRANCH   1  11
ATOM     11  C   UNL     1       0.210  10.922  21.368  0.00  0.00    +0.000 C 
BRANCH  11  13
ATOM     12  C   UNL     1      -1.533  11.254  23.120  0.00  0.00    +0.000 C 
ATOM     13  C   UNL     1      -0.496  10.542  22.647  0.00  0.00    +0.000 C 
ATOM     14  C   UNL     1       0.050   9.362  23.401  0.00  0.00    +0.000 C 
ENDBRANCH  11  13
ENDBRANCH   1  11
BRANCH   6  15
ATOM     15  C   UNL     1       3.368   5.520  17.696  0.00  0.00    +0.000 C 
BRANCH  15  16
ATOM     16  C   UNL     1       4.445   5.041  16.706  0.00  0.00    +0.000 A 
ATOM     17  C   UNL     1       5.095   5.932  15.833  0.00  0.00    +0.000 A 
ATOM     18  C   UNL     1       5.976   5.470  14.855  0.00  0.00    +0.000 A 
ATOM     19  C   UNL     1       6.209   4.106  14.717  0.00  0.00    +0.000 A 
ATOM     20  C   UNL     1       5.578   3.204  15.572  0.00  0.00    +0.000 A 
ATOM     21  C   UNL     1       4.712   3.667  16.567  0.00  0.00    +0.000 A 
ENDBRANCH  15  16
BRANCH  15  22
ATOM     22  C   UNL     1       2.720   4.343  18.447  0.00  0.00    +0.000 A 
ATOM     23  C   UNL     1       3.421   3.717  19.496  0.00  0.00    +0.000 A 
ATOM     24  C   UNL     1       2.850   2.664  20.217  0.00  0.00    +0.000 A 
ATOM     25  C   UNL     1       1.565   2.227  19.913  0.00  0.00    +0.000 A 
ATOM     26  C   UNL     1       0.862   2.821  18.868  0.00  0.00    +0.000 A 
ATOM     27  C   UNL     1       1.443   3.855  18.131  0.00  0.00    +0.000 A 
ENDBRANCH  15  22
ENDBRANCH   6  15
TORSDOF 6
ENDMDL
MODEL 5
REMARK VINA RESULT:      -6.2      2.361      4.486
REMARK  Name = 
REMARK  7 active torsions:
REMARK  status: ('A' for Active; 'I' for Inactive)
REMARK    1  A    between atoms: C_2  and  C_3
REMARK    2  A    between atoms: C_2  and  C_4
REMARK    3  A    between atoms: C_4  and  N_5
REMARK    4  A    between atoms: C_6  and  S_7
REMARK    5  A    between atoms: N_11  and  C_12
REMARK    6  A    between atoms: C_12  and  C_13
REMARK    7  A    between atoms: C_12  and  C_19
REMARK                            x       y       z     vdW  Elec       q    Type
REMARK                         _______ _______ _______ _____ _____    ______ ____
ROOT
ATOM      1  N   UNL     1       2.084   6.677  20.245  0.00  0.00    +0.000 NA
ATOM      2  C   UNL     1       2.569   5.489  20.092  0.00  0.00    +0.000 C 
ATOM      3  N   UNL     1       3.466   5.216  19.070  0.00  0.00    +0.000 N 
ATOM      4  C   UNL     1       3.701   3.886  18.493  0.00  0.00    +0.000 C 
ATOM      5  C   UNL     1       3.516   3.915  16.956  0.00  0.00    +0.000 C 
ATOM      6  N   UNL     1       4.336   4.928  16.237  0.00  0.00    +0.000 NA
ATOM      7  C   UNL     1       4.012   6.239  16.860  0.00  0.00    +0.000 C 
ATOM      8  C   UNL     1       4.193   6.306  18.391  0.00  0.00    +0.000 C 
ENDROOT
BRANCH   2   9
ATOM      9  S   UNL     1       2.173   4.131  21.159  0.00  0.00    +0.000 S 
ATOM     10  H   UNL     1       1.848   3.223  20.241  0.00  0.00    +0.000 HD
ENDBRANCH   2   9
BRANCH   1  11
ATOM     11  C   UNL     1       1.101   6.997  21.268  0.00  0.00    +0.000 C 
BRANCH  11  13
ATOM     12  C   UNL     1       0.009   9.062  22.141  0.00  0.00    +0.000 C 
ATOM     13  C   UNL     1       0.732   8.459  21.182  0.00  0.00    +0.000 C 
ATOM     14  C   UNL     1       1.162   9.198  19.946  0.00  0.00    +0.000 C 
ENDBRANCH  11  13
ENDBRANCH   1  11
BRANCH   6  15
ATOM     15  C   UNL     1       5.789   4.588  16.283  0.00  0.00    +0.000 C 
BRANCH  15  16
ATOM     16  C   UNL     1       6.358   4.407  14.864  0.00  0.00    +0.000 A 
ATOM     17  C   UNL     1       7.485   5.123  14.424  0.00  0.00    +0.000 A 
ATOM     18  C   UNL     1       7.915   5.047  13.098  0.00  0.00    +0.000 A 
ATOM     19  C   UNL     1       7.214   4.270  12.183  0.00  0.00    +0.000 A 
ATOM     20  C   UNL     1       6.095   3.550  12.596  0.00  0.00    +0.000 A 
ATOM     21  C   UNL     1       5.675   3.607  13.929  0.00  0.00    +0.000 A 
ENDBRANCH  15  16
BRANCH  15  22
ATOM     22  C   UNL     1       6.641   5.560  17.120  0.00  0.00    +0.000 A 
ATOM     23  C   UNL     1       7.236   5.112  18.315  0.00  0.00    +0.000 A 
ATOM     24  C   UNL     1       8.039   5.961  19.083  0.00  0.00    +0.000 A 
ATOM     25  C   UNL     1       8.273   7.267  18.664  0.00  0.00    +0.000 A 
ATOM     26  C   UNL     1       7.679   7.735  17.494  0.00  0.00    +0.000 A 
ATOM     27  C   UNL     1       6.856   6.894  16.741  0.00  0.00    +0.000 A 
ENDBRANCH  15  22
ENDBRANCH   6  15
TORSDOF 6
ENDMDL
MODEL 6
REMARK VINA RESULT:      -6.0      2.841      8.818
REMARK  Name = 
REMARK  7 active torsions:
REMARK  status: ('A' for Active; 'I' for Inactive)
REMARK    1  A    between atoms: C_2  and  C_3
REMARK    2  A    between atoms: C_2  and  C_4
REMARK    3  A    between atoms: C_4  and  N_5
REMARK    4  A    between atoms: C_6  and  S_7
REMARK    5  A    between atoms: N_11  and  C_12
REMARK    6  A    between atoms: C_12  and  C_13
REMARK    7  A    between atoms: C_12  and  C_19
REMARK                            x       y       z     vdW  Elec       q    Type
REMARK                         _______ _______ _______ _____ _____    ______ ____
ROOT
ATOM      1  N   UNL     1       2.178   6.508  20.136  0.00  0.00    +0.000 NA
ATOM      2  C   UNL     1       2.156   7.641  19.515  0.00  0.00    +0.000 C 
ATOM      3  N   UNL     1       1.523   8.742  20.074  0.00  0.00    +0.000 N 
ATOM      4  C   UNL     1       1.007   9.888  19.315  0.00  0.00    +0.000 C 
ATOM      5  C   UNL     1      -0.486  10.135  19.640  0.00  0.00    +0.000 C 
ATOM      6  N   UNL     1      -0.801  10.305  21.085  0.00  0.00    +0.000 NA
ATOM      7  C   UNL     1      -0.276   9.092  21.768  0.00  0.00    +0.000 C 
ATOM      8  C   UNL     1       1.215   8.786  21.517  0.00  0.00    +0.000 C 
ENDROOT
BRANCH   2   9
ATOM      9  S   UNL     1       2.932   7.907  17.945  0.00  0.00    +0.000 S 
ATOM     10  H   UNL     1       3.991   7.113  18.091  0.00  0.00    +0.000 HD
ENDBRANCH   2   9
BRANCH   1  11
ATOM     11  C   UNL     1       2.781   5.314  19.565  0.00  0.00    +0.000 C 
BRANCH  11  13
ATOM     12  C   UNL     1       1.485   4.093  17.820  0.00  0.00    +0.000 C 
ATOM     13  C   UNL     1       1.700   4.358  19.119  0.00  0.00    +0.000 C 
ATOM     14  C   UNL     1       0.837   3.758  20.193  0.00  0.00    +0.000 C 
ENDBRANCH  11  13
ENDBRANCH   1  11
BRANCH   6  15
ATOM     15  C   UNL     1      -0.239  11.581  21.620  0.00  0.00    +0.000 C 
BRANCH  15  16
ATOM     16  C   UNL     1       0.283  12.474  20.479  0.00  0.00    +0.000 A 
ATOM     17  C   UNL     1       1.646  12.796  20.359  0.00  0.00    +0.000 A 
ATOM     18  C   UNL     1       2.090  13.706  19.398  0.00  0.00    +0.000 A 
ATOM     19  C   UNL     1       1.176  14.326  18.554  0.00  0.00    +0.000 A 
ATOM     20  C   UNL     1      -0.180  14.022  18.653  0.00  0.00    +0.000 A 
ATOM     21  C   UNL     1      -0.624  13.093  19.600  0.00  0.00    +0.000 A 
ENDBRANCH  15  16
BRANCH  15  22
ATOM     22  C   UNL     1      -1.190  12.349  22.556  0.00  0.00    +0.000 A 
ATOM     23  C   UNL     1      -0.817  13.619  23.038  0.00  0.00    +0.000 A 
ATOM     24  C   UNL     1      -1.670  14.355  23.866  0.00  0.00    +0.000 A 
ATOM     25  C   UNL     1      -2.916  13.843  24.215  0.00  0.00    +0.000 A 
ATOM     26  C   UNL     1      -3.296  12.582  23.764  0.00  0.00    +0.000 A 
ATOM     27  C   UNL     1      -2.433  11.835  22.958  0.00  0.00    +0.000 A 
ENDBRANCH  15  22
ENDBRANCH   6  15
TORSDOF 6
ENDMDL
MODEL 7
REMARK VINA RESULT:      -6.0      2.928      8.741
REMARK  Name = 
REMARK  7 active torsions:
REMARK  status: ('A' for Active; 'I' for Inactive)
REMARK    1  A    between atoms: C_2  and  C_3
REMARK    2  A    between atoms: C_2  and  C_4
REMARK    3  A    between atoms: C_4  and  N_5
REMARK    4  A    between atoms: C_6  and  S_7
REMARK    5  A    between atoms: N_11  and  C_12
REMARK    6  A    between atoms: C_12  and  C_13
REMARK    7  A    between atoms: C_12  and  C_19
REMARK                            x       y       z     vdW  Elec       q    Type
REMARK                         _______ _______ _______ _____ _____    ______ ____
ROOT
ATOM      1  N   UNL     1       2.107   6.326  20.404  0.00  0.00    +0.000 NA
ATOM      2  C   UNL     1       2.135   7.431  19.735  0.00  0.00    +0.000 C 
ATOM      3  N   UNL     1       1.522   8.573  20.228  0.00  0.00    +0.000 N 
ATOM      4  C   UNL     1       1.061   9.700  19.405  0.00  0.00    +0.000 C 
ATOM      5  C   UNL     1      -0.431  10.003  19.678  0.00  0.00    +0.000 C 
ATOM      6  N   UNL     1      -0.779  10.246  21.106  0.00  0.00    +0.000 NA
ATOM      7  C   UNL     1      -0.309   9.050  21.855  0.00  0.00    +0.000 C 
ATOM      8  C   UNL     1       1.178   8.690  21.658  0.00  0.00    +0.000 C 
ENDROOT
BRANCH   2   9
ATOM      9  S   UNL     1       2.961   7.605  18.176  0.00  0.00    +0.000 S 
ATOM     10  H   UNL     1       1.914   7.476  17.363  0.00  0.00    +0.000 HD
ENDBRANCH   2   9
BRANCH   1  11
ATOM     11  C   UNL     1       2.689   5.091  19.902  0.00  0.00    +0.000 C 
BRANCH  11  13
ATOM     12  C   UNL     1       0.823   3.467  20.218  0.00  0.00    +0.000 C 
ATOM     13  C   UNL     1       1.597   4.184  19.386  0.00  0.00    +0.000 C 
ATOM     14  C   UNL     1       1.452   4.075  17.894  0.00  0.00    +0.000 C 
ENDBRANCH  11  13
ENDBRANCH   1  11
BRANCH   6  15
ATOM     15  C   UNL     1      -0.194  11.528  21.601  0.00  0.00    +0.000 C 
BRANCH  15  16
ATOM     16  C   UNL     1       0.340  12.376  20.432  0.00  0.00    +0.000 A 
ATOM     17  C   UNL     1       1.699  12.720  20.329  0.00  0.00    +0.000 A 
ATOM     18  C   UNL     1       2.150  13.592  19.337  0.00  0.00    +0.000 A 
ATOM     19  C   UNL     1       1.246  14.154  18.443  0.00  0.00    +0.000 A 
ATOM     20  C   UNL     1      -0.106  13.828  18.524  0.00  0.00    +0.000 A 
ATOM     21  C   UNL     1      -0.556  12.936  19.502  0.00  0.00    +0.000 A 
ENDBRANCH  15  16
BRANCH  15  22
ATOM     22  C   UNL     1      -1.128  12.340  22.515  0.00  0.00    +0.000 A 
ATOM     23  C   UNL     1      -2.366  11.795  22.906  0.00  0.00    +0.000 A 
ATOM     24  C   UNL     1      -3.225  12.495  23.759  0.00  0.00    +0.000 A 
ATOM     25  C   UNL     1      -2.857  13.745  24.247  0.00  0.00    +0.000 A 
ATOM     26  C   UNL     1      -1.645  14.310  23.858  0.00  0.00    +0.000 A 
ATOM     27  C   UNL     1      -0.799  13.622  22.985  0.00  0.00    +0.000 A 
ENDBRANCH  15  22
ENDBRANCH   6  15
TORSDOF 6
ENDMDL
MODEL 8
REMARK VINA RESULT:      -5.9      6.386      8.798
REMARK  Name = 
REMARK  7 active torsions:
REMARK  status: ('A' for Active; 'I' for Inactive)
REMARK    1  A    between atoms: C_2  and  C_3
REMARK    2  A    between atoms: C_2  and  C_4
REMARK    3  A    between atoms: C_4  and  N_5
REMARK    4  A    between atoms: C_6  and  S_7
REMARK    5  A    between atoms: N_11  and  C_12
REMARK    6  A    between atoms: C_12  and  C_13
REMARK    7  A    between atoms: C_12  and  C_19
REMARK                            x       y       z     vdW  Elec       q    Type
REMARK                         _______ _______ _______ _____ _____    ______ ____
ROOT
ATOM      1  N   UNL     1       3.668  15.487  20.687  0.00  0.00    +0.000 NA
ATOM      2  C   UNL     1       2.481  15.744  20.250  0.00  0.00    +0.000 C 
ATOM      3  N   UNL     1       1.544  14.731  20.105  0.00  0.00    +0.000 N 
ATOM      4  C   UNL     1       0.388  14.780  19.200  0.00  0.00    +0.000 C 
ATOM      5  C   UNL     1       0.373  13.549  18.263  0.00  0.00    +0.000 C 
ATOM      6  N   UNL     1       0.421  12.228  18.949  0.00  0.00    +0.000 NA
ATOM      7  C   UNL     1       1.632  12.254  19.812  0.00  0.00    +0.000 C 
ATOM      8  C   UNL     1       1.715  13.439  20.797  0.00  0.00    +0.000 C 
ENDROOT
BRANCH   2   9
ATOM      9  S   UNL     1       1.930  17.375  19.829  0.00  0.00    +0.000 S 
ATOM     10  H   UNL     1       0.903  17.479  20.670  0.00  0.00    +0.000 HD
ENDBRANCH   2   9
BRANCH   1  11
ATOM     11  C   UNL     1       4.699  16.507  20.804  0.00  0.00    +0.000 C 
BRANCH  11  13
ATOM     12  C   UNL     1       6.421  17.396  19.235  0.00  0.00    +0.000 C 
ATOM     13  C   UNL     1       5.698  16.356  19.682  0.00  0.00    +0.000 C 
ATOM     14  C   UNL     1       5.806  14.998  19.045  0.00  0.00    +0.000 C 
ENDBRANCH  11  13
ENDBRANCH   1  11
BRANCH   6  15
ATOM     15  C   UNL     1      -0.841  11.956  19.698  0.00  0.00    +0.000 C 
BRANCH  15  16
ATOM     16  C   UNL     1      -1.975  11.550  18.739  0.00  0.00    +0.000 A 
ATOM     17  C   UNL     1      -3.301  11.972  18.942  0.00  0.00    +0.000 A 
ATOM     18  C   UNL     1      -4.340  11.497  18.141  0.00  0.00    +0.000 A 
ATOM     19  C   UNL     1      -4.076  10.575  17.135  0.00  0.00    +0.000 A 
ATOM     20  C   UNL     1      -2.770  10.143  16.913  0.00  0.00    +0.000 A 
ATOM     21  C   UNL     1      -1.724  10.635  17.700  0.00  0.00    +0.000 A 
ENDBRANCH  15  16
BRANCH  15  22
ATOM     22  C   UNL     1      -0.688  10.953  20.856  0.00  0.00    +0.000 A 
ATOM     23  C   UNL     1      -0.216   9.652  20.591  0.00  0.00    +0.000 A 
ATOM     24  C   UNL     1      -0.038   8.726  21.624  0.00  0.00    +0.000 A 
ATOM     25  C   UNL     1      -0.315   9.087  22.939  0.00  0.00    +0.000 A 
ATOM     26  C   UNL     1      -0.800  10.361  23.219  0.00  0.00    +0.000 A 
ATOM     27  C   UNL     1      -1.002  11.278  22.185  0.00  0.00    +0.000 A 
ENDBRANCH  15  22
ENDBRANCH   6  15
TORSDOF 6
ENDMDL
MODEL 9
REMARK VINA RESULT:      -5.8      6.364      8.856
REMARK  Name = 
REMARK  7 active torsions:
REMARK  status: ('A' for Active; 'I' for Inactive)
REMARK    1  A    between atoms: C_2  and  C_3
REMARK    2  A    between atoms: C_2  and  C_4
REMARK    3  A    between atoms: C_4  and  N_5
REMARK    4  A    between atoms: C_6  and  S_7
REMARK    5  A    between atoms: N_11  and  C_12
REMARK    6  A    between atoms: C_12  and  C_13
REMARK    7  A    between atoms: C_12  and  C_19
REMARK                            x       y       z     vdW  Elec       q    Type
REMARK                         _______ _______ _______ _____ _____    ______ ____
ROOT
ATOM      1  N   UNL     1       3.502  15.543  20.073  0.00  0.00    +0.000 NA
ATOM      2  C   UNL     1       2.263  15.781  19.796  0.00  0.00    +0.000 C 
ATOM      3  N   UNL     1       1.332  14.754  19.775  0.00  0.00    +0.000 N 
ATOM      4  C   UNL     1       0.066  14.783  19.030  0.00  0.00    +0.000 C 
ATOM      5  C   UNL     1      -0.053  13.550  18.103  0.00  0.00    +0.000 C 
ATOM      6  N   UNL     1       0.105  12.231  18.777  0.00  0.00    +0.000 NA
ATOM      7  C   UNL     1       1.418  12.278  19.473  0.00  0.00    +0.000 C 
ATOM      8  C   UNL     1       1.612  13.466  20.439  0.00  0.00    +0.000 C 
ENDROOT
BRANCH   2   9
ATOM      9  S   UNL     1       1.636  17.403  19.451  0.00  0.00    +0.000 S 
ATOM     10  H   UNL     1       2.202  17.603  18.262  0.00  0.00    +0.000 HD
ENDBRANCH   2   9
BRANCH   1  11
ATOM     11  C   UNL     1       4.523  16.579  20.053  0.00  0.00    +0.000 C 
BRANCH  11  13
ATOM     12  C   UNL     1       6.536  17.154  21.408  0.00  0.00    +0.000 C 
ATOM     13  C   UNL     1       5.600  16.254  21.061  0.00  0.00    +0.000 C 
ATOM     14  C   UNL     1       5.614  14.858  21.616  0.00  0.00    +0.000 C 
ENDBRANCH  11  13
ENDBRANCH   1  11
BRANCH   6  15
ATOM     15  C   UNL     1      -1.043  11.941  19.686  0.00  0.00    +0.000 C 
BRANCH  15  16
ATOM     16  C   UNL     1      -2.293  11.537  18.883  0.00  0.00    +0.000 A 
ATOM     17  C   UNL     1      -2.209  10.698  17.759  0.00  0.00    +0.000 A 
ATOM     18  C   UNL     1      -3.328  10.440  16.965  0.00  0.00    +0.000 A 
ATOM     19  C   UNL     1      -4.547  11.033  17.269  0.00  0.00    +0.000 A 
ATOM     20  C   UNL     1      -4.656  11.868  18.380  0.00  0.00    +0.000 A 
ATOM     21  C   UNL     1      -3.542  12.109  19.190  0.00  0.00    +0.000 A 
ENDBRANCH  15  16
BRANCH  15  22
ATOM     22  C   UNL     1      -0.729  10.927  20.801  0.00  0.00    +0.000 A 
ATOM     23  C   UNL     1      -0.953  11.279  22.146  0.00  0.00    +0.000 A 
ATOM     24  C   UNL     1      -0.705  10.371  23.180  0.00  0.00    +0.000 A 
ATOM     25  C   UNL     1      -0.242   9.092  22.888  0.00  0.00    +0.000 A 
ATOM     26  C   UNL     1       0.004   8.730  21.566  0.00  0.00    +0.000 A 
ATOM     27  C   UNL     1      -0.219   9.646  20.535  0.00  0.00    +0.000 A 
ENDBRANCH  15  22
ENDBRANCH   6  15
TORSDOF 6
ENDMDL
