MODEL 1
REMARK VINA RESULT:      -7.0      0.000      0.000
REMARK  Name = 
REMARK  2 active torsions:
REMARK  status: ('A' for Active; 'I' for Inactive)
REMARK    1  A    between atoms: N_13  and  C_14
REMARK    2  A    between atoms: C_14  and  C_15
REMARK                            x       y       z     vdW  Elec       q    Type
REMARK                         _______ _______ _______ _____ _____    ______ ____
ROOT
ATOM      1  C   UNL     1       8.022   5.188  19.075  0.00  0.00    +0.000 A 
ATOM      2  C   UNL     1       6.869   5.607  19.722  0.00  0.00    +0.000 A 
ATOM      3  C   UNL     1       5.629   5.492  19.092  0.00  0.00    +0.000 A 
ATOM      4  C   UNL     1       5.515   4.935  17.803  0.00  0.00    +0.000 A 
ATOM      5  C   UNL     1       6.704   4.596  17.115  0.00  0.00    +0.000 A 
ATOM      6  C   UNL     1       7.946   4.720  17.766  0.00  0.00    +0.000 A 
ATOM      7  C   UNL     1       6.708   4.106  15.686  0.00  0.00    +0.000 C 
ATOM      8  C   UNL     1       5.349   3.771  15.081  0.00  0.00    +0.000 C 
ATOM      9  C   UNL     1       4.200   4.551  15.710  0.00  0.00    +0.000 C 
ATOM     10  C   UNL     1       4.155   4.436  17.266  0.00  0.00    +0.000 C 
ATOM     11  C   UNL     1       4.100   2.975  17.788  0.00  0.00    +0.000 C 
ATOM     12  C   UNL     1       2.783   2.239  17.587  0.00  0.00    +0.000 C 
ATOM     13  N   UNL     1       1.563   2.964  17.981  0.00  0.00    +0.000 NA
ATOM     14  C   UNL     1       1.579   4.369  17.562  0.00  0.00    +0.000 C 
ATOM     15  C   UNL     1       2.886   5.158  17.788  0.00  0.00    +0.000 C 
ENDROOT
BRANCH  13  16
ATOM     16  C   UNL     1       1.196   2.677  19.361  0.00  0.00    +0.000 C 
BRANCH  16  17
ATOM     17  C   UNL     1       2.311   2.920  20.341  0.00  0.00    +0.000 C 
ATOM     18  C   UNL     1       2.197   4.128  21.233  0.00  0.00    +0.000 C 
ATOM     19  C   UNL     1       2.100   2.748  21.825  0.00  0.00    +0.000 C 
ENDBRANCH  16  17
ENDBRANCH  13  16
TORSDOF 2
ENDMDL
MODEL 2
REMARK VINA RESULT:      -6.6      1.960      5.875
REMARK  Name = 
REMARK  2 active torsions:
REMARK  status: ('A' for Active; 'I' for Inactive)
REMARK    1  A    between atoms: N_13  and  C_14
REMARK    2  A    between atoms: C_14  and  C_15
REMARK                            x       y       z     vdW  Elec       q    Type
REMARK                         _______ _______ _______ _____ _____    ______ ____
ROOT
ATOM      1  C   UNL     1       1.116   1.995  19.052  0.00  0.00    +0.000 A 
ATOM      2  C   UNL     1       1.654   2.282  17.806  0.00  0.00    +0.000 A 
ATOM      3  C   UNL     1       2.228   3.529  17.559  0.00  0.00    +0.000 A 
ATOM      4  C   UNL     1       2.295   4.513  18.565  0.00  0.00    +0.000 A 
ATOM      5  C   UNL     1       1.664   4.246  19.802  0.00  0.00    +0.000 A 
ATOM      6  C   UNL     1       1.088   2.983  20.033  0.00  0.00    +0.000 A 
ATOM      7  C   UNL     1       1.568   5.272  20.908  0.00  0.00    +0.000 C 
ATOM      8  C   UNL     1       2.386   6.546  20.722  0.00  0.00    +0.000 C 
ATOM      9  C   UNL     1       2.640   6.892  19.258  0.00  0.00    +0.000 C 
ATOM     10  C   UNL     1       3.261   5.713  18.445  0.00  0.00    +0.000 C 
ATOM     11  C   UNL     1       4.575   5.153  19.052  0.00  0.00    +0.000 C 
ATOM     12  C   UNL     1       5.807   6.037  18.919  0.00  0.00    +0.000 C 
ATOM     13  N   UNL     1       6.066   6.600  17.583  0.00  0.00    +0.000 NA
ATOM     14  C   UNL     1       4.849   7.099  16.933  0.00  0.00    +0.000 C 
ATOM     15  C   UNL     1       3.591   6.209  17.013  0.00  0.00    +0.000 C 
ENDROOT
BRANCH  13  16
ATOM     16  C   UNL     1       6.940   5.737  16.802  0.00  0.00    +0.000 C 
BRANCH  16  17
ATOM     17  C   UNL     1       6.337   5.297  15.496  0.00  0.00    +0.000 C 
ATOM     18  C   UNL     1       7.226   4.539  14.545  0.00  0.00    +0.000 C 
ATOM     19  C   UNL     1       6.071   3.839  15.209  0.00  0.00    +0.000 C 
ENDBRANCH  16  17
ENDBRANCH  13  16
TORSDOF 2
ENDMDL
MODEL 3
REMARK VINA RESULT:      -6.6      2.009      5.350
REMARK  Name = 
REMARK  2 active torsions:
REMARK  status: ('A' for Active; 'I' for Inactive)
REMARK    1  A    between atoms: N_13  and  C_14
REMARK    2  A    between atoms: C_14  and  C_15
REMARK                            x       y       z     vdW  Elec       q    Type
REMARK                         _______ _______ _______ _____ _____    ______ ____
ROOT
ATOM      1  C   UNL     1       3.017   2.323  21.645  0.00  0.00    +0.000 A 
ATOM      2  C   UNL     1       4.235   2.087  21.025  0.00  0.00    +0.000 A 
ATOM      3  C   UNL     1       4.425   2.446  19.690  0.00  0.00    +0.000 A 
ATOM      4  C   UNL     1       3.402   3.071  18.951  0.00  0.00    +0.000 A 
ATOM      5  C   UNL     1       2.135   3.224  19.562  0.00  0.00    +0.000 A 
ATOM      6  C   UNL     1       1.961   2.855  20.909  0.00  0.00    +0.000 A 
ATOM      7  C   UNL     1       0.934   3.769  18.825  0.00  0.00    +0.000 C 
ATOM      8  C   UNL     1       1.198   4.365  17.446  0.00  0.00    +0.000 C 
ATOM      9  C   UNL     1       2.424   3.773  16.758  0.00  0.00    +0.000 C 
ATOM     10  C   UNL     1       3.711   3.825  17.638  0.00  0.00    +0.000 C 
ATOM     11  C   UNL     1       4.072   5.249  18.143  0.00  0.00    +0.000 C 
ATOM     12  C   UNL     1       4.615   6.214  17.099  0.00  0.00    +0.000 C 
ATOM     13  N   UNL     1       5.685   5.699  16.228  0.00  0.00    +0.000 NA
ATOM     14  C   UNL     1       5.427   4.333  15.760  0.00  0.00    +0.000 C 
ATOM     15  C   UNL     1       4.914   3.316  16.803  0.00  0.00    +0.000 C 
ENDROOT
BRANCH  13  16
ATOM     16  C   UNL     1       7.003   5.985  16.778  0.00  0.00    +0.000 C 
BRANCH  16  17
ATOM     17  C   UNL     1       7.006   7.116  17.769  0.00  0.00    +0.000 C 
ATOM     18  C   UNL     1       8.247   7.301  18.604  0.00  0.00    +0.000 C 
ATOM     19  C   UNL     1       7.880   8.330  17.568  0.00  0.00    +0.000 C 
ENDBRANCH  16  17
ENDBRANCH  13  16
TORSDOF 2
ENDMDL
MODEL 4
REMARK VINA RESULT:      -6.6      2.436      5.873
REMARK  Name = 
REMARK  2 active torsions:
REMARK  status: ('A' for Active; 'I' for Inactive)
REMARK    1  A    between atoms: N_13  and  C_14
REMARK    2  A    between atoms: C_14  and  C_15
REMARK                            x       y       z     vdW  Elec       q    Type
REMARK                         _______ _______ _______ _____ _____    ______ ____
ROOT
ATOM      1  C   UNL     1       1.764   8.173  18.318  0.00  0.00    +0.000 A 
ATOM      2  C   UNL     1       2.856   8.518  17.535  0.00  0.00    +0.000 A 
ATOM      3  C   UNL     1       3.973   7.683  17.483  0.00  0.00    +0.000 A 
ATOM      4  C   UNL     1       4.012   6.471  18.199  0.00  0.00    +0.000 A 
ATOM      5  C   UNL     1       2.935   6.173  19.066  0.00  0.00    +0.000 A 
ATOM      6  C   UNL     1       1.816   7.027  19.107  0.00  0.00    +0.000 A 
ATOM      7  C   UNL     1       2.926   4.964  19.972  0.00  0.00    +0.000 C 
ATOM      8  C   UNL     1       4.037   3.943  19.750  0.00  0.00    +0.000 C 
ATOM      9  C   UNL     1       5.302   4.549  19.149  0.00  0.00    +0.000 C 
ATOM     10  C   UNL     1       5.035   5.368  17.848  0.00  0.00    +0.000 C 
ATOM     11  C   UNL     1       4.301   4.567  16.739  0.00  0.00    +0.000 C 
ATOM     12  C   UNL     1       5.120   3.498  16.029  0.00  0.00    +0.000 C 
ATOM     13  N   UNL     1       6.456   3.901  15.561  0.00  0.00    +0.000 NA
ATOM     14  C   UNL     1       7.181   4.710  16.547  0.00  0.00    +0.000 C 
ATOM     15  C   UNL     1       6.392   5.831  17.258  0.00  0.00    +0.000 C 
ENDROOT
BRANCH  13  16
ATOM     16  C   UNL     1       6.415   4.390  14.190  0.00  0.00    +0.000 C 
BRANCH  16  17
ATOM     17  C   UNL     1       6.154   3.309  13.176  0.00  0.00    +0.000 C 
ATOM     18  C   UNL     1       5.063   3.557  12.167  0.00  0.00    +0.000 C 
ATOM     19  C   UNL     1       6.499   3.503  11.720  0.00  0.00    +0.000 C 
ENDBRANCH  16  17
ENDBRANCH  13  16
TORSDOF 2
ENDMDL
MODEL 5
REMARK VINA RESULT:      -6.5      1.571      3.472
REMARK  Name = 
REMARK  2 active torsions:
REMARK  status: ('A' for Active; 'I' for Inactive)
REMARK    1  A    between atoms: N_13  and  C_14
REMARK    2  A    between atoms: C_14  and  C_15
REMARK                            x       y       z     vdW  Elec       q    Type
REMARK                         _______ _______ _______ _____ _____    ______ ____
ROOT
ATOM      1  C   UNL     1       6.515   4.487  13.973  0.00  0.00    +0.000 A 
ATOM      2  C   UNL     1       5.754   3.507  14.594  0.00  0.00    +0.000 A 
ATOM      3  C   UNL     1       5.543   3.549  15.972  0.00  0.00    +0.000 A 
ATOM      4  C   UNL     1       6.075   4.589  16.759  0.00  0.00    +0.000 A 
ATOM      5  C   UNL     1       6.925   5.531  16.135  0.00  0.00    +0.000 A 
ATOM      6  C   UNL     1       7.128   5.473  14.743  0.00  0.00    +0.000 A 
ATOM      7  C   UNL     1       7.646   6.615  16.902  0.00  0.00    +0.000 C 
ATOM      8  C   UNL     1       7.241   6.796  18.361  0.00  0.00    +0.000 C 
ATOM      9  C   UNL     1       6.692   5.523  18.997  0.00  0.00    +0.000 C 
ATOM     10  C   UNL     1       5.533   4.875  18.178  0.00  0.00    +0.000 C 
ATOM     11  C   UNL     1       4.345   5.835  17.899  0.00  0.00    +0.000 C 
ATOM     12  C   UNL     1       3.461   6.173  19.091  0.00  0.00    +0.000 C 
ATOM     13  N   UNL     1       3.011   5.037  19.913  0.00  0.00    +0.000 NA
ATOM     14  C   UNL     1       4.079   4.064  20.167  0.00  0.00    +0.000 C 
ATOM     15  C   UNL     1       4.970   3.667  18.971  0.00  0.00    +0.000 C 
ENDROOT
BRANCH  13  16
ATOM     16  C   UNL     1       1.727   4.525  19.456  0.00  0.00    +0.000 C 
BRANCH  16  17
ATOM     17  C   UNL     1       1.641   3.023  19.474  0.00  0.00    +0.000 C 
ATOM     18  C   UNL     1       0.458   2.390  18.788  0.00  0.00    +0.000 C 
ATOM     19  C   UNL     1       1.840   2.213  18.217  0.00  0.00    +0.000 C 
ENDBRANCH  16  17
ENDBRANCH  13  16
TORSDOF 2
ENDMDL
MODEL 6
REMARK VINA RESULT:      -6.4      2.121      5.481
REMARK  Name = 
REMARK  2 active torsions:
REMARK  status: ('A' for Active; 'I' for Inactive)
REMARK    1  A    between atoms: N_13  and  C_14
REMARK    2  A    between atoms: C_14  and  C_15
REMARK                            x       y       z     vdW  Elec       q    Type
REMARK                         _______ _______ _______ _____ _____    ______ ____
ROOT
ATOM      1  C   UNL     1       0.715   5.164  20.430  0.00  0.00    +0.000 A 
ATOM      2  C   UNL     1       1.846   5.956  20.567  0.00  0.00    +0.000 A 
ATOM      3  C   UNL     1       3.091   5.480  20.152  0.00  0.00    +0.000 A 
ATOM      4  C   UNL     1       3.226   4.205  19.570  0.00  0.00    +0.000 A 
ATOM      5  C   UNL     1       2.085   3.370  19.518  0.00  0.00    +0.000 A 
ATOM      6  C   UNL     1       0.838   3.866  19.942  0.00  0.00    +0.000 A 
ATOM      7  C   UNL     1       2.140   1.942  19.027  0.00  0.00    +0.000 C 
ATOM      8  C   UNL     1       3.444   1.501  18.370  0.00  0.00    +0.000 C 
ATOM      9  C   UNL     1       4.660   2.281  18.859  0.00  0.00    +0.000 C 
ATOM     10  C   UNL     1       4.483   3.828  18.754  0.00  0.00    +0.000 C 
ATOM     11  C   UNL     1       4.123   4.326  17.328  0.00  0.00    +0.000 C 
ATOM     12  C   UNL     1       5.240   4.273  16.296  0.00  0.00    +0.000 C 
ATOM     13  N   UNL     1       6.540   4.827  16.712  0.00  0.00    +0.000 NA
ATOM     14  C   UNL     1       6.912   4.436  18.075  0.00  0.00    +0.000 C 
ATOM     15  C   UNL     1       5.813   4.515  19.157  0.00  0.00    +0.000 C 
ENDROOT
BRANCH  13  16
ATOM     16  C   UNL     1       6.655   6.236  16.361  0.00  0.00    +0.000 C 
BRANCH  16  17
ATOM     17  C   UNL     1       6.756   7.145  17.555  0.00  0.00    +0.000 C 
ATOM     18  C   UNL     1       8.093   7.238  18.242  0.00  0.00    +0.000 C 
ATOM     19  C   UNL     1       7.549   8.427  17.497  0.00  0.00    +0.000 C 
ENDBRANCH  16  17
ENDBRANCH  13  16
TORSDOF 2
ENDMDL
MODEL 7
REMARK VINA RESULT:      -6.4      1.786      5.035
REMARK  Name = 
REMARK  2 active torsions:
REMARK  status: ('A' for Active; 'I' for Inactive)
REMARK    1  A    between atoms: N_13  and  C_14
REMARK    2  A    between atoms: C_14  and  C_15
REMARK                            x       y       z     vdW  Elec       q    Type
REMARK                         _______ _______ _______ _____ _____    ______ ____
ROOT
ATOM      1  C   UNL     1       3.130   2.102  21.538  0.00  0.00    +0.000 A 
ATOM      2  C   UNL     1       4.388   2.195  20.959  0.00  0.00    +0.000 A 
ATOM      3  C   UNL     1       4.532   2.726  19.676  0.00  0.00    +0.000 A 
ATOM      4  C   UNL     1       3.419   3.194  18.951  0.00  0.00    +0.000 A 
ATOM      5  C   UNL     1       2.133   3.011  19.511  0.00  0.00    +0.000 A 
ATOM      6  C   UNL     1       2.006   2.473  20.805  0.00  0.00    +0.000 A 
ATOM      7  C   UNL     1       0.863   3.364  18.772  0.00  0.00    +0.000 C 
ATOM      8  C   UNL     1       1.031   4.144  17.472  0.00  0.00    +0.000 C 
ATOM      9  C   UNL     1       2.374   3.900  16.791  0.00  0.00    +0.000 C 
ATOM     10  C   UNL     1       3.595   4.131  17.735  0.00  0.00    +0.000 C 
ATOM     11  C   UNL     1       3.626   5.537  18.393  0.00  0.00    +0.000 C 
ATOM     12  C   UNL     1       3.977   6.700  17.475  0.00  0.00    +0.000 C 
ATOM     13  N   UNL     1       5.157   6.518  16.613  0.00  0.00    +0.000 NA
ATOM     14  C   UNL     1       5.213   5.185  16.003  0.00  0.00    +0.000 C 
ATOM     15  C   UNL     1       4.902   3.979  16.915  0.00  0.00    +0.000 C 
ENDROOT
BRANCH  13  16
ATOM     16  C   UNL     1       6.366   7.017  17.253  0.00  0.00    +0.000 C 
BRANCH  16  17
ATOM     17  C   UNL     1       7.192   5.937  17.897  0.00  0.00    +0.000 C 
ATOM     18  C   UNL     1       8.204   6.363  18.928  0.00  0.00    +0.000 C 
ATOM     19  C   UNL     1       6.999   5.564  19.346  0.00  0.00    +0.000 C 
ENDBRANCH  16  17
ENDBRANCH  13  16
TORSDOF 2
ENDMDL
MODEL 8
REMARK VINA RESULT:      -6.3      2.068      5.912
REMARK  Name = 
REMARK  2 active torsions:
REMARK  status: ('A' for Active; 'I' for Inactive)
REMARK    1  A    between atoms: N_13  and  C_14
REMARK    2  A    between atoms: C_14  and  C_15
REMARK                            x       y       z     vdW  Elec       q    Type
REMARK                         _______ _______ _______ _____ _____    ______ ____
ROOT
ATOM      1  C   UNL     1       0.714   2.545  18.946  0.00  0.00    +0.000 A 
ATOM      2  C   UNL     1       0.685   3.535  17.974  0.00  0.00    +0.000 A 
ATOM      3  C   UNL     1       1.824   4.299  17.715  0.00  0.00    +0.000 A 
ATOM      4  C   UNL     1       3.027   4.072  18.411  0.00  0.00    +0.000 A 
ATOM      5  C   UNL     1       3.023   3.125  19.462  0.00  0.00    +0.000 A 
ATOM      6  C   UNL     1       1.864   2.365  19.711  0.00  0.00    +0.000 A 
ATOM      7  C   UNL     1       4.220   2.888  20.353  0.00  0.00    +0.000 C 
ATOM      8  C   UNL     1       5.523   3.557  19.928  0.00  0.00    +0.000 C 
ATOM      9  C   UNL     1       5.311   4.823  19.105  0.00  0.00    +0.000 C 
ATOM     10  C   UNL     1       4.373   4.609  17.875  0.00  0.00    +0.000 C 
ATOM     11  C   UNL     1       4.834   3.475  16.921  0.00  0.00    +0.000 C 
ATOM     12  C   UNL     1       6.062   3.770  16.071  0.00  0.00    +0.000 C 
ATOM     13  N   UNL     1       6.072   5.061  15.364  0.00  0.00    +0.000 NA
ATOM     14  C   UNL     1       5.594   6.168  16.199  0.00  0.00    +0.000 C 
ATOM     15  C   UNL     1       4.326   5.917  17.044  0.00  0.00    +0.000 C 
ENDROOT
BRANCH  13  16
ATOM     16  C   UNL     1       5.514   4.939  14.025  0.00  0.00    +0.000 C 
BRANCH  16  17
ATOM     17  C   UNL     1       5.879   3.651  13.338  0.00  0.00    +0.000 C 
ATOM     18  C   UNL     1       5.208   3.354  12.023  0.00  0.00    +0.000 C 
ATOM     19  C   UNL     1       6.684   3.645  12.062  0.00  0.00    +0.000 C 
ENDBRANCH  16  17
ENDBRANCH  13  16
TORSDOF 2
ENDMDL
MODEL 9
REMARK VINA RESULT:      -6.3      1.880      3.212
REMARK  Name = 
REMARK  2 active torsions:
REMARK  status: ('A' for Active; 'I' for Inactive)
REMARK    1  A    between atoms: N_13  and  C_14
REMARK    2  A    between atoms: C_14  and  C_15
REMARK                            x       y       z     vdW  Elec       q    Type
REMARK                         _______ _______ _______ _____ _____    ______ ____
ROOT
ATOM      1  C   UNL     1       2.704   8.560  17.873  0.00  0.00    +0.000 A 
ATOM      2  C   UNL     1       1.806   7.569  18.241  0.00  0.00    +0.000 A 
ATOM      3  C   UNL     1       2.126   6.224  18.046  0.00  0.00    +0.000 A 
ATOM      4  C   UNL     1       3.365   5.842  17.497  0.00  0.00    +0.000 A 
ATOM      5  C   UNL     1       4.236   6.860  17.041  0.00  0.00    +0.000 A 
ATOM      6  C   UNL     1       3.896   8.211  17.244  0.00  0.00    +0.000 A 
ATOM      7  C   UNL     1       5.534   6.564  16.326  0.00  0.00    +0.000 C 
ATOM      8  C   UNL     1       5.984   5.107  16.316  0.00  0.00    +0.000 C 
ATOM      9  C   UNL     1       4.829   4.118  16.428  0.00  0.00    +0.000 C 
ATOM     10  C   UNL     1       3.893   4.398  17.645  0.00  0.00    +0.000 C 
ATOM     11  C   UNL     1       4.632   4.446  19.010  0.00  0.00    +0.000 C 
ATOM     12  C   UNL     1       5.124   3.113  19.555  0.00  0.00    +0.000 C 
ATOM     13  N   UNL     1       4.154   2.005  19.544  0.00  0.00    +0.000 NA
ATOM     14  C   UNL     1       3.383   1.939  18.297  0.00  0.00    +0.000 C 
ATOM     15  C   UNL     1       2.835   3.269  17.736  0.00  0.00    +0.000 C 
ENDROOT
BRANCH  13  16
ATOM     16  C   UNL     1       3.415   1.932  20.796  0.00  0.00    +0.000 C 
BRANCH  16  17
ATOM     17  C   UNL     1       2.010   2.461  20.696  0.00  0.00    +0.000 C 
ATOM     18  C   UNL     1       1.253   2.662  21.982  0.00  0.00    +0.000 C 
ATOM     19  C   UNL     1       1.665   3.855  21.161  0.00  0.00    +0.000 C 
ENDBRANCH  16  17
ENDBRANCH  13  16
TORSDOF 2
ENDMDL
