MODEL 1
REMARK VINA RESULT:      -6.4      0.000      0.000
REMARK  Name = 
REMARK  14 active torsions:
REMARK  status: ('A' for Active; 'I' for Inactive)
REMARK    1  A    between atoms: C_1  and  O_2
REMARK    2  A    between atoms: O_2  and  C_3
REMARK    3  A    between atoms: C_3  and  C_4
REMARK    4  A    between atoms: C_4  and  C_5
REMARK    5  A    between atoms: C_11  and  C_12
REMARK    6  A    between atoms: C_12  and  C_13
REMARK    7  A    between atoms: C_13  and  S_14
REMARK    8  A    between atoms: S_14  and  C_15
REMARK    9  A    between atoms: C_15  and  C_16
REMARK   10  A    between atoms: C_16  and  C_17
REMARK   11  A    between atoms: C_22  and  C_24
REMARK   12  A    between atoms: C_24  and  C_25
REMARK   13  A    between atoms: C_25  and  O_26
REMARK   14  A    between atoms: O_26  and  C_27
REMARK                            x       y       z     vdW  Elec       q    Type
REMARK                         _______ _______ _______ _____ _____    ______ ____
ROOT
ATOM      1  S   UNL     1       2.164   4.192  18.450  0.00  0.00    +0.000 S 
ENDROOT
BRANCH   1   2
ATOM      2  C   UNL     1       3.771   3.363  18.773  0.00  0.00    +0.000 C 
BRANCH   2   3
ATOM      3  C   UNL     1       4.583   3.216  17.492  0.00  0.00    +0.000 C 
BRANCH   3  10
ATOM      4  C   UNL     1       7.860   8.016  17.944  0.00  0.00    +0.000 C 
ATOM      5  O   UNL     1       8.323   7.178  18.715  0.00  0.00    +0.000 OA
ATOM      6  N   UNL     1       6.909   7.787  16.973  0.00  0.00    +0.000 N 
ATOM      7  C   UNL     1       6.211   6.614  16.827  0.00  0.00    +0.000 A 
ATOM      8  N   UNL     1       5.542   6.300  15.740  0.00  0.00    +0.000 NA
ATOM      9  N   UNL     1       4.943   5.054  15.842  0.00  0.00    +0.000 NA
ATOM     10  C   UNL     1       5.146   4.510  17.026  0.00  0.00    +0.000 A 
ATOM     11  S   UNL     1       6.061   5.486  18.093  0.00  0.00    +0.000 S 
ATOM     12  H   UNL     1       6.812   8.424  16.196  0.00  0.00    +0.000 HD
BRANCH   4  13
ATOM     13  C   UNL     1       8.410   9.426  17.945  0.00  0.00    +0.000 C 
BRANCH  13  14
ATOM     14  C   UNL     1       9.028   9.808  19.278  0.00  0.00    +0.000 C 
BRANCH  14  16
ATOM     15  C   UNL     1       9.770  12.020  19.611  0.00  0.00    +0.000 C 
ATOM     16  O   UNL     1      10.082  10.745  19.067  0.00  0.00    +0.000 OA
ENDBRANCH  14  16
ENDBRANCH  13  14
ENDBRANCH   4  13
ENDBRANCH   3  10
ENDBRANCH   2   3
ENDBRANCH   1   2
BRANCH   1  17
ATOM     17  C   UNL     1       2.061   5.325  19.891  0.00  0.00    +0.000 C 
BRANCH  17  18
ATOM     18  C   UNL     1       2.847   6.605  19.639  0.00  0.00    +0.000 C 
BRANCH  18  19
ATOM     19  C   UNL     1       1.990   7.823  19.613  0.00  0.00    +0.000 A 
ATOM     20  N   UNL     1       1.714   8.578  18.571  0.00  0.00    +0.000 NA
ATOM     21  N   UNL     1       0.863   9.612  18.907  0.00  0.00    +0.000 NA
ATOM     22  C   UNL     1       0.576   9.624  20.188  0.00  0.00    +0.000 A 
ATOM     23  N   UNL     1      -0.229  10.567  20.772  0.00  0.00    +0.000 N 
ATOM     24  C   UNL     1      -0.355  10.785  22.126  0.00  0.00    +0.000 C 
ATOM     25  O   UNL     1       0.317  10.258  23.010  0.00  0.00    +0.000 OA
ATOM     26  S   UNL     1       1.216   8.312  21.060  0.00  0.00    +0.000 S 
ATOM     27  H   UNL     1      -0.646  11.208  20.111  0.00  0.00    +0.000 HD
BRANCH  24  28
ATOM     28  C   UNL     1      -1.357  11.859  22.480  0.00  0.00    +0.000 C 
BRANCH  28  29
ATOM     29  C   UNL     1      -0.690  13.169  22.866  0.00  0.00    +0.000 C 
BRANCH  29  30
ATOM     30  O   UNL     1       0.343  13.470  21.935  0.00  0.00    +0.000 OA
ATOM     31  C   UNL     1      -0.144  14.236  20.841  0.00  0.00    +0.000 C 
ENDBRANCH  29  30
ENDBRANCH  28  29
ENDBRANCH  24  28
ENDBRANCH  18  19
ENDBRANCH  17  18
ENDBRANCH   1  17
TORSDOF 12
ENDMDL
MODEL 2
REMARK VINA RESULT:      -6.2      3.243      4.239
REMARK  Name = 
REMARK  14 active torsions:
REMARK  status: ('A' for Active; 'I' for Inactive)
REMARK    1  A    between atoms: C_1  and  O_2
REMARK    2  A    between atoms: O_2  and  C_3
REMARK    3  A    between atoms: C_3  and  C_4
REMARK    4  A    between atoms: C_4  and  C_5
REMARK    5  A    between atoms: C_11  and  C_12
REMARK    6  A    between atoms: C_12  and  C_13
REMARK    7  A    between atoms: C_13  and  S_14
REMARK    8  A    between atoms: S_14  and  C_15
REMARK    9  A    between atoms: C_15  and  C_16
REMARK   10  A    between atoms: C_16  and  C_17
REMARK   11  A    between atoms: C_22  and  C_24
REMARK   12  A    between atoms: C_24  and  C_25
REMARK   13  A    between atoms: C_25  and  O_26
REMARK   14  A    between atoms: O_26  and  C_27
REMARK                            x       y       z     vdW  Elec       q    Type
REMARK                         _______ _______ _______ _____ _____    ______ ____
ROOT
ATOM      1  S   UNL     1       1.230   4.498  19.846  0.00  0.00    +0.000 S 
ENDROOT
BRANCH   1   2
ATOM      2  C   UNL     1       2.535   3.495  19.032  0.00  0.00    +0.000 C 
BRANCH   2   3
ATOM      3  C   UNL     1       3.843   3.554  19.812  0.00  0.00    +0.000 C 
BRANCH   3  10
ATOM      4  C   UNL     1       6.550   4.794  14.801  0.00  0.00    +0.000 C 
ATOM      5  O   UNL     1       5.341   4.840  14.589  0.00  0.00    +0.000 OA
ATOM      6  N   UNL     1       7.155   4.715  16.038  0.00  0.00    +0.000 N 
ATOM      7  C   UNL     1       6.488   4.513  17.220  0.00  0.00    +0.000 A 
ATOM      8  N   UNL     1       7.021   4.739  18.400  0.00  0.00    +0.000 NA
ATOM      9  N   UNL     1       6.132   4.473  19.430  0.00  0.00    +0.000 NA
ATOM     10  C   UNL     1       4.984   4.008  18.975  0.00  0.00    +0.000 A 
ATOM     11  S   UNL     1       4.922   3.847  17.273  0.00  0.00    +0.000 S 
ATOM     12  H   UNL     1       8.119   4.992  16.151  0.00  0.00    +0.000 HD
BRANCH   4  13
ATOM     13  C   UNL     1       7.523   4.925  13.649  0.00  0.00    +0.000 C 
BRANCH  13  14
ATOM     14  C   UNL     1       6.946   4.416  12.340  0.00  0.00    +0.000 C 
BRANCH  14  16
ATOM     15  C   UNL     1       5.424   2.772  11.610  0.00  0.00    +0.000 C 
ATOM     16  O   UNL     1       6.481   3.079  12.508  0.00  0.00    +0.000 OA
ENDBRANCH  14  16
ENDBRANCH  13  14
ENDBRANCH   4  13
ENDBRANCH   3  10
ENDBRANCH   2   3
ENDBRANCH   1   2
BRANCH   1  17
ATOM     17  C   UNL     1       2.239   5.824  20.616  0.00  0.00    +0.000 C 
BRANCH  17  18
ATOM     18  C   UNL     1       2.609   6.893  19.597  0.00  0.00    +0.000 C 
BRANCH  18  19
ATOM     19  C   UNL     1       1.762   8.115  19.696  0.00  0.00    +0.000 A 
ATOM     20  N   UNL     1       1.481   8.967  18.732  0.00  0.00    +0.000 NA
ATOM     21  N   UNL     1       0.643   9.971  19.175  0.00  0.00    +0.000 NA
ATOM     22  C   UNL     1       0.369   9.864  20.454  0.00  0.00    +0.000 A 
ATOM     23  N   UNL     1      -0.421  10.753  21.134  0.00  0.00    +0.000 N 
ATOM     24  C   UNL     1      -0.530  10.844  22.504  0.00  0.00    +0.000 C 
ATOM     25  O   UNL     1       0.147  10.231  23.327  0.00  0.00    +0.000 OA
ATOM     26  S   UNL     1       1.008   8.471  21.192  0.00  0.00    +0.000 S 
ATOM     27  H   UNL     1      -0.840  11.457  20.542  0.00  0.00    +0.000 HD
BRANCH  24  28
ATOM     28  C   UNL     1      -1.518  11.887  22.969  0.00  0.00    +0.000 C 
BRANCH  28  29
ATOM     29  C   UNL     1      -0.892  13.267  23.089  0.00  0.00    +0.000 C 
BRANCH  29  30
ATOM     30  O   UNL     1       0.186  13.382  22.167  0.00  0.00    +0.000 OA
ATOM     31  C   UNL     1      -0.073  14.372  21.180  0.00  0.00    +0.000 C 
ENDBRANCH  29  30
ENDBRANCH  28  29
ENDBRANCH  24  28
ENDBRANCH  18  19
ENDBRANCH  17  18
ENDBRANCH   1  17
TORSDOF 12
ENDMDL
MODEL 3
REMARK VINA RESULT:      -6.2      2.439      3.080
REMARK  Name = 
REMARK  14 active torsions:
REMARK  status: ('A' for Active; 'I' for Inactive)
REMARK    1  A    between atoms: C_1  and  O_2
REMARK    2  A    between atoms: O_2  and  C_3
REMARK    3  A    between atoms: C_3  and  C_4
REMARK    4  A    between atoms: C_4  and  C_5
REMARK    5  A    between atoms: C_11  and  C_12
REMARK    6  A    between atoms: C_12  and  C_13
REMARK    7  A    between atoms: C_13  and  S_14
REMARK    8  A    between atoms: S_14  and  C_15
REMARK    9  A    between atoms: C_15  and  C_16
REMARK   10  A    between atoms: C_16  and  C_17
REMARK   11  A    between atoms: C_22  and  C_24
REMARK   12  A    between atoms: C_24  and  C_25
REMARK   13  A    between atoms: C_25  and  O_26
REMARK   14  A    between atoms: O_26  and  C_27
REMARK                            x       y       z     vdW  Elec       q    Type
REMARK                         _______ _______ _______ _____ _____    ______ ____
ROOT
ATOM      1  S   UNL     1       4.070   2.909  17.874  0.00  0.00    +0.000 S 
ENDROOT
BRANCH   1   2
ATOM      2  C   UNL     1       4.530   4.086  16.541  0.00  0.00    +0.000 C 
BRANCH   2   3
ATOM      3  C   UNL     1       6.038   4.110  16.323  0.00  0.00    +0.000 C 
BRANCH   3  10
ATOM      4  C   UNL     1       8.454   8.972  18.445  0.00  0.00    +0.000 C 
ATOM      5  O   UNL     1       7.654   9.306  17.575  0.00  0.00    +0.000 OA
ATOM      6  N   UNL     1       8.576   7.714  18.995  0.00  0.00    +0.000 N 
ATOM      7  C   UNL     1       7.926   6.596  18.536  0.00  0.00    +0.000 A 
ATOM      8  N   UNL     1       7.809   5.487  19.232  0.00  0.00    +0.000 NA
ATOM      9  N   UNL     1       7.093   4.518  18.548  0.00  0.00    +0.000 NA
ATOM     10  C   UNL     1       6.747   4.926  17.343  0.00  0.00    +0.000 A 
ATOM     11  S   UNL     1       7.287   6.504  16.960  0.00  0.00    +0.000 S 
ATOM     12  H   UNL     1       9.018   7.592  19.894  0.00  0.00    +0.000 HD
BRANCH   4  13
ATOM     13  C   UNL     1       9.352  10.010  19.082  0.00  0.00    +0.000 C 
BRANCH  13  14
ATOM     14  C   UNL     1       9.061  11.415  18.585  0.00  0.00    +0.000 C 
BRANCH  14  16
ATOM     15  C   UNL     1       9.467  13.537  19.529  0.00  0.00    +0.000 C 
ATOM     16  O   UNL     1      10.045  12.315  19.088  0.00  0.00    +0.000 OA
ENDBRANCH  14  16
ENDBRANCH  13  14
ENDBRANCH   4  13
ENDBRANCH   3  10
ENDBRANCH   2   3
ENDBRANCH   1   2
BRANCH   1  17
ATOM     17  C   UNL     1       2.490   3.640  18.455  0.00  0.00    +0.000 C 
BRANCH  17  18
ATOM     18  C   UNL     1       2.597   4.093  19.906  0.00  0.00    +0.000 C 
BRANCH  18  19
ATOM     19  C   UNL     1       2.178   5.508  20.109  0.00  0.00    +0.000 A 
ATOM     20  N   UNL     1       1.523   6.002  21.139  0.00  0.00    +0.000 NA
ATOM     21  N   UNL     1       1.326   7.363  21.006  0.00  0.00    +0.000 NA
ATOM     22  C   UNL     1       1.792   7.825  19.870  0.00  0.00    +0.000 A 
ATOM     23  N   UNL     1       1.696   9.139  19.493  0.00  0.00    +0.000 N 
ATOM     24  C   UNL     1       1.924   9.629  18.226  0.00  0.00    +0.000 C 
ATOM     25  O   UNL     1       2.130   8.958  17.217  0.00  0.00    +0.000 OA
ATOM     26  S   UNL     1       2.613   6.670  18.929  0.00  0.00    +0.000 S 
ATOM     27  H   UNL     1       1.302   9.737  20.207  0.00  0.00    +0.000 HD
BRANCH  24  28
ATOM     28  C   UNL     1       1.792  11.130  18.119  0.00  0.00    +0.000 C 
BRANCH  28  29
ATOM     29  C   UNL     1       0.910  11.713  19.212  0.00  0.00    +0.000 C 
BRANCH  29  30
ATOM     30  O   UNL     1      -0.373  11.099  19.166  0.00  0.00    +0.000 OA
ATOM     31  C   UNL     1      -1.401  12.008  19.535  0.00  0.00    +0.000 C 
ENDBRANCH  29  30
ENDBRANCH  28  29
ENDBRANCH  24  28
ENDBRANCH  18  19
ENDBRANCH  17  18
ENDBRANCH   1  17
TORSDOF 12
ENDMDL
MODEL 4
REMARK VINA RESULT:      -6.0      1.911      7.815
REMARK  Name = 
REMARK  14 active torsions:
REMARK  status: ('A' for Active; 'I' for Inactive)
REMARK    1  A    between atoms: C_1  and  O_2
REMARK    2  A    between atoms: O_2  and  C_3
REMARK    3  A    between atoms: C_3  and  C_4
REMARK    4  A    between atoms: C_4  and  C_5
REMARK    5  A    between atoms: C_11  and  C_12
REMARK    6  A    between atoms: C_12  and  C_13
REMARK    7  A    between atoms: C_13  and  S_14
REMARK    8  A    between atoms: S_14  and  C_15
REMARK    9  A    between atoms: C_15  and  C_16
REMARK   10  A    between atoms: C_16  and  C_17
REMARK   11  A    between atoms: C_22  and  C_24
REMARK   12  A    between atoms: C_24  and  C_25
REMARK   13  A    between atoms: C_25  and  O_26
REMARK   14  A    between atoms: O_26  and  C_27
REMARK                            x       y       z     vdW  Elec       q    Type
REMARK                         _______ _______ _______ _____ _____    ______ ____
ROOT
ATOM      1  S   UNL     1       2.692   3.718  17.659  0.00  0.00    +0.000 S 
ENDROOT
BRANCH   1   2
ATOM      2  C   UNL     1       1.847   5.112  18.507  0.00  0.00    +0.000 C 
BRANCH   2   3
ATOM      3  C   UNL     1       2.853   6.133  19.024  0.00  0.00    +0.000 C 
BRANCH   3  10
ATOM      4  C   UNL     1       0.729  11.374  20.438  0.00  0.00    +0.000 C 
ATOM      5  O   UNL     1       1.150  10.855  21.468  0.00  0.00    +0.000 OA
ATOM      6  N   UNL     1       0.944  10.919  19.154  0.00  0.00    +0.000 N 
ATOM      7  C   UNL     1       1.530   9.718  18.841  0.00  0.00    +0.000 A 
ATOM      8  N   UNL     1       1.999   9.430  17.647  0.00  0.00    +0.000 NA
ATOM      9  N   UNL     1       2.556   8.162  17.601  0.00  0.00    +0.000 NA
ATOM     10  C   UNL     1       2.432   7.532  18.754  0.00  0.00    +0.000 A 
ATOM     11  S   UNL     1       1.616   8.434  19.956  0.00  0.00    +0.000 S 
ATOM     12  H   UNL     1       0.842  11.544  18.369  0.00  0.00    +0.000 HD
BRANCH   4  13
ATOM     13  C   UNL     1      -0.022  12.686  20.506  0.00  0.00    +0.000 C 
BRANCH  13  14
ATOM     14  C   UNL     1       0.860  13.839  20.951  0.00  0.00    +0.000 C 
BRANCH  14  16
ATOM     15  C   UNL     1      -0.385  15.107  19.404  0.00  0.00    +0.000 C 
ATOM     16  O   UNL     1       0.907  14.830  19.929  0.00  0.00    +0.000 OA
ENDBRANCH  14  16
ENDBRANCH  13  14
ENDBRANCH   4  13
ENDBRANCH   3  10
ENDBRANCH   2   3
ENDBRANCH   1   2
BRANCH   1  17
ATOM     17  C   UNL     1       4.084   4.597  16.847  0.00  0.00    +0.000 C 
BRANCH  17  18
ATOM     18  C   UNL     1       5.414   3.925  17.161  0.00  0.00    +0.000 C 
BRANCH  18  19
ATOM     19  C   UNL     1       6.369   4.821  17.872  0.00  0.00    +0.000 A 
ATOM     20  N   UNL     1       7.016   4.565  18.989  0.00  0.00    +0.000 NA
ATOM     21  N   UNL     1       7.840   5.615  19.347  0.00  0.00    +0.000 NA
ATOM     22  C   UNL     1       7.742   6.629  18.520  0.00  0.00    +0.000 A 
ATOM     23  N   UNL     1       8.440   7.798  18.673  0.00  0.00    +0.000 N 
ATOM     24  C   UNL     1       8.190   8.975  18.003  0.00  0.00    +0.000 C 
ATOM     25  O   UNL     1       7.237   9.196  17.258  0.00  0.00    +0.000 OA
ATOM     26  S   UNL     1       6.737   6.343  17.178  0.00  0.00    +0.000 S 
ATOM     27  H   UNL     1       9.098   7.778  19.441  0.00  0.00    +0.000 HD
BRANCH  24  28
ATOM     28  C   UNL     1       9.156  10.086  18.340  0.00  0.00    +0.000 C 
BRANCH  28  29
ATOM     29  C   UNL     1       9.257  10.332  19.837  0.00  0.00    +0.000 C 
BRANCH  29  30
ATOM     30  O   UNL     1      10.299  11.266  20.097  0.00  0.00    +0.000 OA
ATOM     31  C   UNL     1      10.997  11.616  18.909  0.00  0.00    +0.000 C 
ENDBRANCH  29  30
ENDBRANCH  28  29
ENDBRANCH  24  28
ENDBRANCH  18  19
ENDBRANCH  17  18
ENDBRANCH   1  17
TORSDOF 12
ENDMDL
MODEL 5
REMARK VINA RESULT:      -5.9      3.881      5.523
REMARK  Name = 
REMARK  14 active torsions:
REMARK  status: ('A' for Active; 'I' for Inactive)
REMARK    1  A    between atoms: C_1  and  O_2
REMARK    2  A    between atoms: O_2  and  C_3
REMARK    3  A    between atoms: C_3  and  C_4
REMARK    4  A    between atoms: C_4  and  C_5
REMARK    5  A    between atoms: C_11  and  C_12
REMARK    6  A    between atoms: C_12  and  C_13
REMARK    7  A    between atoms: C_13  and  S_14
REMARK    8  A    between atoms: S_14  and  C_15
REMARK    9  A    between atoms: C_15  and  C_16
REMARK   10  A    between atoms: C_16  and  C_17
REMARK   11  A    between atoms: C_22  and  C_24
REMARK   12  A    between atoms: C_24  and  C_25
REMARK   13  A    between atoms: C_25  and  O_26
REMARK   14  A    between atoms: O_26  and  C_27
REMARK                            x       y       z     vdW  Elec       q    Type
REMARK                         _______ _______ _______ _____ _____    ______ ____
ROOT
ATOM      1  S   UNL     1       1.646   7.700  19.995  0.00  0.00    +0.000 S 
ENDROOT
BRANCH   1   2
ATOM      2  C   UNL     1       2.041   6.227  21.019  0.00  0.00    +0.000 C 
BRANCH   2   3
ATOM      3  C   UNL     1       1.506   4.952  20.379  0.00  0.00    +0.000 C 
BRANCH   3  10
ATOM      4  C   UNL     1       6.261   4.391  17.054  0.00  0.00    +0.000 C 
ATOM      5  O   UNL     1       6.632   4.446  18.223  0.00  0.00    +0.000 OA
ATOM      6  N   UNL     1       4.961   4.235  16.622  0.00  0.00    +0.000 N 
ATOM      7  C   UNL     1       3.858   4.280  17.437  0.00  0.00    +0.000 A 
ATOM      8  N   UNL     1       2.673   3.837  17.079  0.00  0.00    +0.000 NA
ATOM      9  N   UNL     1       1.738   3.982  18.091  0.00  0.00    +0.000 NA
ATOM     10  C   UNL     1       2.252   4.577  19.150  0.00  0.00    +0.000 A 
ATOM     11  S   UNL     1       3.897   5.014  18.973  0.00  0.00    +0.000 S 
ATOM     12  H   UNL     1       4.772   3.891  15.692  0.00  0.00    +0.000 HD
BRANCH   4  13
ATOM     13  C   UNL     1       7.282   4.393  15.937  0.00  0.00    +0.000 C 
BRANCH  13  14
ATOM     14  C   UNL     1       6.682   4.795  14.601  0.00  0.00    +0.000 C 
BRANCH  14  16
ATOM     15  C   UNL     1       6.353   3.587  12.604  0.00  0.00    +0.000 C 
ATOM     16  O   UNL     1       6.063   3.664  13.994  0.00  0.00    +0.000 OA
ENDBRANCH  14  16
ENDBRANCH  13  14
ENDBRANCH   4  13
ENDBRANCH   3  10
ENDBRANCH   2   3
ENDBRANCH   1   2
BRANCH   1  17
ATOM     17  C   UNL     1       0.623   8.675  21.167  0.00  0.00    +0.000 C 
BRANCH  17  18
ATOM     18  C   UNL     1       0.953  10.159  21.080  0.00  0.00    +0.000 C 
BRANCH  18  19
ATOM     19  C   UNL     1      -0.188  10.986  20.598  0.00  0.00    +0.000 A 
ATOM     20  N   UNL     1      -0.602  12.134  21.091  0.00  0.00    +0.000 NA
ATOM     21  N   UNL     1      -1.673  12.634  20.379  0.00  0.00    +0.000 NA
ATOM     22  C   UNL     1      -2.053  11.825  19.417  0.00  0.00    +0.000 A 
ATOM     23  N   UNL     1      -3.110  12.085  18.585  0.00  0.00    +0.000 N 
ATOM     24  C   UNL     1      -3.711  11.175  17.745  0.00  0.00    +0.000 C 
ATOM     25  O   UNL     1      -3.477   9.969  17.696  0.00  0.00    +0.000 OA
ATOM     26  S   UNL     1      -1.064  10.455  19.225  0.00  0.00    +0.000 S 
ATOM     27  H   UNL     1      -3.523  12.997  18.729  0.00  0.00    +0.000 HD
BRANCH  24  28
ATOM     28  C   UNL     1      -4.823  11.761  16.906  0.00  0.00    +0.000 C 
BRANCH  28  29
ATOM     29  C   UNL     1      -6.161  11.750  17.629  0.00  0.00    +0.000 C 
BRANCH  29  30
ATOM     30  O   UNL     1      -5.948  11.549  19.022  0.00  0.00    +0.000 OA
ATOM     31  C   UNL     1      -6.853  10.592  19.557  0.00  0.00    +0.000 C 
ENDBRANCH  29  30
ENDBRANCH  28  29
ENDBRANCH  24  28
ENDBRANCH  18  19
ENDBRANCH  17  18
ENDBRANCH   1  17
TORSDOF 12
ENDMDL
MODEL 6
REMARK VINA RESULT:      -5.9      2.584      8.319
REMARK  Name = 
REMARK  14 active torsions:
REMARK  status: ('A' for Active; 'I' for Inactive)
REMARK    1  A    between atoms: C_1  and  O_2
REMARK    2  A    between atoms: O_2  and  C_3
REMARK    3  A    between atoms: C_3  and  C_4
REMARK    4  A    between atoms: C_4  and  C_5
REMARK    5  A    between atoms: C_11  and  C_12
REMARK    6  A    between atoms: C_12  and  C_13
REMARK    7  A    between atoms: C_13  and  S_14
REMARK    8  A    between atoms: S_14  and  C_15
REMARK    9  A    between atoms: C_15  and  C_16
REMARK   10  A    between atoms: C_16  and  C_17
REMARK   11  A    between atoms: C_22  and  C_24
REMARK   12  A    between atoms: C_24  and  C_25
REMARK   13  A    between atoms: C_25  and  O_26
REMARK   14  A    between atoms: O_26  and  C_27
REMARK                            x       y       z     vdW  Elec       q    Type
REMARK                         _______ _______ _______ _____ _____    ______ ____
ROOT
ATOM      1  S   UNL     1       2.216   3.882  21.558  0.00  0.00    +0.000 S 
ENDROOT
BRANCH   1   2
ATOM      2  C   UNL     1       1.527   5.436  20.864  0.00  0.00    +0.000 C 
BRANCH   2   3
ATOM      3  C   UNL     1       2.618   6.283  20.220  0.00  0.00    +0.000 C 
BRANCH   3  10
ATOM      4  C   UNL     1       0.232  11.593  20.529  0.00  0.00    +0.000 C 
ATOM      5  O   UNL     1       0.738  11.351  21.621  0.00  0.00    +0.000 OA
ATOM      6  N   UNL     1       0.410  10.863  19.372  0.00  0.00    +0.000 N 
ATOM      7  C   UNL     1       1.056   9.654  19.305  0.00  0.00    +0.000 A 
ATOM      8  N   UNL     1       1.481   9.121  18.182  0.00  0.00    +0.000 NA
ATOM      9  N   UNL     1       2.116   7.907  18.392  0.00  0.00    +0.000 NA
ATOM     10  C   UNL     1       2.093   7.558  19.664  0.00  0.00    +0.000 A 
ATOM     11  S   UNL     1       1.282   8.672  20.678  0.00  0.00    +0.000 S 
ATOM     12  H   UNL     1       0.227  11.283  18.473  0.00  0.00    +0.000 HD
BRANCH   4  13
ATOM     13  C   UNL     1      -0.599  12.844  20.342  0.00  0.00    +0.000 C 
BRANCH  13  14
ATOM     14  C   UNL     1      -0.803  13.194  18.879  0.00  0.00    +0.000 C 
BRANCH  14  16
ATOM     15  C   UNL     1      -0.273  15.476  19.142  0.00  0.00    +0.000 C 
ATOM     16  O   UNL     1       0.080  14.252  18.511  0.00  0.00    +0.000 OA
ENDBRANCH  14  16
ENDBRANCH  13  14
ENDBRANCH   4  13
ENDBRANCH   3  10
ENDBRANCH   2   3
ENDBRANCH   1   2
BRANCH   1  17
ATOM     17  C   UNL     1       0.958   2.665  21.005  0.00  0.00    +0.000 C 
BRANCH  17  18
ATOM     18  C   UNL     1       0.775   2.714  19.494  0.00  0.00    +0.000 C 
BRANCH  18  19
ATOM     19  C   UNL     1       2.057   2.596  18.745  0.00  0.00    +0.000 A 
ATOM     20  N   UNL     1       2.900   1.585  18.765  0.00  0.00    +0.000 NA
ATOM     21  N   UNL     1       3.974   1.806  17.926  0.00  0.00    +0.000 NA
ATOM     22  C   UNL     1       3.923   2.984  17.351  0.00  0.00    +0.000 A 
ATOM     23  N   UNL     1       4.886   3.448  16.494  0.00  0.00    +0.000 N 
ATOM     24  C   UNL     1       5.023   4.752  16.072  0.00  0.00    +0.000 C 
ATOM     25  O   UNL     1       4.386   5.718  16.486  0.00  0.00    +0.000 OA
ATOM     26  S   UNL     1       2.509   3.867  17.689  0.00  0.00    +0.000 S 
ATOM     27  H   UNL     1       5.602   2.766  16.282  0.00  0.00    +0.000 HD
BRANCH  24  28
ATOM     28  C   UNL     1       6.148   4.958  15.085  0.00  0.00    +0.000 C 
BRANCH  28  29
ATOM     29  C   UNL     1       7.481   5.210  15.770  0.00  0.00    +0.000 C 
BRANCH  29  30
ATOM     30  O   UNL     1       7.540   6.561  16.214  0.00  0.00    +0.000 OA
ATOM     31  C   UNL     1       7.617   6.643  17.631  0.00  0.00    +0.000 C 
ENDBRANCH  29  30
ENDBRANCH  28  29
ENDBRANCH  24  28
ENDBRANCH  18  19
ENDBRANCH  17  18
ENDBRANCH   1  17
TORSDOF 12
ENDMDL
MODEL 7
REMARK VINA RESULT:      -5.9      3.776      4.968
REMARK  Name = 
REMARK  14 active torsions:
REMARK  status: ('A' for Active; 'I' for Inactive)
REMARK    1  A    between atoms: C_1  and  O_2
REMARK    2  A    between atoms: O_2  and  C_3
REMARK    3  A    between atoms: C_3  and  C_4
REMARK    4  A    between atoms: C_4  and  C_5
REMARK    5  A    between atoms: C_11  and  C_12
REMARK    6  A    between atoms: C_12  and  C_13
REMARK    7  A    between atoms: C_13  and  S_14
REMARK    8  A    between atoms: S_14  and  C_15
REMARK    9  A    between atoms: C_15  and  C_16
REMARK   10  A    between atoms: C_16  and  C_17
REMARK   11  A    between atoms: C_22  and  C_24
REMARK   12  A    between atoms: C_24  and  C_25
REMARK   13  A    between atoms: C_25  and  O_26
REMARK   14  A    between atoms: O_26  and  C_27
REMARK                            x       y       z     vdW  Elec       q    Type
REMARK                         _______ _______ _______ _____ _____    ______ ____
ROOT
ATOM      1  S   UNL     1       2.164   5.707  20.505  0.00  0.00    +0.000 S 
ENDROOT
BRANCH   1   2
ATOM      2  C   UNL     1       1.308   4.136  20.921  0.00  0.00    +0.000 C 
BRANCH   2   3
ATOM      3  C   UNL     1       2.078   2.932  20.391  0.00  0.00    +0.000 C 
BRANCH   3  10
ATOM      4  C   UNL     1       5.929   4.372  16.260  0.00  0.00    +0.000 C 
ATOM      5  O   UNL     1       6.562   4.107  17.279  0.00  0.00    +0.000 OA
ATOM      6  N   UNL     1       4.588   4.133  16.052  0.00  0.00    +0.000 N 
ATOM      7  C   UNL     1       3.713   3.705  17.020  0.00  0.00    +0.000 A 
ATOM      8  N   UNL     1       2.530   3.197  16.755  0.00  0.00    +0.000 NA
ATOM      9  N   UNL     1       1.855   2.828  17.907  0.00  0.00    +0.000 NA
ATOM     10  C   UNL     1       2.543   3.125  18.993  0.00  0.00    +0.000 A 
ATOM     11  S   UNL     1       4.042   3.888  18.681  0.00  0.00    +0.000 S 
ATOM     12  H   UNL     1       4.218   4.085  15.114  0.00  0.00    +0.000 HD
BRANCH   4  13
ATOM     13  C   UNL     1       6.648   4.928  15.049  0.00  0.00    +0.000 C 
BRANCH  13  14
ATOM     14  C   UNL     1       6.636   3.966  13.874  0.00  0.00    +0.000 C 
BRANCH  14  16
ATOM     15  C   UNL     1       5.334   3.260  12.041  0.00  0.00    +0.000 C 
ATOM     16  O   UNL     1       5.336   3.935  13.292  0.00  0.00    +0.000 OA
ENDBRANCH  14  16
ENDBRANCH  13  14
ENDBRANCH   4  13
ENDBRANCH   3  10
ENDBRANCH   2   3
ENDBRANCH   1   2
BRANCH   1  17
ATOM     17  C   UNL     1       0.935   6.939  21.088  0.00  0.00    +0.000 C 
BRANCH  17  18
ATOM     18  C   UNL     1       1.496   8.352  21.012  0.00  0.00    +0.000 C 
BRANCH  18  19
ATOM     19  C   UNL     1       0.673   9.350  21.750  0.00  0.00    +0.000 A 
ATOM     20  N   UNL     1       0.571   9.486  23.055  0.00  0.00    +0.000 NA
ATOM     21  N   UNL     1      -0.263  10.535  23.390  0.00  0.00    +0.000 NA
ATOM     22  C   UNL     1      -0.789  11.110  22.334  0.00  0.00    +0.000 A 
ATOM     23  N   UNL     1      -1.668  12.159  22.405  0.00  0.00    +0.000 N 
ATOM     24  C   UNL     1      -2.444  12.625  21.367  0.00  0.00    +0.000 C 
ATOM     25  O   UNL     1      -2.560  12.106  20.259  0.00  0.00    +0.000 OA
ATOM     26  S   UNL     1      -0.220  10.502  20.851  0.00  0.00    +0.000 S 
ATOM     27  H   UNL     1      -1.814  12.501  23.345  0.00  0.00    +0.000 HD
BRANCH  24  28
ATOM     28  C   UNL     1      -3.283  13.829  21.726  0.00  0.00    +0.000 C 
BRANCH  28  29
ATOM     29  C   UNL     1      -3.867  13.732  23.126  0.00  0.00    +0.000 C 
BRANCH  29  30
ATOM     30  O   UNL     1      -4.319  12.403  23.362  0.00  0.00    +0.000 OA
ATOM     31  C   UNL     1      -4.823  12.248  24.682  0.00  0.00    +0.000 C 
ENDBRANCH  29  30
ENDBRANCH  28  29
ENDBRANCH  24  28
ENDBRANCH  18  19
ENDBRANCH  17  18
ENDBRANCH   1  17
TORSDOF 12
ENDMDL
MODEL 8
REMARK VINA RESULT:      -5.8      1.783      1.926
REMARK  Name = 
REMARK  14 active torsions:
REMARK  status: ('A' for Active; 'I' for Inactive)
REMARK    1  A    between atoms: C_1  and  O_2
REMARK    2  A    between atoms: O_2  and  C_3
REMARK    3  A    between atoms: C_3  and  C_4
REMARK    4  A    between atoms: C_4  and  C_5
REMARK    5  A    between atoms: C_11  and  C_12
REMARK    6  A    between atoms: C_12  and  C_13
REMARK    7  A    between atoms: C_13  and  S_14
REMARK    8  A    between atoms: S_14  and  C_15
REMARK    9  A    between atoms: C_15  and  C_16
REMARK   10  A    between atoms: C_16  and  C_17
REMARK   11  A    between atoms: C_22  and  C_24
REMARK   12  A    between atoms: C_24  and  C_25
REMARK   13  A    between atoms: C_25  and  O_26
REMARK   14  A    between atoms: O_26  and  C_27
REMARK                            x       y       z     vdW  Elec       q    Type
REMARK                         _______ _______ _______ _____ _____    ______ ____
ROOT
ATOM      1  S   UNL     1       3.518   5.106  19.062  0.00  0.00    +0.000 S 
ENDROOT
BRANCH   1   2
ATOM      2  C   UNL     1       3.841   4.657  17.311  0.00  0.00    +0.000 C 
BRANCH   2   3
ATOM      3  C   UNL     1       5.269   4.159  17.124  0.00  0.00    +0.000 C 
BRANCH   3  10
ATOM      4  C   UNL     1       8.308   9.018  18.195  0.00  0.00    +0.000 C 
ATOM      5  O   UNL     1       7.299   9.342  17.574  0.00  0.00    +0.000 OA
ATOM      6  N   UNL     1       8.554   7.782  18.754  0.00  0.00    +0.000 N 
ATOM      7  C   UNL     1       7.773   6.669  18.562  0.00  0.00    +0.000 A 
ATOM      8  N   UNL     1       7.837   5.599  19.322  0.00  0.00    +0.000 NA
ATOM      9  N   UNL     1       6.931   4.628  18.927  0.00  0.00    +0.000 NA
ATOM     10  C   UNL     1       6.261   4.994  17.851  0.00  0.00    +0.000 A 
ATOM     11  S   UNL     1       6.705   6.531  17.243  0.00  0.00    +0.000 S 
ATOM     12  H   UNL     1       9.234   7.684  19.494  0.00  0.00    +0.000 HD
BRANCH   4  13
ATOM     13  C   UNL     1       9.376  10.048  18.489  0.00  0.00    +0.000 C 
BRANCH  13  14
ATOM     14  C   UNL     1       9.363  10.501  19.939  0.00  0.00    +0.000 C 
BRANCH  14  16
ATOM     15  C   UNL     1       9.658  12.377  21.335  0.00  0.00    +0.000 C 
ATOM     16  O   UNL     1       9.491  11.919  19.999  0.00  0.00    +0.000 OA
ENDBRANCH  14  16
ENDBRANCH  13  14
ENDBRANCH   4  13
ENDBRANCH   3  10
ENDBRANCH   2   3
ENDBRANCH   1   2
BRANCH   1  17
ATOM     17  C   UNL     1       2.720   6.746  18.860  0.00  0.00    +0.000 C 
BRANCH  17  18
ATOM     18  C   UNL     1       2.116   7.228  20.173  0.00  0.00    +0.000 C 
BRANCH  18  19
ATOM     19  C   UNL     1       1.384   8.518  20.042  0.00  0.00    +0.000 A 
ATOM     20  N   UNL     1       1.300   9.280  18.971  0.00  0.00    +0.000 NA
ATOM     21  N   UNL     1       0.515  10.392  19.202  0.00  0.00    +0.000 NA
ATOM     22  C   UNL     1       0.083  10.449  20.440  0.00  0.00    +0.000 A 
ATOM     23  N   UNL     1      -0.694  11.469  20.923  0.00  0.00    +0.000 N 
ATOM     24  C   UNL     1      -0.955  11.718  22.252  0.00  0.00    +0.000 C 
ATOM     25  O   UNL     1      -0.442  11.145  23.211  0.00  0.00    +0.000 OA
ATOM     26  S   UNL     1       0.495   9.097  21.387  0.00  0.00    +0.000 S 
ATOM     27  H   UNL     1      -0.971  12.136  20.215  0.00  0.00    +0.000 HD
BRANCH  24  28
ATOM     28  C   UNL     1      -1.889  12.883  22.482  0.00  0.00    +0.000 C 
BRANCH  28  29
ATOM     29  C   UNL     1      -1.432  13.773  23.626  0.00  0.00    +0.000 C 
BRANCH  29  30
ATOM     30  O   UNL     1      -1.991  15.073  23.470  0.00  0.00    +0.000 OA
ATOM     31  C   UNL     1      -2.452  15.288  22.143  0.00  0.00    +0.000 C 
ENDBRANCH  29  30
ENDBRANCH  28  29
ENDBRANCH  24  28
ENDBRANCH  18  19
ENDBRANCH  17  18
ENDBRANCH   1  17
TORSDOF 12
ENDMDL
MODEL 9
REMARK VINA RESULT:      -5.8      1.833      8.077
REMARK  Name = 
REMARK  14 active torsions:
REMARK  status: ('A' for Active; 'I' for Inactive)
REMARK    1  A    between atoms: C_1  and  O_2
REMARK    2  A    between atoms: O_2  and  C_3
REMARK    3  A    between atoms: C_3  and  C_4
REMARK    4  A    between atoms: C_4  and  C_5
REMARK    5  A    between atoms: C_11  and  C_12
REMARK    6  A    between atoms: C_12  and  C_13
REMARK    7  A    between atoms: C_13  and  S_14
REMARK    8  A    between atoms: S_14  and  C_15
REMARK    9  A    between atoms: C_15  and  C_16
REMARK   10  A    between atoms: C_16  and  C_17
REMARK   11  A    between atoms: C_22  and  C_24
REMARK   12  A    between atoms: C_24  and  C_25
REMARK   13  A    between atoms: C_25  and  O_26
REMARK   14  A    between atoms: O_26  and  C_27
REMARK                            x       y       z     vdW  Elec       q    Type
REMARK                         _______ _______ _______ _____ _____    ______ ____
ROOT
ATOM      1  S   UNL     1       1.875   4.018  19.499  0.00  0.00    +0.000 S 
ENDROOT
BRANCH   1   2
ATOM      2  C   UNL     1       1.902   5.507  20.573  0.00  0.00    +0.000 C 
BRANCH   2   3
ATOM      3  C   UNL     1       2.241   6.758  19.772  0.00  0.00    +0.000 C 
BRANCH   3  10
ATOM      4  C   UNL     1      -0.271  12.012  19.523  0.00  0.00    +0.000 C 
ATOM      5  O   UNL     1      -0.445  11.467  18.436  0.00  0.00    +0.000 OA
ATOM      6  N   UNL     1       0.203  11.407  20.668  0.00  0.00    +0.000 N 
ATOM      7  C   UNL     1       0.708  10.132  20.723  0.00  0.00    +0.000 A 
ATOM      8  N   UNL     1       0.871   9.465  21.844  0.00  0.00    +0.000 NA
ATOM      9  N   UNL     1       1.380   8.195  21.622  0.00  0.00    +0.000 NA
ATOM     10  C   UNL     1       1.625   7.984  20.343  0.00  0.00    +0.000 A 
ATOM     11  S   UNL     1       1.272   9.321  19.336  0.00  0.00    +0.000 S 
ATOM     12  H   UNL     1       0.026  11.819  21.572  0.00  0.00    +0.000 HD
BRANCH   4  13
ATOM     13  C   UNL     1      -0.682  13.455  19.718  0.00  0.00    +0.000 C 
BRANCH  13  14
ATOM     14  C   UNL     1      -0.163  14.362  18.616  0.00  0.00    +0.000 C 
BRANCH  14  16
ATOM     15  C   UNL     1       0.962  16.135  19.685  0.00  0.00    +0.000 C 
ATOM     16  O   UNL     1      -0.234  15.721  19.039  0.00  0.00    +0.000 OA
ENDBRANCH  14  16
ENDBRANCH  13  14
ENDBRANCH   4  13
ENDBRANCH   3  10
ENDBRANCH   2   3
ENDBRANCH   1   2
BRANCH   1  17
ATOM     17  C   UNL     1       3.553   3.338  19.804  0.00  0.00    +0.000 C 
BRANCH  17  18
ATOM     18  C   UNL     1       4.262   3.022  18.493  0.00  0.00    +0.000 C 
BRANCH  18  19
ATOM     19  C   UNL     1       4.745   4.237  17.781  0.00  0.00    +0.000 A 
ATOM     20  N   UNL     1       4.396   4.645  16.579  0.00  0.00    +0.000 NA
ATOM     21  N   UNL     1       5.021   5.830  16.245  0.00  0.00    +0.000 NA
ATOM     22  C   UNL     1       5.847   6.237  17.180  0.00  0.00    +0.000 A 
ATOM     23  N   UNL     1       6.605   7.374  17.075  0.00  0.00    +0.000 N 
ATOM     24  C   UNL     1       7.664   7.710  17.889  0.00  0.00    +0.000 C 
ATOM     25  O   UNL     1       8.169   6.995  18.753  0.00  0.00    +0.000 OA
ATOM     26  S   UNL     1       5.838   5.281  18.587  0.00  0.00    +0.000 S 
ATOM     27  H   UNL     1       6.411   7.914  16.242  0.00  0.00    +0.000 HD
BRANCH  24  28
ATOM     28  C   UNL     1       8.279   9.051  17.567  0.00  0.00    +0.000 C 
BRANCH  28  29
ATOM     29  C   UNL     1       8.935   9.694  18.779  0.00  0.00    +0.000 C 
BRANCH  29  30
ATOM     30  O   UNL     1       9.053  11.097  18.568  0.00  0.00    +0.000 OA
ATOM     31  C   UNL     1      10.296  11.433  17.966  0.00  0.00    +0.000 C 
ENDBRANCH  29  30
ENDBRANCH  28  29
ENDBRANCH  24  28
ENDBRANCH  18  19
ENDBRANCH  17  18
ENDBRANCH   1  17
TORSDOF 12
ENDMDL
