MODEL 1
REMARK VINA RESULT:      -8.0      0.000      0.000
REMARK  Name = 
REMARK  1 active torsions:
REMARK  status: ('A' for Active; 'I' for Inactive)
REMARK    1  A    between atoms: C_27  and  O_28
REMARK                            x       y       z     vdW  Elec       q    Type
REMARK                         _______ _______ _______ _____ _____    ______ ____
ROOT
ATOM      1  O   UNL     1      -6.588  11.505  17.825  0.00  0.00    +0.000 OA
ATOM      2  C   UNL     1      -5.369  11.457  17.941  0.00  0.00    +0.000 C 
ATOM      3  N   UNL     1      -4.542  11.085  16.891  0.00  0.00    +0.000 N 
ATOM      4  C   UNL     1      -3.187  11.244  17.087  0.00  0.00    +0.000 C 
ATOM      5  O   UNL     1      -2.358  11.123  16.191  0.00  0.00    +0.000 OA
ATOM      6  C   UNL     1      -3.124  11.668  18.440  0.00  0.00    +0.000 A 
ATOM      7  C   UNL     1      -4.405  11.839  18.942  0.00  0.00    +0.000 A 
ATOM      8  C   UNL     1      -4.490  12.381  20.262  0.00  0.00    +0.000 A 
ATOM      9  C   UNL     1      -5.616  12.491  21.081  0.00  0.00    +0.000 A 
ATOM     10  C   UNL     1      -6.958  12.103  20.945  0.00  0.00    +0.000 A 
ATOM     11  C   UNL     1      -7.872  12.233  21.997  0.00  0.00    +0.000 A 
ATOM     12  C   UNL     1      -7.456  12.751  23.208  0.00  0.00    +0.000 A 
ATOM     13  C   UNL     1      -6.139  13.175  23.396  0.00  0.00    +0.000 A 
ATOM     14  C   UNL     1      -5.203  13.066  22.342  0.00  0.00    +0.000 A 
ATOM     15  N   UNL     1      -3.805  13.412  22.358  0.00  0.00    +0.000 N 
ATOM     16  C   UNL     1      -3.479  12.957  21.072  0.00  0.00    +0.000 A 
ATOM     17  C   UNL     1      -2.255  13.028  20.376  0.00  0.00    +0.000 A 
ATOM     18  C   UNL     1      -2.131  12.189  19.273  0.00  0.00    +0.000 A 
ATOM     19  C   UNL     1      -0.744  12.364  19.015  0.00  0.00    +0.000 A 
ATOM     20  C   UNL     1       0.342  11.557  18.630  0.00  0.00    +0.000 A 
ATOM     21  C   UNL     1       1.605  12.153  18.494  0.00  0.00    +0.000 A 
ATOM     22  C   UNL     1       1.745  13.538  18.551  0.00  0.00    +0.000 A 
ATOM     23  C   UNL     1       0.726  14.335  19.069  0.00  0.00    +0.000 A 
ATOM     24  C   UNL     1      -0.388  13.650  19.552  0.00  0.00    +0.000 A 
ATOM     25  N   UNL     1      -1.239  13.914  20.602  0.00  0.00    +0.000 N 
ATOM     26  C   UNL     1      -1.171  14.777  21.721  0.00  0.00    +0.000 C 
ATOM     27  C   UNL     1      -0.526  14.571  23.071  0.00  0.00    +0.000 C 
ATOM     28  C   UNL     1      -1.727  14.387  24.081  0.00  0.00    +0.000 C 
ATOM     29  C   UNL     1      -3.099  13.617  23.655  0.00  0.00    +0.000 C 
ATOM     30  H   UNL     1      -4.921  10.899  15.975  0.00  0.00    +0.000 HD
ENDROOT
BRANCH  27  31
ATOM     31  O   UNL     1       0.231  15.722  23.463  0.00  0.00    +0.000 OA
ATOM     32  H   UNL     1       1.179  15.496  23.484  0.00  0.00    +0.000 HD
ENDBRANCH  27  31
TORSDOF 1
ENDMDL
MODEL 2
REMARK VINA RESULT:      -7.9      1.439      4.847
REMARK  Name = 
REMARK  1 active torsions:
REMARK  status: ('A' for Active; 'I' for Inactive)
REMARK    1  A    between atoms: C_27  and  O_28
REMARK                            x       y       z     vdW  Elec       q    Type
REMARK                         _______ _______ _______ _____ _____    ______ ____
ROOT
ATOM      1  O   UNL     1      -3.609  13.873  24.861  0.00  0.00    +0.000 OA
ATOM      2  C   UNL     1      -2.849  14.086  23.924  0.00  0.00    +0.000 C 
ATOM      3  N   UNL     1      -1.592  14.643  24.106  0.00  0.00    +0.000 N 
ATOM      4  C   UNL     1      -0.762  14.666  23.004  0.00  0.00    +0.000 C 
ATOM      5  O   UNL     1       0.426  14.965  23.063  0.00  0.00    +0.000 OA
ATOM      6  C   UNL     1      -1.605  14.163  21.979  0.00  0.00    +0.000 A 
ATOM      7  C   UNL     1      -2.824  13.778  22.515  0.00  0.00    +0.000 A 
ATOM      8  C   UNL     1      -3.728  13.140  21.612  0.00  0.00    +0.000 A 
ATOM      9  C   UNL     1      -5.071  12.815  21.817  0.00  0.00    +0.000 A 
ATOM     10  C   UNL     1      -5.969  13.017  22.878  0.00  0.00    +0.000 A 
ATOM     11  C   UNL     1      -7.323  12.686  22.768  0.00  0.00    +0.000 A 
ATOM     12  C   UNL     1      -7.807  12.150  21.590  0.00  0.00    +0.000 A 
ATOM     13  C   UNL     1      -6.958  11.906  20.508  0.00  0.00    +0.000 A 
ATOM     14  C   UNL     1      -5.584  12.219  20.603  0.00  0.00    +0.000 A 
ATOM     15  N   UNL     1      -4.570  12.076  19.590  0.00  0.00    +0.000 N 
ATOM     16  C   UNL     1      -3.507  12.660  20.295  0.00  0.00    +0.000 A 
ATOM     17  C   UNL     1      -2.155  12.812  19.924  0.00  0.00    +0.000 A 
ATOM     18  C   UNL     1      -1.420  13.734  20.663  0.00  0.00    +0.000 A 
ATOM     19  C   UNL     1      -0.247  13.776  19.861  0.00  0.00    +0.000 A 
ATOM     20  C   UNL     1       0.659  14.754  19.412  0.00  0.00    +0.000 A 
ATOM     21  C   UNL     1       1.723  14.355  18.589  0.00  0.00    +0.000 A 
ATOM     22  C   UNL     1       1.987  13.004  18.378  0.00  0.00    +0.000 A 
ATOM     23  C   UNL     1       1.032  12.036  18.685  0.00  0.00    +0.000 A 
ATOM     24  C   UNL     1      -0.185  12.521  19.163  0.00  0.00    +0.000 A 
ATOM     25  N   UNL     1      -1.475  12.067  19.004  0.00  0.00    +0.000 N 
ATOM     26  C   UNL     1      -2.084  11.147  18.117  0.00  0.00    +0.000 C 
ATOM     27  C   UNL     1      -2.613  11.350  16.717  0.00  0.00    +0.000 C 
ATOM     28  C   UNL     1      -4.186  11.292  16.856  0.00  0.00    +0.000 C 
ATOM     29  C   UNL     1      -4.958  11.886  18.163  0.00  0.00    +0.000 C 
ATOM     30  H   UNL     1      -1.240  14.836  25.031  0.00  0.00    +0.000 HD
ENDROOT
BRANCH  27  31
ATOM     31  O   UNL     1      -2.190  10.295  15.846  0.00  0.00    +0.000 OA
ATOM     32  H   UNL     1      -2.573   9.451  16.148  0.00  0.00    +0.000 HD
ENDBRANCH  27  31
TORSDOF 1
ENDMDL
MODEL 3
REMARK VINA RESULT:      -7.7      1.715      5.439
REMARK  Name = 
REMARK  1 active torsions:
REMARK  status: ('A' for Active; 'I' for Inactive)
REMARK    1  A    between atoms: C_27  and  O_28
REMARK                            x       y       z     vdW  Elec       q    Type
REMARK                         _______ _______ _______ _____ _____    ______ ____
ROOT
ATOM      1  O   UNL     1      -3.491  10.016  16.560  0.00  0.00    +0.000 OA
ATOM      2  C   UNL     1      -4.078  10.931  17.126  0.00  0.00    +0.000 C 
ATOM      3  N   UNL     1      -5.340  11.352  16.734  0.00  0.00    +0.000 N 
ATOM      4  C   UNL     1      -5.971  12.261  17.557  0.00  0.00    +0.000 C 
ATOM      5  O   UNL     1      -7.147  12.583  17.428  0.00  0.00    +0.000 OA
ATOM      6  C   UNL     1      -4.973  12.533  18.529  0.00  0.00    +0.000 A 
ATOM      7  C   UNL     1      -3.868  11.724  18.312  0.00  0.00    +0.000 A 
ATOM      8  C   UNL     1      -2.832  11.807  19.292  0.00  0.00    +0.000 A 
ATOM      9  C   UNL     1      -1.549  11.259  19.244  0.00  0.00    +0.000 A 
ATOM     10  C   UNL     1      -0.842  10.524  18.279  0.00  0.00    +0.000 A 
ATOM     11  C   UNL     1       0.508  10.195  18.447  0.00  0.00    +0.000 A 
ATOM     12  C   UNL     1       1.177  10.599  19.586  0.00  0.00    +0.000 A 
ATOM     13  C   UNL     1       0.521  11.314  20.592  0.00  0.00    +0.000 A 
ATOM     14  C   UNL     1      -0.846  11.645  20.448  0.00  0.00    +0.000 A 
ATOM     15  N   UNL     1      -1.675  12.401  21.350  0.00  0.00    +0.000 N 
ATOM     16  C   UNL     1      -2.834  12.442  20.561  0.00  0.00    +0.000 A 
ATOM     17  C   UNL     1      -4.100  12.990  20.849  0.00  0.00    +0.000 A 
ATOM     18  C   UNL     1      -4.938  13.198  19.757  0.00  0.00    +0.000 A 
ATOM     19  C   UNL     1      -5.957  13.953  20.399  0.00  0.00    +0.000 A 
ATOM     20  C   UNL     1      -6.760  15.067  20.094  0.00  0.00    +0.000 A 
ATOM     21  C   UNL     1      -7.674  15.519  21.058  0.00  0.00    +0.000 A 
ATOM     22  C   UNL     1      -7.917  14.772  22.209  0.00  0.00    +0.000 A 
ATOM     23  C   UNL     1      -7.042  13.759  22.597  0.00  0.00    +0.000 A 
ATOM     24  C   UNL     1      -5.917  13.592  21.790  0.00  0.00    +0.000 A 
ATOM     25  N   UNL     1      -4.625  13.221  22.089  0.00  0.00    +0.000 N 
ATOM     26  C   UNL     1      -3.887  13.137  23.293  0.00  0.00    +0.000 C 
ATOM     27  C   UNL     1      -3.125  14.204  24.044  0.00  0.00    +0.000 C 
ATOM     28  C   UNL     1      -1.599  13.856  23.823  0.00  0.00    +0.000 C 
ATOM     29  C   UNL     1      -1.053  13.234  22.419  0.00  0.00    +0.000 C 
ATOM     30  H   UNL     1      -5.841  10.873  16.002  0.00  0.00    +0.000 HD
ENDROOT
BRANCH  27  31
ATOM     31  O   UNL     1      -3.409  14.151  25.447  0.00  0.00    +0.000 OA
ATOM     32  H   UNL     1      -4.371  14.229  25.587  0.00  0.00    +0.000 HD
ENDBRANCH  27  31
TORSDOF 1
ENDMDL
MODEL 4
REMARK VINA RESULT:      -7.7      2.123      5.142
REMARK  Name = 
REMARK  1 active torsions:
REMARK  status: ('A' for Active; 'I' for Inactive)
REMARK    1  A    between atoms: C_27  and  O_28
REMARK                            x       y       z     vdW  Elec       q    Type
REMARK                         _______ _______ _______ _____ _____    ______ ____
ROOT
ATOM      1  O   UNL     1      -4.078  12.510  23.605  0.00  0.00    +0.000 OA
ATOM      2  C   UNL     1      -3.135  12.456  22.824  0.00  0.00    +0.000 C 
ATOM      3  N   UNL     1      -1.820  12.399  23.259  0.00  0.00    +0.000 N 
ATOM      4  C   UNL     1      -0.862  12.158  22.297  0.00  0.00    +0.000 C 
ATOM      5  O   UNL     1       0.310  11.910  22.560  0.00  0.00    +0.000 OA
ATOM      6  C   UNL     1      -1.626  12.159  21.101  0.00  0.00    +0.000 A 
ATOM      7  C   UNL     1      -2.973  12.292  21.401  0.00  0.00    +0.000 A 
ATOM      8  C   UNL     1      -3.871  12.187  20.295  0.00  0.00    +0.000 A 
ATOM      9  C   UNL     1      -5.241  12.456  20.264  0.00  0.00    +0.000 A 
ATOM     10  C   UNL     1      -6.160  12.930  21.214  0.00  0.00    +0.000 A 
ATOM     11  C   UNL     1      -7.484  13.227  20.873  0.00  0.00    +0.000 A 
ATOM     12  C   UNL     1      -7.913  13.057  19.571  0.00  0.00    +0.000 A 
ATOM     13  C   UNL     1      -7.051  12.567  18.586  0.00  0.00    +0.000 A 
ATOM     14  C   UNL     1      -5.714  12.247  18.913  0.00  0.00    +0.000 A 
ATOM     15  N   UNL     1      -4.676  11.771  18.035  0.00  0.00    +0.000 N 
ATOM     16  C   UNL     1      -3.622  11.775  18.960  0.00  0.00    +0.000 A 
ATOM     17  C   UNL     1      -2.283  11.362  18.802  0.00  0.00    +0.000 A 
ATOM     18  C   UNL     1      -1.389  11.809  19.770  0.00  0.00    +0.000 A 
ATOM     19  C   UNL     1      -0.173  11.412  19.149  0.00  0.00    +0.000 A 
ATOM     20  C   UNL     1       1.121  11.939  18.987  0.00  0.00    +0.000 A 
ATOM     21  C   UNL     1       2.062  11.195  18.261  0.00  0.00    +0.000 A 
ATOM     22  C   UNL     1       1.784   9.885  17.874  0.00  0.00    +0.000 A 
ATOM     23  C   UNL     1       0.478   9.401  17.893  0.00  0.00    +0.000 A 
ATOM     24  C   UNL     1      -0.500  10.318  18.275  0.00  0.00    +0.000 A 
ATOM     25  N   UNL     1      -1.808  10.480  17.874  0.00  0.00    +0.000 N 
ATOM     26  C   UNL     1      -2.561   9.994  16.779  0.00  0.00    +0.000 C 
ATOM     27  C   UNL     1      -2.686  10.527  15.371  0.00  0.00    +0.000 C 
ATOM     28  C   UNL     1      -4.140  11.140  15.287  0.00  0.00    +0.000 C 
ATOM     29  C   UNL     1      -4.832  11.891  16.557  0.00  0.00    +0.000 C 
ATOM     30  H   UNL     1      -1.601  12.340  24.242  0.00  0.00    +0.000 HD
ENDROOT
BRANCH  27  31
ATOM     31  O   UNL     1      -2.576   9.472  14.408  0.00  0.00    +0.000 OA
ATOM     32  H   UNL     1      -3.466   9.153  14.173  0.00  0.00    +0.000 HD
ENDBRANCH  27  31
TORSDOF 1
ENDMDL
MODEL 5
REMARK VINA RESULT:      -7.7      9.935     12.160
REMARK  Name = 
REMARK  1 active torsions:
REMARK  status: ('A' for Active; 'I' for Inactive)
REMARK    1  A    between atoms: C_27  and  O_28
REMARK                            x       y       z     vdW  Elec       q    Type
REMARK                         _______ _______ _______ _____ _____    ______ ____
ROOT
ATOM      1  O   UNL     1       5.207  13.250  23.592  0.00  0.00    +0.000 OA
ATOM      2  C   UNL     1       6.320  13.043  23.123  0.00  0.00    +0.000 C 
ATOM      3  N   UNL     1       7.001  11.853  23.336  0.00  0.00    +0.000 N 
ATOM      4  C   UNL     1       8.159  11.667  22.611  0.00  0.00    +0.000 C 
ATOM      5  O   UNL     1       8.762  10.600  22.568  0.00  0.00    +0.000 OA
ATOM      6  C   UNL     1       8.295  12.907  21.934  0.00  0.00    +0.000 A 
ATOM      7  C   UNL     1       7.196  13.711  22.194  0.00  0.00    +0.000 A 
ATOM      8  C   UNL     1       7.144  14.946  21.477  0.00  0.00    +0.000 A 
ATOM      9  C   UNL     1       6.271  16.019  21.665  0.00  0.00    +0.000 A 
ATOM     10  C   UNL     1       5.237  16.283  22.577  0.00  0.00    +0.000 A 
ATOM     11  C   UNL     1       4.586  17.521  22.615  0.00  0.00    +0.000 A 
ATOM     12  C   UNL     1       4.962  18.522  21.740  0.00  0.00    +0.000 A 
ATOM     13  C   UNL     1       5.970  18.312  20.795  0.00  0.00    +0.000 A 
ATOM     14  C   UNL     1       6.630  17.064  20.731  0.00  0.00    +0.000 A 
ATOM     15  N   UNL     1       7.707  16.675  19.858  0.00  0.00    +0.000 N 
ATOM     16  C   UNL     1       7.939  15.399  20.393  0.00  0.00    +0.000 A 
ATOM     17  C   UNL     1       8.844  14.400  19.979  0.00  0.00    +0.000 A 
ATOM     18  C   UNL     1       9.103  13.392  20.902  0.00  0.00    +0.000 A 
ATOM     19  C   UNL     1      10.192  12.760  20.242  0.00  0.00    +0.000 A 
ATOM     20  C   UNL     1      11.421  12.182  20.605  0.00  0.00    +0.000 A 
ATOM     21  C   UNL     1      12.241  11.659  19.594  0.00  0.00    +0.000 A 
ATOM     22  C   UNL     1      11.768  11.541  18.289  0.00  0.00    +0.000 A 
ATOM     23  C   UNL     1      10.628  12.230  17.881  0.00  0.00    +0.000 A 
ATOM     24  C   UNL     1      10.046  13.055  18.842  0.00  0.00    +0.000 A 
ATOM     25  N   UNL     1       9.391  14.262  18.735  0.00  0.00    +0.000 N 
ATOM     26  C   UNL     1       9.294  15.232  17.711  0.00  0.00    +0.000 C 
ATOM     27  C   UNL     1      10.217  16.377  17.363  0.00  0.00    +0.000 C 
ATOM     28  C   UNL     1       9.443  17.682  17.806  0.00  0.00    +0.000 C 
ATOM     29  C   UNL     1       8.493  17.713  19.130  0.00  0.00    +0.000 C 
ATOM     30  H   UNL     1       6.570  11.093  23.839  0.00  0.00    +0.000 HD
ENDROOT
BRANCH  27  31
ATOM     31  O   UNL     1      10.454  16.440  15.952  0.00  0.00    +0.000 OA
ATOM     32  H   UNL     1       9.988  17.211  15.579  0.00  0.00    +0.000 HD
ENDBRANCH  27  31
TORSDOF 1
ENDMDL
MODEL 6
REMARK VINA RESULT:      -7.6      3.244      5.867
REMARK  Name = 
REMARK  1 active torsions:
REMARK  status: ('A' for Active; 'I' for Inactive)
REMARK    1  A    between atoms: C_27  and  O_28
REMARK                            x       y       z     vdW  Elec       q    Type
REMARK                         _______ _______ _______ _____ _____    ______ ____
ROOT
ATOM      1  O   UNL     1      -4.802  15.940  22.103  0.00  0.00    +0.000 OA
ATOM      2  C   UNL     1      -4.049  15.001  22.331  0.00  0.00    +0.000 C 
ATOM      3  N   UNL     1      -4.388  13.978  23.203  0.00  0.00    +0.000 N 
ATOM      4  C   UNL     1      -3.540  12.890  23.237  0.00  0.00    +0.000 C 
ATOM      5  O   UNL     1      -3.807  11.847  23.825  0.00  0.00    +0.000 OA
ATOM      6  C   UNL     1      -2.491  13.297  22.373  0.00  0.00    +0.000 A 
ATOM      7  C   UNL     1      -2.798  14.520  21.798  0.00  0.00    +0.000 A 
ATOM      8  C   UNL     1      -1.880  14.993  20.810  0.00  0.00    +0.000 A 
ATOM      9  C   UNL     1      -1.832  16.251  20.205  0.00  0.00    +0.000 A 
ATOM     10  C   UNL     1      -2.573  17.433  20.361  0.00  0.00    +0.000 A 
ATOM     11  C   UNL     1      -2.226  18.612  19.693  0.00  0.00    +0.000 A 
ATOM     12  C   UNL     1      -1.126  18.631  18.858  0.00  0.00    +0.000 A 
ATOM     13  C   UNL     1      -0.362  17.480  18.646  0.00  0.00    +0.000 A 
ATOM     14  C   UNL     1      -0.704  16.275  19.300  0.00  0.00    +0.000 A 
ATOM     15  N   UNL     1      -0.022  15.008  19.237  0.00  0.00    +0.000 N 
ATOM     16  C   UNL     1      -0.803  14.320  20.178  0.00  0.00    +0.000 A 
ATOM     17  C   UNL     1      -0.738  12.974  20.591  0.00  0.00    +0.000 A 
ATOM     18  C   UNL     1      -1.393  12.668  21.779  0.00  0.00    +0.000 A 
ATOM     19  C   UNL     1      -0.904  11.347  21.969  0.00  0.00    +0.000 A 
ATOM     20  C   UNL     1      -0.468  10.555  23.047  0.00  0.00    +0.000 A 
ATOM     21  C   UNL     1      -0.036   9.246  22.785  0.00  0.00    +0.000 A 
ATOM     22  C   UNL     1      -0.214   8.680  21.525  0.00  0.00    +0.000 A 
ATOM     23  C   UNL     1      -0.504   9.479  20.421  0.00  0.00    +0.000 A 
ATOM     24  C   UNL     1      -0.553  10.851  20.666  0.00  0.00    +0.000 A 
ATOM     25  N   UNL     1      -0.204  11.931  19.888  0.00  0.00    +0.000 N 
ATOM     26  C   UNL     1       0.562  12.077  18.707  0.00  0.00    +0.000 C 
ATOM     27  C   UNL     1       2.055  12.217  18.526  0.00  0.00    +0.000 C 
ATOM     28  C   UNL     1       2.283  13.724  18.108  0.00  0.00    +0.000 C 
ATOM     29  C   UNL     1       1.371  14.932  18.711  0.00  0.00    +0.000 C 
ATOM     30  H   UNL     1      -5.298  13.946  23.634  0.00  0.00    +0.000 HD
ENDROOT
BRANCH  27  31
ATOM     31  O   UNL     1       2.530  11.371  17.473  0.00  0.00    +0.000 OA
ATOM     32  H   UNL     1       1.795  10.822  17.141  0.00  0.00    +0.000 HD
ENDBRANCH  27  31
TORSDOF 1
ENDMDL
MODEL 7
REMARK VINA RESULT:      -7.6      1.219      5.562
REMARK  Name = 
REMARK  1 active torsions:
REMARK  status: ('A' for Active; 'I' for Inactive)
REMARK    1  A    between atoms: C_27  and  O_28
REMARK                            x       y       z     vdW  Elec       q    Type
REMARK                         _______ _______ _______ _____ _____    ______ ____
ROOT
ATOM      1  O   UNL     1      -1.827  10.275  16.981  0.00  0.00    +0.000 OA
ATOM      2  C   UNL     1      -2.741  10.887  17.519  0.00  0.00    +0.000 C 
ATOM      3  N   UNL     1      -4.064  10.723  17.138  0.00  0.00    +0.000 N 
ATOM      4  C   UNL     1      -5.015  11.326  17.934  0.00  0.00    +0.000 C 
ATOM      5  O   UNL     1      -6.219  11.120  17.819  0.00  0.00    +0.000 OA
ATOM      6  C   UNL     1      -4.220  12.037  18.870  0.00  0.00    +0.000 A 
ATOM      7  C   UNL     1      -2.879  11.754  18.663  0.00  0.00    +0.000 A 
ATOM      8  C   UNL     1      -1.971  12.312  19.614  0.00  0.00    +0.000 A 
ATOM      9  C   UNL     1      -0.576  12.348  19.560  0.00  0.00    +0.000 A 
ATOM     10  C   UNL     1       0.372  11.929  18.613  0.00  0.00    +0.000 A 
ATOM     11  C   UNL     1       1.735  12.202  18.765  0.00  0.00    +0.000 A 
ATOM     12  C   UNL     1       2.177  12.906  19.869  0.00  0.00    +0.000 A 
ATOM     13  C   UNL     1       1.284  13.330  20.856  0.00  0.00    +0.000 A 
ATOM     14  C   UNL     1      -0.095  13.052  20.730  0.00  0.00    +0.000 A 
ATOM     15  N   UNL     1      -1.162  13.437  21.617  0.00  0.00    +0.000 N 
ATOM     16  C   UNL     1      -2.234  12.951  20.853  0.00  0.00    +0.000 A 
ATOM     17  C   UNL     1      -3.613  12.933  21.146  0.00  0.00    +0.000 A 
ATOM     18  C   UNL     1      -4.463  12.717  20.066  0.00  0.00    +0.000 A 
ATOM     19  C   UNL     1      -5.703  13.009  20.697  0.00  0.00    +0.000 A 
ATOM     20  C   UNL     1      -6.900  13.668  20.362  0.00  0.00    +0.000 A 
ATOM     21  C   UNL     1      -7.916  13.745  21.325  0.00  0.00    +0.000 A 
ATOM     22  C   UNL     1      -7.821  13.023  22.514  0.00  0.00    +0.000 A 
ATOM     23  C   UNL     1      -6.602  12.489  22.926  0.00  0.00    +0.000 A 
ATOM     24  C   UNL     1      -5.512  12.768  22.101  0.00  0.00    +0.000 A 
ATOM     25  N   UNL     1      -4.183  12.986  22.386  0.00  0.00    +0.000 N 
ATOM     26  C   UNL     1      -3.475  13.278  23.576  0.00  0.00    +0.000 C 
ATOM     27  C   UNL     1      -3.227  14.602  24.261  0.00  0.00    +0.000 C 
ATOM     28  C   UNL     1      -1.696  14.913  24.020  0.00  0.00    +0.000 C 
ATOM     29  C   UNL     1      -0.943  14.506  22.633  0.00  0.00    +0.000 C 
ATOM     30  H   UNL     1      -4.321  10.043  16.439  0.00  0.00    +0.000 HD
ENDROOT
BRANCH  27  31
ATOM     31  O   UNL     1      -3.460  14.506  25.670  0.00  0.00    +0.000 OA
ATOM     32  H   UNL     1      -3.222  13.612  25.979  0.00  0.00    +0.000 HD
ENDBRANCH  27  31
TORSDOF 1
ENDMDL
MODEL 8
REMARK VINA RESULT:      -7.6      2.424      6.105
REMARK  Name = 
REMARK  1 active torsions:
REMARK  status: ('A' for Active; 'I' for Inactive)
REMARK    1  A    between atoms: C_27  and  O_28
REMARK                            x       y       z     vdW  Elec       q    Type
REMARK                         _______ _______ _______ _____ _____    ______ ____
ROOT
ATOM      1  O   UNL     1       0.589  10.596  18.549  0.00  0.00    +0.000 OA
ATOM      2  C   UNL     1      -0.097  10.919  19.511  0.00  0.00    +0.000 C 
ATOM      3  N   UNL     1       0.444  11.095  20.777  0.00  0.00    +0.000 N 
ATOM      4  C   UNL     1      -0.391  11.631  21.735  0.00  0.00    +0.000 C 
ATOM      5  O   UNL     1       0.000  12.002  22.837  0.00  0.00    +0.000 OA
ATOM      6  C   UNL     1      -1.628  11.718  21.045  0.00  0.00    +0.000 A 
ATOM      7  C   UNL     1      -1.459  11.341  19.722  0.00  0.00    +0.000 A 
ATOM      8  C   UNL     1      -2.603  11.496  18.879  0.00  0.00    +0.000 A 
ATOM      9  C   UNL     1      -2.783  11.038  17.572  0.00  0.00    +0.000 A 
ATOM     10  C   UNL     1      -1.995  10.281  16.690  0.00  0.00    +0.000 A 
ATOM     11  C   UNL     1      -2.482   9.855  15.450  0.00  0.00    +0.000 A 
ATOM     12  C   UNL     1      -3.771  10.176  15.070  0.00  0.00    +0.000 A 
ATOM     13  C   UNL     1      -4.595  10.945  15.895  0.00  0.00    +0.000 A 
ATOM     14  C   UNL     1      -4.118  11.398  17.146  0.00  0.00    +0.000 A 
ATOM     15  N   UNL     1      -4.825  12.162  18.141  0.00  0.00    +0.000 N 
ATOM     16  C   UNL     1      -3.832  12.158  19.131  0.00  0.00    +0.000 A 
ATOM     17  C   UNL     1      -3.817  12.784  20.395  0.00  0.00    +0.000 A 
ATOM     18  C   UNL     1      -2.865  12.318  21.295  0.00  0.00    +0.000 A 
ATOM     19  C   UNL     1      -3.317  12.987  22.464  0.00  0.00    +0.000 A 
ATOM     20  C   UNL     1      -3.458  12.691  23.833  0.00  0.00    +0.000 A 
ATOM     21  C   UNL     1      -3.982  13.676  24.682  0.00  0.00    +0.000 A 
ATOM     22  C   UNL     1      -4.178  14.977  24.222  0.00  0.00    +0.000 A 
ATOM     23  C   UNL     1      -4.186  15.254  22.856  0.00  0.00    +0.000 A 
ATOM     24  C   UNL     1      -4.032  14.152  22.016  0.00  0.00    +0.000 A 
ATOM     25  N   UNL     1      -4.555  13.869  20.774  0.00  0.00    +0.000 N 
ATOM     26  C   UNL     1      -5.615  14.416  20.014  0.00  0.00    +0.000 C 
ATOM     27  C   UNL     1      -7.095  14.114  20.050  0.00  0.00    +0.000 C 
ATOM     28  C   UNL     1      -7.388  13.317  18.718  0.00  0.00    +0.000 C 
ATOM     29  C   UNL     1      -6.311  12.269  18.086  0.00  0.00    +0.000 C 
ATOM     30  H   UNL     1       1.437  11.020  20.930  0.00  0.00    +0.000 HD
ENDROOT
BRANCH  27  31
ATOM     31  O   UNL     1      -7.869  15.319  20.044  0.00  0.00    +0.000 OA
ATOM     32  H   UNL     1      -7.410  15.997  19.513  0.00  0.00    +0.000 HD
ENDBRANCH  27  31
TORSDOF 1
ENDMDL
MODEL 9
REMARK VINA RESULT:      -7.5      1.904      5.284
REMARK  Name = 
REMARK  1 active torsions:
REMARK  status: ('A' for Active; 'I' for Inactive)
REMARK    1  A    between atoms: C_27  and  O_28
REMARK                            x       y       z     vdW  Elec       q    Type
REMARK                         _______ _______ _______ _____ _____    ______ ____
ROOT
ATOM      1  O   UNL     1      -7.107  10.601  19.558  0.00  0.00    +0.000 OA
ATOM      2  C   UNL     1      -6.736  11.555  20.232  0.00  0.00    +0.000 C 
ATOM      3  N   UNL     1      -7.527  12.105  21.230  0.00  0.00    +0.000 N 
ATOM      4  C   UNL     1      -6.932  13.053  22.036  0.00  0.00    +0.000 C 
ATOM      5  O   UNL     1      -7.452  13.490  23.057  0.00  0.00    +0.000 OA
ATOM      6  C   UNL     1      -5.656  13.205  21.434  0.00  0.00    +0.000 A 
ATOM      7  C   UNL     1      -5.512  12.298  20.395  0.00  0.00    +0.000 A 
ATOM      8  C   UNL     1      -4.224  12.259  19.777  0.00  0.00    +0.000 A 
ATOM      9  C   UNL     1      -3.845  11.591  18.611  0.00  0.00    +0.000 A 
ATOM     10  C   UNL     1      -4.535  10.812  17.668  0.00  0.00    +0.000 A 
ATOM     11  C   UNL     1      -3.917  10.350  16.501  0.00  0.00    +0.000 A 
ATOM     12  C   UNL     1      -2.594  10.663  16.254  0.00  0.00    +0.000 A 
ATOM     13  C   UNL     1      -1.849  11.416  17.165  0.00  0.00    +0.000 A 
ATOM     14  C   UNL     1      -2.450  11.880  18.357  0.00  0.00    +0.000 A 
ATOM     15  N   UNL     1      -1.860  12.693  19.389  0.00  0.00    +0.000 N 
ATOM     16  C   UNL     1      -3.005  12.863  20.180  0.00  0.00    +0.000 A 
ATOM     17  C   UNL     1      -3.156  13.525  21.416  0.00  0.00    +0.000 A 
ATOM     18  C   UNL     1      -4.460  13.836  21.786  0.00  0.00    +0.000 A 
ATOM     19  C   UNL     1      -4.182  14.673  22.901  0.00  0.00    +0.000 A 
ATOM     20  C   UNL     1      -4.690  15.866  23.447  0.00  0.00    +0.000 A 
ATOM     21  C   UNL     1      -4.089  16.382  24.605  0.00  0.00    +0.000 A 
ATOM     22  C   UNL     1      -3.143  15.637  25.305  0.00  0.00    +0.000 A 
ATOM     23  C   UNL     1      -2.526  14.536  24.714  0.00  0.00    +0.000 A 
ATOM     24  C   UNL     1      -2.889  14.279  23.393  0.00  0.00    +0.000 A 
ATOM     25  N   UNL     1      -2.172  13.778  22.329  0.00  0.00    +0.000 N 
ATOM     26  C   UNL     1      -0.791  13.597  22.081  0.00  0.00    +0.000 C 
ATOM     27  C   UNL     1       0.239  14.568  21.554  0.00  0.00    +0.000 C 
ATOM     28  C   UNL     1       0.555  14.079  20.084  0.00  0.00    +0.000 C 
ATOM     29  C   UNL     1      -0.596  13.438  19.124  0.00  0.00    +0.000 C 
ATOM     30  H   UNL     1      -8.414  11.694  21.472  0.00  0.00    +0.000 HD
ENDROOT
BRANCH  27  31
ATOM     31  O   UNL     1       1.445  14.512  22.325  0.00  0.00    +0.000 OA
ATOM     32  H   UNL     1       2.117  15.090  21.919  0.00  0.00    +0.000 HD
ENDBRANCH  27  31
TORSDOF 1
ENDMDL
