MODEL 1
REMARK VINA RESULT:      -8.4      0.000      0.000
REMARK  Name = 
REMARK  5 active torsions:
REMARK  status: ('A' for Active; 'I' for Inactive)
REMARK    1  A    between atoms: C_1  and  C_2
REMARK    2  A    between atoms: C_2  and  C_3
REMARK    3  A    between atoms: C_2  and  C_4
REMARK    4  A    between atoms: C_7  and  C_8
REMARK    5  A    between atoms: C_8  and  N_9
REMARK                            x       y       z     vdW  Elec       q    Type
REMARK                         _______ _______ _______ _____ _____    ______ ____
ROOT
ATOM      1  N   UNL     1       4.684   5.982  18.088  0.00  0.00    +0.000 N 
ATOM      2  C   UNL     1       3.317   6.307  18.466  0.00  0.00    +0.000 C 
ATOM      3  C   UNL     1       2.289   5.300  17.963  0.00  0.00    +0.000 C 
ATOM      4  C   UNL     1       2.555   3.825  18.320  0.00  0.00    +0.000 C 
ATOM      5  C   UNL     1       2.517   3.530  19.826  0.00  0.00    +0.000 C 
ATOM      6  C   UNL     1       1.080   3.144  20.069  0.00  0.00    +0.000 C 
ATOM      7  C   UNL     1       0.757   2.393  18.802  0.00  0.00    +0.000 C 
ATOM      8  O   UNL     1       1.446   3.082  17.750  0.00  0.00    +0.000 OA
ATOM      9  C   UNL     1       3.834   3.312  17.638  0.00  0.00    +0.000 C 
ATOM     10  C   UNL     1       5.145   3.609  18.359  0.00  0.00    +0.000 C 
ATOM     11  C   UNL     1       5.373   5.035  18.808  0.00  0.00    +0.000 C 
ATOM     12  O   UNL     1       6.250   5.329  19.615  0.00  0.00    +0.000 OA
ENDROOT
BRANCH   1  13
ATOM     13  C   UNL     1       5.464   6.949  17.323  0.00  0.00    +0.000 C 
BRANCH  13  17
ATOM     14  C   UNL     1       6.462   4.864  14.632  0.00  0.00    +0.000 A 
ATOM     15  N   UNL     1       7.676   5.167  15.110  0.00  0.00    +0.000 NA
ATOM     16  O   UNL     1       7.395   6.062  16.145  0.00  0.00    +0.000 OA
ATOM     17  C   UNL     1       6.037   6.214  16.166  0.00  0.00    +0.000 A 
ATOM     18  N   UNL     1       5.420   5.522  15.235  0.00  0.00    +0.000 NA
BRANCH  14  20
ATOM     19  C   UNL     1       4.757   3.750  13.202  0.00  0.00    +0.000 C 
ATOM     20  C   UNL     1       6.239   3.830  13.580  0.00  0.00    +0.000 C 
ATOM     21  C   UNL     1       7.095   4.103  12.344  0.00  0.00    +0.000 C 
ENDBRANCH  14  20
ENDBRANCH  13  17
ENDBRANCH   1  13
TORSDOF 3
ENDMDL
MODEL 2
REMARK VINA RESULT:      -8.0      0.985      1.229
REMARK  Name = 
REMARK  5 active torsions:
REMARK  status: ('A' for Active; 'I' for Inactive)
REMARK    1  A    between atoms: C_1  and  C_2
REMARK    2  A    between atoms: C_2  and  C_3
REMARK    3  A    between atoms: C_2  and  C_4
REMARK    4  A    between atoms: C_7  and  C_8
REMARK    5  A    between atoms: C_8  and  N_9
REMARK                            x       y       z     vdW  Elec       q    Type
REMARK                         _______ _______ _______ _____ _____    ______ ____
ROOT
ATOM      1  N   UNL     1       4.865   5.787  18.099  0.00  0.00    +0.000 N 
ATOM      2  C   UNL     1       3.530   6.310  18.345  0.00  0.00    +0.000 C 
ATOM      3  C   UNL     1       2.416   5.340  17.967  0.00  0.00    +0.000 C 
ATOM      4  C   UNL     1       2.508   3.930  18.582  0.00  0.00    +0.000 C 
ATOM      5  C   UNL     1       2.387   3.907  20.112  0.00  0.00    +0.000 C 
ATOM      6  C   UNL     1       0.909   3.716  20.342  0.00  0.00    +0.000 C 
ATOM      7  C   UNL     1       0.550   2.794  19.204  0.00  0.00    +0.000 C 
ATOM      8  O   UNL     1       1.344   3.215  18.089  0.00  0.00    +0.000 OA
ATOM      9  C   UNL     1       3.745   3.180  18.063  0.00  0.00    +0.000 C 
ATOM     10  C   UNL     1       5.056   3.463  18.791  0.00  0.00    +0.000 C 
ATOM     11  C   UNL     1       5.423   4.915  19.003  0.00  0.00    +0.000 C 
ATOM     12  O   UNL     1       6.299   5.254  19.794  0.00  0.00    +0.000 OA
ENDROOT
BRANCH   1  13
ATOM     13  C   UNL     1       5.771   6.522  17.223  0.00  0.00    +0.000 C 
BRANCH  13  17
ATOM     14  C   UNL     1       6.734   4.784  14.283  0.00  0.00    +0.000 A 
ATOM     15  N   UNL     1       5.465   4.363  14.358  0.00  0.00    +0.000 NA
ATOM     16  O   UNL     1       5.008   4.938  15.546  0.00  0.00    +0.000 OA
ATOM     17  C   UNL     1       6.062   5.634  16.068  0.00  0.00    +0.000 A 
ATOM     18  N   UNL     1       7.155   5.545  15.345  0.00  0.00    +0.000 NA
BRANCH  14  20
ATOM     19  C   UNL     1       6.839   3.771  12.013  0.00  0.00    +0.000 C 
ATOM     20  C   UNL     1       7.608   4.523  13.103  0.00  0.00    +0.000 C 
ATOM     21  C   UNL     1       8.195   5.820  12.550  0.00  0.00    +0.000 C 
ENDBRANCH  14  20
ENDBRANCH  13  17
ENDBRANCH   1  13
TORSDOF 3
ENDMDL
MODEL 3
REMARK VINA RESULT:      -7.4      1.552      2.139
REMARK  Name = 
REMARK  5 active torsions:
REMARK  status: ('A' for Active; 'I' for Inactive)
REMARK    1  A    between atoms: C_1  and  C_2
REMARK    2  A    between atoms: C_2  and  C_3
REMARK    3  A    between atoms: C_2  and  C_4
REMARK    4  A    between atoms: C_7  and  C_8
REMARK    5  A    between atoms: C_8  and  N_9
REMARK                            x       y       z     vdW  Elec       q    Type
REMARK                         _______ _______ _______ _____ _____    ______ ____
ROOT
ATOM      1  N   UNL     1       5.193   4.492  17.748  0.00  0.00    +0.000 N 
ATOM      2  C   UNL     1       4.535   3.197  17.655  0.00  0.00    +0.000 C 
ATOM      3  C   UNL     1       3.916   2.733  18.968  0.00  0.00    +0.000 C 
ATOM      4  C   UNL     1       2.951   3.722  19.649  0.00  0.00    +0.000 C 
ATOM      5  C   UNL     1       1.684   4.019  18.836  0.00  0.00    +0.000 C 
ATOM      6  C   UNL     1       0.699   2.991  19.337  0.00  0.00    +0.000 C 
ATOM      7  C   UNL     1       1.067   2.918  20.797  0.00  0.00    +0.000 C 
ATOM      8  O   UNL     1       2.493   3.051  20.852  0.00  0.00    +0.000 OA
ATOM      9  C   UNL     1       3.689   4.993  20.101  0.00  0.00    +0.000 C 
ATOM     10  C   UNL     1       3.874   6.074  19.040  0.00  0.00    +0.000 C 
ATOM     11  C   UNL     1       4.434   5.636  17.705  0.00  0.00    +0.000 C 
ATOM     12  O   UNL     1       4.376   6.354  16.711  0.00  0.00    +0.000 OA
ENDROOT
BRANCH   1  13
ATOM     13  C   UNL     1       6.604   4.604  17.393  0.00  0.00    +0.000 C 
BRANCH  13  17
ATOM     14  C   UNL     1       6.792   4.374  13.858  0.00  0.00    +0.000 A 
ATOM     15  N   UNL     1       7.544   5.470  14.028  0.00  0.00    +0.000 NA
ATOM     16  O   UNL     1       7.470   5.697  15.403  0.00  0.00    +0.000 OA
ATOM     17  C   UNL     1       6.665   4.717  15.914  0.00  0.00    +0.000 A 
ATOM     18  N   UNL     1       6.198   3.897  14.999  0.00  0.00    +0.000 NA
BRANCH  14  20
ATOM     19  C   UNL     1       5.202   3.355  12.237  0.00  0.00    +0.000 C 
ATOM     20  C   UNL     1       6.669   3.668  12.550  0.00  0.00    +0.000 C 
ATOM     21  C   UNL     1       7.299   4.480  11.420  0.00  0.00    +0.000 C 
ENDBRANCH  14  20
ENDBRANCH  13  17
ENDBRANCH   1  13
TORSDOF 3
ENDMDL
MODEL 4
REMARK VINA RESULT:      -7.3      1.558      2.238
REMARK  Name = 
REMARK  5 active torsions:
REMARK  status: ('A' for Active; 'I' for Inactive)
REMARK    1  A    between atoms: C_1  and  C_2
REMARK    2  A    between atoms: C_2  and  C_3
REMARK    3  A    between atoms: C_2  and  C_4
REMARK    4  A    between atoms: C_7  and  C_8
REMARK    5  A    between atoms: C_8  and  N_9
REMARK                            x       y       z     vdW  Elec       q    Type
REMARK                         _______ _______ _______ _____ _____    ______ ____
ROOT
ATOM      1  N   UNL     1       5.799   4.531  17.086  0.00  0.00    +0.000 N 
ATOM      2  C   UNL     1       4.687   3.851  16.439  0.00  0.00    +0.000 C 
ATOM      3  C   UNL     1       3.977   2.849  17.341  0.00  0.00    +0.000 C 
ATOM      4  C   UNL     1       3.494   3.386  18.703  0.00  0.00    +0.000 C 
ATOM      5  C   UNL     1       2.418   4.475  18.598  0.00  0.00    +0.000 C 
ATOM      6  C   UNL     1       1.127   3.696  18.650  0.00  0.00    +0.000 C 
ATOM      7  C   UNL     1       1.482   2.601  19.625  0.00  0.00    +0.000 C 
ATOM      8  O   UNL     1       2.848   2.262  19.356  0.00  0.00    +0.000 OA
ATOM      9  C   UNL     1       4.682   3.795  19.588  0.00  0.00    +0.000 C 
ATOM     10  C   UNL     1       5.240   5.196  19.358  0.00  0.00    +0.000 C 
ATOM     11  C   UNL     1       5.544   5.586  17.928  0.00  0.00    +0.000 C 
ATOM     12  O   UNL     1       5.739   6.754  17.602  0.00  0.00    +0.000 OA
ENDROOT
BRANCH   1  13
ATOM     13  C   UNL     1       7.131   4.444  16.497  0.00  0.00    +0.000 C 
BRANCH  13  17
ATOM     14  C   UNL     1       6.707   4.214  12.982  0.00  0.00    +0.000 A 
ATOM     15  N   UNL     1       7.574   5.234  13.013  0.00  0.00    +0.000 NA
ATOM     16  O   UNL     1       7.752   5.461  14.379  0.00  0.00    +0.000 OA
ATOM     17  C   UNL     1       6.955   4.558  15.026  0.00  0.00    +0.000 A 
ATOM     18  N   UNL     1       6.268   3.790  14.211  0.00  0.00    +0.000 NA
BRANCH  14  20
ATOM     19  C   UNL     1       7.152   2.276  11.486  0.00  0.00    +0.000 C 
ATOM     20  C   UNL     1       6.303   3.529  11.721  0.00  0.00    +0.000 C 
ATOM     21  C   UNL     1       4.816   3.177  11.732  0.00  0.00    +0.000 C 
ENDBRANCH  14  20
ENDBRANCH  13  17
ENDBRANCH   1  13
TORSDOF 3
ENDMDL
MODEL 5
REMARK VINA RESULT:      -7.3      1.517      2.063
REMARK  Name = 
REMARK  5 active torsions:
REMARK  status: ('A' for Active; 'I' for Inactive)
REMARK    1  A    between atoms: C_1  and  C_2
REMARK    2  A    between atoms: C_2  and  C_3
REMARK    3  A    between atoms: C_2  and  C_4
REMARK    4  A    between atoms: C_7  and  C_8
REMARK    5  A    between atoms: C_8  and  N_9
REMARK                            x       y       z     vdW  Elec       q    Type
REMARK                         _______ _______ _______ _____ _____    ______ ____
ROOT
ATOM      1  N   UNL     1       4.313   6.160  17.704  0.00  0.00    +0.000 N 
ATOM      2  C   UNL     1       4.163   4.828  17.137  0.00  0.00    +0.000 C 
ATOM      3  C   UNL     1       3.961   3.739  18.184  0.00  0.00    +0.000 C 
ATOM      4  C   UNL     1       2.819   3.971  19.192  0.00  0.00    +0.000 C 
ATOM      5  C   UNL     1       1.422   4.006  18.557  0.00  0.00    +0.000 C 
ATOM      6  C   UNL     1       0.965   2.571  18.642  0.00  0.00    +0.000 C 
ATOM      7  C   UNL     1       1.552   2.153  19.967  0.00  0.00    +0.000 C 
ATOM      8  O   UNL     1       2.823   2.807  20.059  0.00  0.00    +0.000 OA
ATOM      9  C   UNL     1       3.106   5.191  20.082  0.00  0.00    +0.000 C 
ATOM     10  C   UNL     1       2.724   6.550  19.503  0.00  0.00    +0.000 C 
ATOM     11  C   UNL     1       3.194   6.853  18.098  0.00  0.00    +0.000 C 
ATOM     12  O   UNL     1       2.729   7.783  17.444  0.00  0.00    +0.000 OA
ENDROOT
BRANCH   1  13
ATOM     13  C   UNL     1       5.516   6.931  17.410  0.00  0.00    +0.000 C 
BRANCH  13  17
ATOM     14  C   UNL     1       6.963   4.910  14.878  0.00  0.00    +0.000 A 
ATOM     15  N   UNL     1       7.744   4.539  15.902  0.00  0.00    +0.000 NA
ATOM     16  O   UNL     1       7.301   5.348  16.950  0.00  0.00    +0.000 OA
ATOM     17  C   UNL     1       6.307   6.134  16.437  0.00  0.00    +0.000 A 
ATOM     18  N   UNL     1       6.083   5.924  15.160  0.00  0.00    +0.000 NA
BRANCH  14  20
ATOM     19  C   UNL     1       5.569   3.799  13.142  0.00  0.00    +0.000 C 
ATOM     20  C   UNL     1       6.982   4.226  13.553  0.00  0.00    +0.000 C 
ATOM     21  C   UNL     1       7.610   5.113  12.480  0.00  0.00    +0.000 C 
ENDBRANCH  14  20
ENDBRANCH  13  17
ENDBRANCH   1  13
TORSDOF 3
ENDMDL
MODEL 6
REMARK VINA RESULT:      -7.2      1.925      5.982
REMARK  Name = 
REMARK  5 active torsions:
REMARK  status: ('A' for Active; 'I' for Inactive)
REMARK    1  A    between atoms: C_1  and  C_2
REMARK    2  A    between atoms: C_2  and  C_3
REMARK    3  A    between atoms: C_2  and  C_4
REMARK    4  A    between atoms: C_7  and  C_8
REMARK    5  A    between atoms: C_8  and  N_9
REMARK                            x       y       z     vdW  Elec       q    Type
REMARK                         _______ _______ _______ _____ _____    ______ ____
ROOT
ATOM      1  N   UNL     1       6.581   5.537  17.608  0.00  0.00    +0.000 N 
ATOM      2  C   UNL     1       7.468   4.548  17.016  0.00  0.00    +0.000 C 
ATOM      3  C   UNL     1       6.814   3.726  15.911  0.00  0.00    +0.000 C 
ATOM      4  C   UNL     1       6.150   4.526  14.774  0.00  0.00    +0.000 C 
ATOM      5  C   UNL     1       7.130   5.369  13.948  0.00  0.00    +0.000 C 
ATOM      6  C   UNL     1       7.524   4.443  12.824  0.00  0.00    +0.000 C 
ATOM      7  C   UNL     1       6.227   3.716  12.572  0.00  0.00    +0.000 C 
ATOM      8  O   UNL     1       5.622   3.531  13.857  0.00  0.00    +0.000 OA
ATOM      9  C   UNL     1       4.950   5.333  15.295  0.00  0.00    +0.000 C 
ATOM     10  C   UNL     1       5.272   6.691  15.914  0.00  0.00    +0.000 C 
ATOM     11  C   UNL     1       6.369   6.727  16.954  0.00  0.00    +0.000 C 
ATOM     12  O   UNL     1       6.885   7.781  17.315  0.00  0.00    +0.000 OA
ENDROOT
BRANCH   1  13
ATOM     13  C   UNL     1       6.326   5.502  19.044  0.00  0.00    +0.000 C 
BRANCH  13  17
ATOM     14  C   UNL     1       3.304   3.805  19.801  0.00  0.00    +0.000 A 
ATOM     15  N   UNL     1       4.147   2.770  19.911  0.00  0.00    +0.000 NA
ATOM     16  O   UNL     1       5.378   3.323  19.550  0.00  0.00    +0.000 OA
ATOM     17  C   UNL     1       5.138   4.634  19.246  0.00  0.00    +0.000 A 
ATOM     18  N   UNL     1       3.873   4.971  19.354  0.00  0.00    +0.000 NA
BRANCH  14  20
ATOM     19  C   UNL     1       1.040   3.008  19.144  0.00  0.00    +0.000 C 
ATOM     20  C   UNL     1       1.871   3.732  20.208  0.00  0.00    +0.000 C 
ATOM     21  C   UNL     1       1.715   3.051  21.567  0.00  0.00    +0.000 C 
ENDBRANCH  14  20
ENDBRANCH  13  17
ENDBRANCH   1  13
TORSDOF 3
ENDMDL
MODEL 7
REMARK VINA RESULT:      -7.0      1.390      1.527
REMARK  Name = 
REMARK  5 active torsions:
REMARK  status: ('A' for Active; 'I' for Inactive)
REMARK    1  A    between atoms: C_1  and  C_2
REMARK    2  A    between atoms: C_2  and  C_3
REMARK    3  A    between atoms: C_2  and  C_4
REMARK    4  A    between atoms: C_7  and  C_8
REMARK    5  A    between atoms: C_8  and  N_9
REMARK                            x       y       z     vdW  Elec       q    Type
REMARK                         _______ _______ _______ _____ _____    ______ ____
ROOT
ATOM      1  N   UNL     1       5.869   4.692  17.747  0.00  0.00    +0.000 N 
ATOM      2  C   UNL     1       4.653   5.192  17.125  0.00  0.00    +0.000 C 
ATOM      3  C   UNL     1       3.555   4.143  17.002  0.00  0.00    +0.000 C 
ATOM      4  C   UNL     1       3.171   3.409  18.302  0.00  0.00    +0.000 C 
ATOM      5  C   UNL     1       2.564   4.319  19.377  0.00  0.00    +0.000 C 
ATOM      6  C   UNL     1       1.082   4.239  19.106  0.00  0.00    +0.000 C 
ATOM      7  C   UNL     1       0.936   2.798  18.686  0.00  0.00    +0.000 C 
ATOM      8  O   UNL     1       2.113   2.487  17.929  0.00  0.00    +0.000 OA
ATOM      9  C   UNL     1       4.340   2.557  18.822  0.00  0.00    +0.000 C 
ATOM     10  C   UNL     1       5.377   3.288  19.671  0.00  0.00    +0.000 C 
ATOM     11  C   UNL     1       5.928   4.582  19.116  0.00  0.00    +0.000 C 
ATOM     12  O   UNL     1       6.553   5.375  19.816  0.00  0.00    +0.000 OA
ENDROOT
BRANCH   1  13
ATOM     13  C   UNL     1       7.133   4.781  17.022  0.00  0.00    +0.000 C 
BRANCH  13  17
ATOM     14  C   UNL     1       6.434   3.985  13.636  0.00  0.00    +0.000 A 
ATOM     15  N   UNL     1       7.112   5.124  13.438  0.00  0.00    +0.000 NA
ATOM     16  O   UNL     1       7.372   5.569  14.736  0.00  0.00    +0.000 OA
ATOM     17  C   UNL     1       6.806   4.653  15.579  0.00  0.00    +0.000 A 
ATOM     18  N   UNL     1       6.190   3.677  14.950  0.00  0.00    +0.000 NA
BRANCH  14  20
ATOM     19  C   UNL     1       4.733   3.535  11.876  0.00  0.00    +0.000 C 
ATOM     20  C   UNL     1       6.041   3.071  12.525  0.00  0.00    +0.000 C 
ATOM     21  C   UNL     1       7.149   2.960  11.479  0.00  0.00    +0.000 C 
ENDBRANCH  14  20
ENDBRANCH  13  17
ENDBRANCH   1  13
TORSDOF 3
ENDMDL
MODEL 8
REMARK VINA RESULT:      -7.0      1.946      5.658
REMARK  Name = 
REMARK  5 active torsions:
REMARK  status: ('A' for Active; 'I' for Inactive)
REMARK    1  A    between atoms: C_1  and  C_2
REMARK    2  A    between atoms: C_2  and  C_3
REMARK    3  A    between atoms: C_2  and  C_4
REMARK    4  A    between atoms: C_7  and  C_8
REMARK    5  A    between atoms: C_8  and  N_9
REMARK                            x       y       z     vdW  Elec       q    Type
REMARK                         _______ _______ _______ _____ _____    ______ ____
ROOT
ATOM      1  N   UNL     1       6.787   5.563  17.661  0.00  0.00    +0.000 N 
ATOM      2  C   UNL     1       7.622   4.555  17.025  0.00  0.00    +0.000 C 
ATOM      3  C   UNL     1       6.884   3.724  15.982  0.00  0.00    +0.000 C 
ATOM      4  C   UNL     1       6.150   4.513  14.881  0.00  0.00    +0.000 C 
ATOM      5  C   UNL     1       7.079   5.333  13.975  0.00  0.00    +0.000 C 
ATOM      6  C   UNL     1       7.384   4.386  12.842  0.00  0.00    +0.000 C 
ATOM      7  C   UNL     1       6.066   3.670  12.692  0.00  0.00    +0.000 C 
ATOM      8  O   UNL     1       5.550   3.511  14.019  0.00  0.00    +0.000 OA
ATOM      9  C   UNL     1       4.997   5.342  15.471  0.00  0.00    +0.000 C 
ATOM     10  C   UNL     1       5.375   6.705  16.044  0.00  0.00    +0.000 C 
ATOM     11  C   UNL     1       6.543   6.745  17.005  0.00  0.00    +0.000 C 
ATOM     12  O   UNL     1       7.094   7.799  17.312  0.00  0.00    +0.000 OA
ENDROOT
BRANCH   1  13
ATOM     13  C   UNL     1       6.633   5.553  19.112  0.00  0.00    +0.000 C 
BRANCH  13  17
ATOM     14  C   UNL     1       3.658   3.646  19.429  0.00  0.00    +0.000 A 
ATOM     15  N   UNL     1       3.132   4.867  19.594  0.00  0.00    +0.000 NA
ATOM     16  O   UNL     1       4.251   5.703  19.563  0.00  0.00    +0.000 OA
ATOM     17  C   UNL     1       5.336   4.888  19.399  0.00  0.00    +0.000 A 
ATOM     18  N   UNL     1       5.027   3.613  19.342  0.00  0.00    +0.000 NA
BRANCH  14  20
ATOM     19  C   UNL     1       1.593   2.476  20.174  0.00  0.00    +0.000 C 
ATOM     20  C   UNL     1       2.827   2.419  19.269  0.00  0.00    +0.000 C 
ATOM     21  C   UNL     1       2.416   2.214  17.812  0.00  0.00    +0.000 C 
ENDBRANCH  14  20
ENDBRANCH  13  17
ENDBRANCH   1  13
TORSDOF 3
ENDMDL
MODEL 9
REMARK VINA RESULT:      -6.9      2.191      6.174
REMARK  Name = 
REMARK  5 active torsions:
REMARK  status: ('A' for Active; 'I' for Inactive)
REMARK    1  A    between atoms: C_1  and  C_2
REMARK    2  A    between atoms: C_2  and  C_3
REMARK    3  A    between atoms: C_2  and  C_4
REMARK    4  A    between atoms: C_7  and  C_8
REMARK    5  A    between atoms: C_8  and  N_9
REMARK                            x       y       z     vdW  Elec       q    Type
REMARK                         _______ _______ _______ _____ _____    ______ ____
ROOT
ATOM      1  N   UNL     1       4.749   4.444  16.280  0.00  0.00    +0.000 N 
ATOM      2  C   UNL     1       4.459   5.669  17.011  0.00  0.00    +0.000 C 
ATOM      3  C   UNL     1       5.436   5.947  18.147  0.00  0.00    +0.000 C 
ATOM      4  C   UNL     1       6.930   5.946  17.772  0.00  0.00    +0.000 C 
ATOM      5  C   UNL     1       7.328   7.055  16.789  0.00  0.00    +0.000 C 
ATOM      6  C   UNL     1       7.739   8.191  17.692  0.00  0.00    +0.000 C 
ATOM      7  C   UNL     1       8.403   7.444  18.821  0.00  0.00    +0.000 C 
ATOM      8  O   UNL     1       7.640   6.244  19.003  0.00  0.00    +0.000 OA
ATOM      9  C   UNL     1       7.387   4.549  17.321  0.00  0.00    +0.000 C 
ATOM     10  C   UNL     1       7.131   4.199  15.858  0.00  0.00    +0.000 C 
ATOM     11  C   UNL     1       5.738   4.449  15.326  0.00  0.00    +0.000 C 
ATOM     12  O   UNL     1       5.495   4.458  14.122  0.00  0.00    +0.000 OA
ENDROOT
BRANCH   1  13
ATOM     13  C   UNL     1       3.727   3.407  16.188  0.00  0.00    +0.000 C 
BRANCH  13  17
ATOM     14  C   UNL     1       2.386   3.268  19.470  0.00  0.00    +0.000 A 
ATOM     15  N   UNL     1       3.558   2.663  19.707  0.00  0.00    +0.000 NA
ATOM     16  O   UNL     1       4.143   2.596  18.440  0.00  0.00    +0.000 OA
ATOM     17  C   UNL     1       3.248   3.156  17.572  0.00  0.00    +0.000 A 
ATOM     18  N   UNL     1       2.139   3.556  18.151  0.00  0.00    +0.000 NA
BRANCH  14  20
ATOM     19  C   UNL     1       1.788   2.957  21.865  0.00  0.00    +0.000 C 
ATOM     20  C   UNL     1       1.449   3.677  20.556  0.00  0.00    +0.000 C 
ATOM     21  C   UNL     1       1.459   5.191  20.756  0.00  0.00    +0.000 C 
ENDBRANCH  14  20
ENDBRANCH  13  17
ENDBRANCH   1  13
TORSDOF 3
ENDMDL
