MODEL 1
REMARK VINA RESULT:      -7.0      0.000      0.000
REMARK  Name = 
REMARK  3 active torsions:
REMARK  status: ('A' for Active; 'I' for Inactive)
REMARK    1  A    between atoms: C_1  and  C_2
REMARK    2  A    between atoms: N_7  and  C_8
REMARK    3  A    between atoms: C_10  and  C_11
REMARK                            x       y       z     vdW  Elec       q    Type
REMARK                         _______ _______ _______ _____ _____    ______ ____
ROOT
ATOM      1  C   UNL     1       4.309   5.942  17.480  0.00  0.00    +0.000 A 
ATOM      2  N   UNL     1       3.767   7.172  17.571  0.00  0.00    +0.000 NA
ATOM      3  C   UNL     1       2.749   7.408  18.428  0.00  0.00    +0.000 A 
ATOM      4  N   UNL     1       2.201   6.489  19.236  0.00  0.00    +0.000 NA
ATOM      5  C   UNL     1       2.751   5.285  19.143  0.00  0.00    +0.000 A 
ATOM      6  C   UNL     1       3.821   4.963  18.312  0.00  0.00    +0.000 A 
ATOM      7  C   UNL     1       4.136   3.504  18.483  0.00  0.00    +0.000 C 
ATOM      8  C   UNL     1       3.336   3.173  19.759  0.00  0.00    +0.000 C 
ATOM      9  C   UNL     1       2.698   1.779  19.805  0.00  0.00    +0.000 C 
ATOM     10  O   UNL     1       1.498   1.692  20.604  0.00  0.00    +0.000 OA
ATOM     11  C   UNL     1       1.341   2.749  21.569  0.00  0.00    +0.000 C 
ATOM     12  C   UNL     1       1.417   4.177  20.973  0.00  0.00    +0.000 C 
ATOM     13  N   UNL     1       2.286   4.171  19.827  0.00  0.00    +0.000 N 
ENDROOT
BRANCH   3  14
ATOM     14  C   UNL     1       2.209   8.773  18.476  0.00  0.00    +0.000 A 
ATOM     15  C   UNL     1       1.204   9.161  19.370  0.00  0.00    +0.000 A 
ATOM     16  C   UNL     1       0.720  10.472  19.374  0.00  0.00    +0.000 A 
ATOM     17  C   UNL     1       1.250  11.387  18.482  0.00  0.00    +0.000 A 
ATOM     18  N   UNL     1       0.774  12.693  18.437  0.00  0.00    +0.000 N 
ATOM     19  N   UNL     1       2.211  11.065  17.605  0.00  0.00    +0.000 NA
ATOM     20  C   UNL     1       2.662   9.780  17.623  0.00  0.00    +0.000 A 
ATOM     21  H   UNL     1       0.809  13.137  19.347  0.00  0.00    +0.000 HD
ATOM     22  H   UNL     1       1.339  13.186  17.750  0.00  0.00    +0.000 HD
ENDBRANCH   3  14
BRANCH   1  29
ATOM     23  C   UNL     1       7.144   5.990  18.459  0.00  0.00    +0.000 C 
ATOM     24  C   UNL     1       6.763   6.183  16.995  0.00  0.00    +0.000 C 
ATOM     25  C   UNL     1       7.759   5.353  16.142  0.00  0.00    +0.000 C 
ATOM     26  O   UNL     1       7.523   5.506  14.734  0.00  0.00    +0.000 OA
ATOM     27  C   UNL     1       6.205   5.050  14.417  0.00  0.00    +0.000 C 
ATOM     28  C   UNL     1       5.142   5.871  15.153  0.00  0.00    +0.000 C 
ATOM     29  N   UNL     1       5.366   5.812  16.604  0.00  0.00    +0.000 N 
ENDBRANCH   1  29
TORSDOF 2
ENDMDL
MODEL 2
REMARK VINA RESULT:      -6.9      4.908     10.478
REMARK  Name = 
REMARK  3 active torsions:
REMARK  status: ('A' for Active; 'I' for Inactive)
REMARK    1  A    between atoms: C_1  and  C_2
REMARK    2  A    between atoms: N_7  and  C_8
REMARK    3  A    between atoms: C_10  and  C_11
REMARK                            x       y       z     vdW  Elec       q    Type
REMARK                         _______ _______ _______ _____ _____    ______ ____
ROOT
ATOM      1  C   UNL     1      -1.105  12.580  19.991  0.00  0.00    +0.000 A 
ATOM      2  N   UNL     1      -0.509  11.388  19.799  0.00  0.00    +0.000 NA
ATOM      3  C   UNL     1       0.719  11.321  19.237  0.00  0.00    +0.000 A 
ATOM      4  N   UNL     1       1.434  12.381  18.833  0.00  0.00    +0.000 NA
ATOM      5  C   UNL     1       0.838  13.549  19.038  0.00  0.00    +0.000 A 
ATOM      6  C   UNL     1      -0.408  13.710  19.637  0.00  0.00    +0.000 A 
ATOM      7  C   UNL     1      -0.737  15.177  19.669  0.00  0.00    +0.000 C 
ATOM      8  C   UNL     1       0.634  15.798  19.334  0.00  0.00    +0.000 C 
ATOM      9  C   UNL     1       0.601  17.065  18.470  0.00  0.00    +0.000 C 
ATOM     10  O   UNL     1       1.775  17.267  17.653  0.00  0.00    +0.000 OA
ATOM     11  C   UNL     1       2.942  16.546  18.088  0.00  0.00    +0.000 C 
ATOM     12  C   UNL     1       2.729  15.019  18.251  0.00  0.00    +0.000 C 
ATOM     13  N   UNL     1       1.363  14.765  18.622  0.00  0.00    +0.000 N 
ENDROOT
BRANCH   3  14
ATOM     14  C   UNL     1       1.310   9.988  19.060  0.00  0.00    +0.000 A 
ATOM     15  C   UNL     1       1.920   9.580  17.868  0.00  0.00    +0.000 A 
ATOM     16  C   UNL     1       2.464   8.299  17.747  0.00  0.00    +0.000 A 
ATOM     17  C   UNL     1       2.396   7.436  18.826  0.00  0.00    +0.000 A 
ATOM     18  N   UNL     1       2.901   6.143  18.734  0.00  0.00    +0.000 N 
ATOM     19  N   UNL     1       1.821   7.776  19.987  0.00  0.00    +0.000 NA
ATOM     20  C   UNL     1       1.298   9.031  20.075  0.00  0.00    +0.000 A 
ATOM     21  H   UNL     1       3.868   6.138  18.433  0.00  0.00    +0.000 HD
ATOM     22  H   UNL     1       2.785   5.718  19.650  0.00  0.00    +0.000 HD
ENDBRANCH   3  14
BRANCH   1  29
ATOM     23  C   UNL     1      -1.352  12.676  22.979  0.00  0.00    +0.000 C 
ATOM     24  C   UNL     1      -2.487  12.235  22.062  0.00  0.00    +0.000 C 
ATOM     25  C   UNL     1      -3.791  12.892  22.585  0.00  0.00    +0.000 C 
ATOM     26  O   UNL     1      -4.940  12.498  21.820  0.00  0.00    +0.000 OA
ATOM     27  C   UNL     1      -4.772  12.905  20.459  0.00  0.00    +0.000 C 
ATOM     28  C   UNL     1      -3.548  12.235  19.828  0.00  0.00    +0.000 C 
ATOM     29  N   UNL     1      -2.340  12.545  20.604  0.00  0.00    +0.000 N 
ENDBRANCH   1  29
TORSDOF 2
ENDMDL
MODEL 3
REMARK VINA RESULT:      -6.9      2.436      6.870
REMARK  Name = 
REMARK  3 active torsions:
REMARK  status: ('A' for Active; 'I' for Inactive)
REMARK    1  A    between atoms: C_1  and  C_2
REMARK    2  A    between atoms: N_7  and  C_8
REMARK    3  A    between atoms: C_10  and  C_11
REMARK                            x       y       z     vdW  Elec       q    Type
REMARK                         _______ _______ _______ _____ _____    ______ ____
ROOT
ATOM      1  C   UNL     1       2.491   5.587  19.296  0.00  0.00    +0.000 A 
ATOM      2  N   UNL     1       3.464   5.329  18.402  0.00  0.00    +0.000 NA
ATOM      3  C   UNL     1       3.931   6.310  17.598  0.00  0.00    +0.000 A 
ATOM      4  N   UNL     1       3.496   7.578  17.608  0.00  0.00    +0.000 NA
ATOM      5  C   UNL     1       2.544   7.820  18.501  0.00  0.00    +0.000 A 
ATOM      6  C   UNL     1       2.030   6.878  19.388  0.00  0.00    +0.000 A 
ATOM      7  C   UNL     1       0.963   7.535  20.218  0.00  0.00    +0.000 C 
ATOM      8  C   UNL     1       1.219   9.025  19.907  0.00  0.00    +0.000 C 
ATOM      9  C   UNL     1      -0.029   9.913  19.819  0.00  0.00    +0.000 C 
ATOM     10  O   UNL     1       0.107  11.056  18.948  0.00  0.00    +0.000 OA
ATOM     11  C   UNL     1       1.465  11.441  18.668  0.00  0.00    +0.000 C 
ATOM     12  C   UNL     1       2.351  10.302  18.104  0.00  0.00    +0.000 C 
ATOM     13  N   UNL     1       1.897   9.041  18.624  0.00  0.00    +0.000 N 
ENDROOT
BRANCH   3  14
ATOM     14  C   UNL     1       4.994   5.957  16.648  0.00  0.00    +0.000 A 
ATOM     15  C   UNL     1       4.782   5.115  15.550  0.00  0.00    +0.000 A 
ATOM     16  C   UNL     1       5.827   4.806  14.676  0.00  0.00    +0.000 A 
ATOM     17  C   UNL     1       7.079   5.347  14.907  0.00  0.00    +0.000 A 
ATOM     18  N   UNL     1       8.150   5.040  14.075  0.00  0.00    +0.000 N 
ATOM     19  N   UNL     1       7.334   6.156  15.944  0.00  0.00    +0.000 NA
ATOM     20  C   UNL     1       6.297   6.439  16.780  0.00  0.00    +0.000 A 
ATOM     21  H   UNL     1       7.939   5.231  13.103  0.00  0.00    +0.000 HD
ATOM     22  H   UNL     1       8.943   5.584  14.407  0.00  0.00    +0.000 HD
ENDBRANCH   3  14
BRANCH   1  29
ATOM     23  C   UNL     1       0.838   3.337  18.198  0.00  0.00    +0.000 C 
ATOM     24  C   UNL     1       1.012   3.593  19.690  0.00  0.00    +0.000 C 
ATOM     25  C   UNL     1       1.247   2.220  20.375  0.00  0.00    +0.000 C 
ATOM     26  O   UNL     1       1.370   2.341  21.800  0.00  0.00    +0.000 OA
ATOM     27  C   UNL     1       2.490   3.172  22.115  0.00  0.00    +0.000 C 
ATOM     28  C   UNL     1       2.308   4.584  21.549  0.00  0.00    +0.000 C 
ATOM     29  N   UNL     1       2.109   4.528  20.095  0.00  0.00    +0.000 N 
ENDBRANCH   1  29
TORSDOF 2
ENDMDL
MODEL 4
REMARK VINA RESULT:      -6.9      1.311      5.258
REMARK  Name = 
REMARK  3 active torsions:
REMARK  status: ('A' for Active; 'I' for Inactive)
REMARK    1  A    between atoms: C_1  and  C_2
REMARK    2  A    between atoms: N_7  and  C_8
REMARK    3  A    between atoms: C_10  and  C_11
REMARK                            x       y       z     vdW  Elec       q    Type
REMARK                         _______ _______ _______ _____ _____    ______ ____
ROOT
ATOM      1  C   UNL     1       2.729   5.278  19.187  0.00  0.00    +0.000 A 
ATOM      2  N   UNL     1       2.217   6.517  19.303  0.00  0.00    +0.000 NA
ATOM      3  C   UNL     1       2.638   7.509  18.486  0.00  0.00    +0.000 A 
ATOM      4  N   UNL     1       3.563   7.368  17.526  0.00  0.00    +0.000 NA
ATOM      5  C   UNL     1       4.051   6.139  17.417  0.00  0.00    +0.000 A 
ATOM      6  C   UNL     1       3.651   5.054  18.193  0.00  0.00    +0.000 A 
ATOM      7  C   UNL     1       4.448   3.850  17.778  0.00  0.00    +0.000 C 
ATOM      8  C   UNL     1       5.067   4.343  16.454  0.00  0.00    +0.000 C 
ATOM      9  C   UNL     1       6.492   3.859  16.161  0.00  0.00    +0.000 C 
ATOM     10  O   UNL     1       7.276   4.755  15.345  0.00  0.00    +0.000 OA
ATOM     11  C   UNL     1       6.506   5.696  14.575  0.00  0.00    +0.000 C 
ATOM     12  C   UNL     1       5.517   6.550  15.408  0.00  0.00    +0.000 C 
ATOM     13  N   UNL     1       5.074   5.791  16.546  0.00  0.00    +0.000 N 
ENDROOT
BRANCH   3  14
ATOM     14  C   UNL     1       2.035   8.836  18.668  0.00  0.00    +0.000 A 
ATOM     15  C   UNL     1       2.316   9.920  17.828  0.00  0.00    +0.000 A 
ATOM     16  C   UNL     1       1.720  11.164  18.044  0.00  0.00    +0.000 A 
ATOM     17  C   UNL     1       0.839  11.313  19.101  0.00  0.00    +0.000 A 
ATOM     18  N   UNL     1       0.247  12.544  19.365  0.00  0.00    +0.000 N 
ATOM     19  N   UNL     1       0.538  10.308  19.935  0.00  0.00    +0.000 NA
ATOM     20  C   UNL     1       1.136   9.107  19.700  0.00  0.00    +0.000 A 
ATOM     21  H   UNL     1      -0.228  12.914  18.551  0.00  0.00    +0.000 HD
ATOM     22  H   UNL     1      -0.388  12.401  20.146  0.00  0.00    +0.000 HD
ENDBRANCH   3  14
BRANCH   1  29
ATOM     23  C   UNL     1       0.872   3.147  18.181  0.00  0.00    +0.000 C 
ATOM     24  C   UNL     1       1.026   3.489  19.659  0.00  0.00    +0.000 C 
ATOM     25  C   UNL     1       1.086   2.152  20.444  0.00  0.00    +0.000 C 
ATOM     26  O   UNL     1       1.178   2.361  21.861  0.00  0.00    +0.000 OA
ATOM     27  C   UNL     1       2.373   3.087  22.162  0.00  0.00    +0.000 C 
ATOM     28  C   UNL     1       2.366   4.466  21.494  0.00  0.00    +0.000 C 
ATOM     29  N   UNL     1       2.207   4.327  20.041  0.00  0.00    +0.000 N 
ENDBRANCH   1  29
TORSDOF 2
ENDMDL
MODEL 5
REMARK VINA RESULT:      -6.7      4.540      8.851
REMARK  Name = 
REMARK  3 active torsions:
REMARK  status: ('A' for Active; 'I' for Inactive)
REMARK    1  A    between atoms: C_1  and  C_2
REMARK    2  A    between atoms: N_7  and  C_8
REMARK    3  A    between atoms: C_10  and  C_11
REMARK                            x       y       z     vdW  Elec       q    Type
REMARK                         _______ _______ _______ _____ _____    ______ ____
ROOT
ATOM      1  C   UNL     1      -0.321  11.077  19.900  0.00  0.00    +0.000 A 
ATOM      2  N   UNL     1       0.658  10.159  19.797  0.00  0.00    +0.000 NA
ATOM      3  C   UNL     1       0.693   9.312  18.744  0.00  0.00    +0.000 A 
ATOM      4  N   UNL     1      -0.199   9.300  17.743  0.00  0.00    +0.000 NA
ATOM      5  C   UNL     1      -1.153  10.216  17.852  0.00  0.00    +0.000 A 
ATOM      6  C   UNL     1      -1.245  11.146  18.885  0.00  0.00    +0.000 A 
ATOM      7  C   UNL     1      -2.467  11.992  18.658  0.00  0.00    +0.000 C 
ATOM      8  C   UNL     1      -2.814  11.629  17.199  0.00  0.00    +0.000 C 
ATOM      9  C   UNL     1      -4.309  11.557  16.867  0.00  0.00    +0.000 C 
ATOM     10  O   UNL     1      -4.644  10.649  15.795  0.00  0.00    +0.000 OA
ATOM     11  C   UNL     1      -3.547  10.314  14.926  0.00  0.00    +0.000 C 
ATOM     12  C   UNL     1      -2.299   9.754  15.656  0.00  0.00    +0.000 C 
ATOM     13  N   UNL     1      -2.220  10.325  16.973  0.00  0.00    +0.000 N 
ENDROOT
BRANCH   3  14
ATOM     14  C   UNL     1       1.791   8.338  18.696  0.00  0.00    +0.000 A 
ATOM     15  C   UNL     1       2.693   8.261  17.628  0.00  0.00    +0.000 A 
ATOM     16  C   UNL     1       3.719   7.314  17.627  0.00  0.00    +0.000 A 
ATOM     17  C   UNL     1       3.837   6.450  18.702  0.00  0.00    +0.000 A 
ATOM     18  N   UNL     1       4.829   5.475  18.724  0.00  0.00    +0.000 N 
ATOM     19  N   UNL     1       3.000   6.481  19.747  0.00  0.00    +0.000 NA
ATOM     20  C   UNL     1       2.008   7.414  19.719  0.00  0.00    +0.000 A 
ATOM     21  H   UNL     1       5.750   5.872  18.582  0.00  0.00    +0.000 HD
ATOM     22  H   UNL     1       4.752   5.001  19.620  0.00  0.00    +0.000 HD
ENDBRANCH   3  14
BRANCH   1  29
ATOM     23  C   UNL     1       1.282  13.610  19.796  0.00  0.00    +0.000 C 
ATOM     24  C   UNL     1       0.803  12.979  21.098  0.00  0.00    +0.000 C 
ATOM     25  C   UNL     1       0.271  14.122  22.003  0.00  0.00    +0.000 C 
ATOM     26  O   UNL     1      -0.159  13.641  23.285  0.00  0.00    +0.000 OA
ATOM     27  C   UNL     1      -1.224  12.702  23.112  0.00  0.00    +0.000 C 
ATOM     28  C   UNL     1      -0.765  11.489  22.297  0.00  0.00    +0.000 C 
ATOM     29  N   UNL     1      -0.248  11.918  20.991  0.00  0.00    +0.000 N 
ENDBRANCH   1  29
TORSDOF 2
ENDMDL
MODEL 6
REMARK VINA RESULT:      -6.7      8.726     11.267
REMARK  Name = 
REMARK  3 active torsions:
REMARK  status: ('A' for Active; 'I' for Inactive)
REMARK    1  A    between atoms: C_1  and  C_2
REMARK    2  A    between atoms: N_7  and  C_8
REMARK    3  A    between atoms: C_10  and  C_11
REMARK                            x       y       z     vdW  Elec       q    Type
REMARK                         _______ _______ _______ _____ _____    ______ ____
ROOT
ATOM      1  C   UNL     1       7.471  14.965  20.829  0.00  0.00    +0.000 A 
ATOM      2  N   UNL     1       7.101  14.313  21.947  0.00  0.00    +0.000 NA
ATOM      3  C   UNL     1       7.727  13.171  22.311  0.00  0.00    +0.000 A 
ATOM      4  N   UNL     1       8.729  12.598  21.629  0.00  0.00    +0.000 NA
ATOM      5  C   UNL     1       9.090  13.257  20.535  0.00  0.00    +0.000 A 
ATOM      6  C   UNL     1       8.523  14.454  20.107  0.00  0.00    +0.000 A 
ATOM      7  C   UNL     1       9.191  14.868  18.825  0.00  0.00    +0.000 C 
ATOM      8  C   UNL     1      10.417  13.932  18.812  0.00  0.00    +0.000 C 
ATOM      9  C   UNL     1      10.849  13.416  17.434  0.00  0.00    +0.000 C 
ATOM     10  O   UNL     1      11.507  12.131  17.452  0.00  0.00    +0.000 OA
ATOM     11  C   UNL     1      12.053  11.752  18.729  0.00  0.00    +0.000 C 
ATOM     12  C   UNL     1      11.035  11.786  19.897  0.00  0.00    +0.000 C 
ATOM     13  N   UNL     1      10.049  12.801  19.642  0.00  0.00    +0.000 N 
ENDROOT
BRANCH   3  14
ATOM     14  C   UNL     1       7.272  12.513  23.543  0.00  0.00    +0.000 A 
ATOM     15  C   UNL     1       8.013  12.529  24.730  0.00  0.00    +0.000 A 
ATOM     16  C   UNL     1       7.540  11.885  25.875  0.00  0.00    +0.000 A 
ATOM     17  C   UNL     1       6.321  11.232  25.824  0.00  0.00    +0.000 A 
ATOM     18  N   UNL     1       5.829  10.556  26.936  0.00  0.00    +0.000 N 
ATOM     19  N   UNL     1       5.574  11.186  24.713  0.00  0.00    +0.000 NA
ATOM     20  C   UNL     1       6.062  11.822  23.611  0.00  0.00    +0.000 A 
ATOM     21  H   UNL     1       5.792  11.154  27.753  0.00  0.00    +0.000 HD
ATOM     22  H   UNL     1       4.911  10.202  26.680  0.00  0.00    +0.000 HD
ENDBRANCH   3  14
BRANCH   1  29
ATOM     23  C   UNL     1       4.995  14.982  19.136  0.00  0.00    +0.000 C 
ATOM     24  C   UNL     1       5.793  16.240  19.459  0.00  0.00    +0.000 C 
ATOM     25  C   UNL     1       4.777  17.361  19.805  0.00  0.00    +0.000 C 
ATOM     26  O   UNL     1       5.425  18.613  20.075  0.00  0.00    +0.000 OA
ATOM     27  C   UNL     1       6.300  18.467  21.197  0.00  0.00    +0.000 C 
ATOM     28  C   UNL     1       7.395  17.435  20.915  0.00  0.00    +0.000 C 
ATOM     29  N   UNL     1       6.798  16.140  20.565  0.00  0.00    +0.000 N 
ENDBRANCH   1  29
TORSDOF 2
ENDMDL
MODEL 7
REMARK VINA RESULT:      -6.7      4.564      9.744
REMARK  Name = 
REMARK  3 active torsions:
REMARK  status: ('A' for Active; 'I' for Inactive)
REMARK    1  A    between atoms: C_1  and  C_2
REMARK    2  A    between atoms: N_7  and  C_8
REMARK    3  A    between atoms: C_10  and  C_11
REMARK                            x       y       z     vdW  Elec       q    Type
REMARK                         _______ _______ _______ _____ _____    ______ ____
ROOT
ATOM      1  C   UNL     1      -1.044  11.708  18.438  0.00  0.00    +0.000 A 
ATOM      2  N   UNL     1      -0.422  10.519  18.547  0.00  0.00    +0.000 NA
ATOM      3  C   UNL     1       0.903  10.463  18.810  0.00  0.00    +0.000 A 
ATOM      4  N   UNL     1       1.694  11.532  18.981  0.00  0.00    +0.000 NA
ATOM      5  C   UNL     1       1.066  12.696  18.880  0.00  0.00    +0.000 A 
ATOM      6  C   UNL     1      -0.298  12.844  18.644  0.00  0.00    +0.000 A 
ATOM      7  C   UNL     1      -0.617  14.312  18.583  0.00  0.00    +0.000 C 
ATOM      8  C   UNL     1       0.676  14.922  19.162  0.00  0.00    +0.000 C 
ATOM      9  C   UNL     1       1.127  16.248  18.538  0.00  0.00    +0.000 C 
ATOM     10  O   UNL     1       2.552  16.480  18.582  0.00  0.00    +0.000 OA
ATOM     11  C   UNL     1       3.258  15.702  19.566  0.00  0.00    +0.000 C 
ATOM     12  C   UNL     1       3.024  14.173  19.462  0.00  0.00    +0.000 C 
ATOM     13  N   UNL     1       1.707  13.925  18.941  0.00  0.00    +0.000 N 
ENDROOT
BRANCH   3  14
ATOM     14  C   UNL     1       1.515   9.132  18.917  0.00  0.00    +0.000 A 
ATOM     15  C   UNL     1       2.146   8.498  17.841  0.00  0.00    +0.000 A 
ATOM     16  C   UNL     1       2.711   7.229  17.991  0.00  0.00    +0.000 A 
ATOM     17  C   UNL     1       2.642   6.605  19.225  0.00  0.00    +0.000 A 
ATOM     18  N   UNL     1       3.168   5.330  19.406  0.00  0.00    +0.000 N 
ATOM     19  N   UNL     1       2.048   7.168  20.285  0.00  0.00    +0.000 NA
ATOM     20  C   UNL     1       1.505   8.405  20.108  0.00  0.00    +0.000 A 
ATOM     21  H   UNL     1       4.138   5.279  19.121  0.00  0.00    +0.000 HD
ATOM     22  H   UNL     1       3.046   5.101  20.389  0.00  0.00    +0.000 HD
ENDBRANCH   3  14
BRANCH   1  29
ATOM     23  C   UNL     1      -3.005  12.600  20.526  0.00  0.00    +0.000 C 
ATOM     24  C   UNL     1      -3.397  11.752  19.321  0.00  0.00    +0.000 C 
ATOM     25  C   UNL     1      -4.727  12.323  18.762  0.00  0.00    +0.000 C 
ATOM     26  O   UNL     1      -5.217  11.559  17.650  0.00  0.00    +0.000 OA
ATOM     27  C   UNL     1      -4.259  11.589  16.588  0.00  0.00    +0.000 C 
ATOM     28  C   UNL     1      -2.931  10.963  17.024  0.00  0.00    +0.000 C 
ATOM     29  N   UNL     1      -2.403  11.659  18.205  0.00  0.00    +0.000 N 
ENDBRANCH   1  29
TORSDOF 2
ENDMDL
MODEL 8
REMARK VINA RESULT:      -6.6      4.623     10.085
REMARK  Name = 
REMARK  3 active torsions:
REMARK  status: ('A' for Active; 'I' for Inactive)
REMARK    1  A    between atoms: C_1  and  C_2
REMARK    2  A    between atoms: N_7  and  C_8
REMARK    3  A    between atoms: C_10  and  C_11
REMARK                            x       y       z     vdW  Elec       q    Type
REMARK                         _______ _______ _______ _____ _____    ______ ____
ROOT
ATOM      1  C   UNL     1      -0.962  12.188  19.152  0.00  0.00    +0.000 A 
ATOM      2  N   UNL     1      -0.388  10.971  19.140  0.00  0.00    +0.000 NA
ATOM      3  C   UNL     1       0.945  10.846  18.949  0.00  0.00    +0.000 A 
ATOM      4  N   UNL     1       1.789  11.870  18.761  0.00  0.00    +0.000 NA
ATOM      5  C   UNL     1       1.211  13.064  18.785  0.00  0.00    +0.000 A 
ATOM      6  C   UNL     1      -0.146  13.284  19.007  0.00  0.00    +0.000 A 
ATOM      7  C   UNL     1      -0.408  14.763  18.940  0.00  0.00    +0.000 C 
ATOM      8  C   UNL     1       1.028  15.323  19.005  0.00  0.00    +0.000 C 
ATOM      9  C   UNL     1       1.295  16.577  18.164  0.00  0.00    +0.000 C 
ATOM     10  O   UNL     1       2.659  16.720  17.711  0.00  0.00    +0.000 OA
ATOM     11  C   UNL     1       3.623  15.959  18.461  0.00  0.00    +0.000 C 
ATOM     12  C   UNL     1       3.308  14.445  18.561  0.00  0.00    +0.000 C 
ATOM     13  N   UNL     1       1.884  14.251  18.532  0.00  0.00    +0.000 N 
ENDROOT
BRANCH   3  14
ATOM     14  C   UNL     1       1.504   9.488  18.950  0.00  0.00    +0.000 A 
ATOM     15  C   UNL     1       2.128   8.923  17.832  0.00  0.00    +0.000 A 
ATOM     16  C   UNL     1       2.640   7.624  17.881  0.00  0.00    +0.000 A 
ATOM     17  C   UNL     1       2.527   6.901  19.056  0.00  0.00    +0.000 A 
ATOM     18  N   UNL     1       3.001   5.595  19.134  0.00  0.00    +0.000 N 
ATOM     19  N   UNL     1       1.938   7.395  20.152  0.00  0.00    +0.000 NA
ATOM     20  C   UNL     1       1.446   8.663  20.074  0.00  0.00    +0.000 A 
ATOM     21  H   UNL     1       3.973   5.531  18.859  0.00  0.00    +0.000 HD
ATOM     22  H   UNL     1       2.854   5.289  20.093  0.00  0.00    +0.000 HD
ENDBRANCH   3  14
BRANCH   1  29
ATOM     23  C   UNL     1      -2.058  13.197  21.756  0.00  0.00    +0.000 C 
ATOM     24  C   UNL     1      -2.874  12.365  20.773  0.00  0.00    +0.000 C 
ATOM     25  C   UNL     1      -4.285  13.005  20.680  0.00  0.00    +0.000 C 
ATOM     26  O   UNL     1      -5.159  12.263  19.816  0.00  0.00    +0.000 OA
ATOM     27  C   UNL     1      -4.614  12.235  18.493  0.00  0.00    +0.000 C 
ATOM     28  C   UNL     1      -3.250  11.540  18.472  0.00  0.00    +0.000 C 
ATOM     29  N   UNL     1      -2.321  12.212  19.390  0.00  0.00    +0.000 N 
ENDBRANCH   1  29
TORSDOF 2
ENDMDL
MODEL 9
REMARK VINA RESULT:      -6.6      4.519      9.806
REMARK  Name = 
REMARK  3 active torsions:
REMARK  status: ('A' for Active; 'I' for Inactive)
REMARK    1  A    between atoms: C_1  and  C_2
REMARK    2  A    between atoms: N_7  and  C_8
REMARK    3  A    between atoms: C_10  and  C_11
REMARK                            x       y       z     vdW  Elec       q    Type
REMARK                         _______ _______ _______ _____ _____    ______ ____
ROOT
ATOM      1  C   UNL     1      -0.975  11.844  18.745  0.00  0.00    +0.000 A 
ATOM      2  N   UNL     1      -0.382  10.636  18.807  0.00  0.00    +0.000 NA
ATOM      3  C   UNL     1       0.964  10.540  18.883  0.00  0.00    +0.000 A 
ATOM      4  N   UNL     1       1.805  11.583  18.902  0.00  0.00    +0.000 NA
ATOM      5  C   UNL     1       1.207  12.767  18.850  0.00  0.00    +0.000 A 
ATOM      6  C   UNL     1      -0.172  12.957  18.803  0.00  0.00    +0.000 A 
ATOM      7  C   UNL     1      -0.448  14.433  18.736  0.00  0.00    +0.000 C 
ATOM      8  C   UNL     1       0.933  15.012  19.105  0.00  0.00    +0.000 C 
ATOM      9  C   UNL     1       1.333  16.301  18.377  0.00  0.00    +0.000 C 
ATOM     10  O   UNL     1       2.756  16.482  18.212  0.00  0.00    +0.000 OA
ATOM     11  C   UNL     1       3.569  15.709  19.113  0.00  0.00    +0.000 C 
ATOM     12  C   UNL     1       3.274  14.187  19.097  0.00  0.00    +0.000 C 
ATOM     13  N   UNL     1       1.889  13.972  18.777  0.00  0.00    +0.000 N 
ENDROOT
BRANCH   3  14
ATOM     14  C   UNL     1       1.542   9.191  18.950  0.00  0.00    +0.000 A 
ATOM     15  C   UNL     1       2.191   8.589  17.866  0.00  0.00    +0.000 A 
ATOM     16  C   UNL     1       2.721   7.301  17.978  0.00  0.00    +0.000 A 
ATOM     17  C   UNL     1       2.600   6.627  19.180  0.00  0.00    +0.000 A 
ATOM     18  N   UNL     1       3.091   5.333  19.321  0.00  0.00    +0.000 N 
ATOM     19  N   UNL     1       1.988   7.158  20.246  0.00  0.00    +0.000 NA
ATOM     20  C   UNL     1       1.479   8.414  20.107  0.00  0.00    +0.000 A 
ATOM     21  H   UNL     1       4.068   5.271  19.063  0.00  0.00    +0.000 HD
ATOM     22  H   UNL     1       2.935   5.065  20.290  0.00  0.00    +0.000 HD
ENDBRANCH   3  14
BRANCH   1  29
ATOM     23  C   UNL     1      -2.455  10.633  16.434  0.00  0.00    +0.000 C 
ATOM     24  C   UNL     1      -3.106  11.575  17.440  0.00  0.00    +0.000 C 
ATOM     25  C   UNL     1      -4.498  10.987  17.796  0.00  0.00    +0.000 C 
ATOM     26  O   UNL     1      -5.225  11.830  18.703  0.00  0.00    +0.000 OA
ATOM     27  C   UNL     1      -4.492  11.964  19.924  0.00  0.00    +0.000 C 
ATOM     28  C   UNL     1      -3.129  12.617  19.683  0.00  0.00    +0.000 C 
ATOM     29  N   UNL     1      -2.355  11.838  18.708  0.00  0.00    +0.000 N 
ENDBRANCH   1  29
TORSDOF 2
ENDMDL
