MODEL 1
REMARK VINA RESULT:      -7.5      0.000      0.000
REMARK  Name = 
REMARK  13 active torsions:
REMARK  status: ('A' for Active; 'I' for Inactive)
REMARK    1  A    between atoms: C_1  and  O_2
REMARK    2  A    between atoms: O_2  and  C_3
REMARK    3  A    between atoms: C_5  and  C_6
REMARK    4  A    between atoms: C_6  and  N_7
REMARK    5  A    between atoms: N_7  and  C_8
REMARK    6  A    between atoms: C_8  and  S_10
REMARK    7  A    between atoms: S_10  and  C_11
REMARK    8  A    between atoms: C_11  and  C_12
REMARK    9  A    between atoms: C_16  and  C_17
REMARK   10  A    between atoms: C_24  and  O_25
REMARK   11  A    between atoms: O_25  and  C_26
REMARK   12  A    between atoms: C_27  and  O_28
REMARK   13  A    between atoms: O_28  and  C_29
REMARK                            x       y       z     vdW  Elec       q    Type
REMARK                         _______ _______ _______ _____ _____    ______ ____
ROOT
ATOM      1  C   UNL     1       1.996   3.783  20.694  0.00  0.00    +0.000 C 
ATOM      2  S   UNL     1       1.727   2.673  21.906  0.00  0.00    +0.000 S 
ENDROOT
BRANCH   1   3
ATOM      3  N   UNL     1       2.327   5.103  20.844  0.00  0.00    +0.000 N 
ATOM      4  H   UNL     1       2.177   5.471  21.775  0.00  0.00    +0.000 HD
BRANCH   3   5
ATOM      5  C   UNL     1       2.670   6.069  19.804  0.00  0.00    +0.000 C 
BRANCH   5   8
ATOM      6  C   UNL     1       1.322   9.549  18.925  0.00  0.00    +0.000 A 
ATOM      7  C   UNL     1       2.094   8.375  18.902  0.00  0.00    +0.000 A 
ATOM      8  C   UNL     1       1.970   7.401  19.885  0.00  0.00    +0.000 A 
ATOM      9  C   UNL     1       1.100   7.678  20.948  0.00  0.00    +0.000 A 
ATOM     10  C   UNL     1       0.375   8.886  21.034  0.00  0.00    +0.000 A 
ATOM     11  C   UNL     1       0.491   9.853  20.014  0.00  0.00    +0.000 A 
BRANCH   6  13
ATOM     12  C   UNL     1       2.319  11.476  18.076  0.00  0.00    +0.000 C 
ATOM     13  O   UNL     1       1.411  10.395  17.851  0.00  0.00    +0.000 OA
ENDBRANCH   6  13
BRANCH  10  14
ATOM     14  O   UNL     1      -0.412   8.927  22.161  0.00  0.00    +0.000 OA
ATOM     15  C   UNL     1       0.119   9.482  23.356  0.00  0.00    +0.000 C 
ENDBRANCH  10  14
BRANCH  11  16
ATOM     16  O   UNL     1      -0.228  11.007  20.170  0.00  0.00    +0.000 OA
ATOM     17  C   UNL     1      -1.454  11.200  19.486  0.00  0.00    +0.000 C 
ENDBRANCH  11  16
ENDBRANCH   5   8
ENDBRANCH   3   5
ENDBRANCH   1   3
BRANCH   1  18
ATOM     18  S   UNL     1       2.056   3.383  18.982  0.00  0.00    +0.000 S 
BRANCH  18  19
ATOM     19  C   UNL     1       3.662   2.571  18.818  0.00  0.00    +0.000 C 
BRANCH  19  20
ATOM     20  C   UNL     1       4.755   3.472  18.268  0.00  0.00    +0.000 A 
ATOM     21  N   UNL     1       5.563   4.147  19.030  0.00  0.00    +0.000 NA
ATOM     22  C   UNL     1       6.402   4.986  18.370  0.00  0.00    +0.000 A 
ATOM     23  S   UNL     1       7.594   5.912  19.167  0.00  0.00    +0.000 S 
ATOM     24  C   UNL     1       7.704   6.982  17.829  0.00  0.00    +0.000 A 
ATOM     25  C   UNL     1       8.239   8.364  18.007  0.00  0.00    +0.000 C 
ATOM     26  C   UNL     1       7.200   6.385  16.690  0.00  0.00    +0.000 A 
ATOM     27  C   UNL     1       6.432   5.229  17.015  0.00  0.00    +0.000 A 
ATOM     28  C   UNL     1       5.612   4.391  16.173  0.00  0.00    +0.000 A 
ATOM     29  O   UNL     1       5.616   4.430  14.946  0.00  0.00    +0.000 OA
ATOM     30  N   UNL     1       4.791   3.538  16.882  0.00  0.00    +0.000 N 
ATOM     31  H   UNL     1       4.218   2.932  16.312  0.00  0.00    +0.000 HD
ENDBRANCH  19  20
ENDBRANCH  18  19
ENDBRANCH   1  18
TORSDOF 9
ENDMDL
MODEL 2
REMARK VINA RESULT:      -7.1      1.143      1.320
REMARK  Name = 
REMARK  13 active torsions:
REMARK  status: ('A' for Active; 'I' for Inactive)
REMARK    1  A    between atoms: C_1  and  O_2
REMARK    2  A    between atoms: O_2  and  C_3
REMARK    3  A    between atoms: C_5  and  C_6
REMARK    4  A    between atoms: C_6  and  N_7
REMARK    5  A    between atoms: N_7  and  C_8
REMARK    6  A    between atoms: C_8  and  S_10
REMARK    7  A    between atoms: S_10  and  C_11
REMARK    8  A    between atoms: C_11  and  C_12
REMARK    9  A    between atoms: C_16  and  C_17
REMARK   10  A    between atoms: C_24  and  O_25
REMARK   11  A    between atoms: O_25  and  C_26
REMARK   12  A    between atoms: C_27  and  O_28
REMARK   13  A    between atoms: O_28  and  C_29
REMARK                            x       y       z     vdW  Elec       q    Type
REMARK                         _______ _______ _______ _____ _____    ______ ____
ROOT
ATOM      1  C   UNL     1       2.157   4.509  20.402  0.00  0.00    +0.000 C 
ATOM      2  S   UNL     1       2.071   3.416  21.656  0.00  0.00    +0.000 S 
ENDROOT
BRANCH   1   3
ATOM      3  N   UNL     1       2.474   5.839  20.488  0.00  0.00    +0.000 N 
ATOM      4  H   UNL     1       2.576   6.187  21.433  0.00  0.00    +0.000 HD
BRANCH   3   5
ATOM      5  C   UNL     1       2.485   6.832  19.418  0.00  0.00    +0.000 C 
BRANCH   5   8
ATOM      6  C   UNL     1       0.486  10.082  19.036  0.00  0.00    +0.000 A 
ATOM      7  C   UNL     1       1.258   8.949  18.727  0.00  0.00    +0.000 A 
ATOM      8  C   UNL     1       1.785   8.133  19.719  0.00  0.00    +0.000 A 
ATOM      9  C   UNL     1       1.586   8.536  21.047  0.00  0.00    +0.000 A 
ATOM     10  C   UNL     1       0.884   9.714  21.379  0.00  0.00    +0.000 A 
ATOM     11  C   UNL     1       0.330  10.517  20.362  0.00  0.00    +0.000 A 
BRANCH   6  13
ATOM     12  C   UNL     1      -1.441  10.313  17.747  0.00  0.00    +0.000 C 
ATOM     13  O   UNL     1      -0.105  10.756  18.001  0.00  0.00    +0.000 OA
ENDBRANCH   6  13
BRANCH  10  14
ATOM     14  O   UNL     1       0.815   9.896  22.741  0.00  0.00    +0.000 OA
ATOM     15  C   UNL     1      -0.382   9.552  23.426  0.00  0.00    +0.000 C 
ENDBRANCH  10  14
BRANCH  11  16
ATOM     16  O   UNL     1      -0.325  11.653  20.756  0.00  0.00    +0.000 OA
ATOM     17  C   UNL     1       0.332  12.909  20.759  0.00  0.00    +0.000 C 
ENDBRANCH  11  16
ENDBRANCH   5   8
ENDBRANCH   3   5
ENDBRANCH   1   3
BRANCH   1  18
ATOM     18  S   UNL     1       2.008   4.079  18.703  0.00  0.00    +0.000 S 
BRANCH  18  19
ATOM     19  C   UNL     1       3.585   3.267  18.356  0.00  0.00    +0.000 C 
BRANCH  19  20
ATOM     20  C   UNL     1       4.698   4.225  17.965  0.00  0.00    +0.000 A 
ATOM     21  N   UNL     1       5.679   4.530  18.761  0.00  0.00    +0.000 NA
ATOM     22  C   UNL     1       6.520   5.486  18.290  0.00  0.00    +0.000 A 
ATOM     23  S   UNL     1       7.915   5.985  19.138  0.00  0.00    +0.000 S 
ATOM     24  C   UNL     1       7.977   7.448  18.240  0.00  0.00    +0.000 A 
ATOM     25  C   UNL     1       8.699   8.637  18.780  0.00  0.00    +0.000 C 
ATOM     26  C   UNL     1       7.253   7.327  17.070  0.00  0.00    +0.000 A 
ATOM     27  C   UNL     1       6.397   6.189  17.112  0.00  0.00    +0.000 A 
ATOM     28  C   UNL     1       5.373   5.761  16.189  0.00  0.00    +0.000 A 
ATOM     29  O   UNL     1       5.217   6.229  15.065  0.00  0.00    +0.000 OA
ATOM     30  N   UNL     1       4.555   4.773  16.697  0.00  0.00    +0.000 N 
ATOM     31  H   UNL     1       3.839   4.448  16.063  0.00  0.00    +0.000 HD
ENDBRANCH  19  20
ENDBRANCH  18  19
ENDBRANCH   1  18
TORSDOF 9
ENDMDL
MODEL 3
REMARK VINA RESULT:      -7.0      4.390      7.231
REMARK  Name = 
REMARK  13 active torsions:
REMARK  status: ('A' for Active; 'I' for Inactive)
REMARK    1  A    between atoms: C_1  and  O_2
REMARK    2  A    between atoms: O_2  and  C_3
REMARK    3  A    between atoms: C_5  and  C_6
REMARK    4  A    between atoms: C_6  and  N_7
REMARK    5  A    between atoms: N_7  and  C_8
REMARK    6  A    between atoms: C_8  and  S_10
REMARK    7  A    between atoms: S_10  and  C_11
REMARK    8  A    between atoms: C_11  and  C_12
REMARK    9  A    between atoms: C_16  and  C_17
REMARK   10  A    between atoms: C_24  and  O_25
REMARK   11  A    between atoms: O_25  and  C_26
REMARK   12  A    between atoms: C_27  and  O_28
REMARK   13  A    between atoms: O_28  and  C_29
REMARK                            x       y       z     vdW  Elec       q    Type
REMARK                         _______ _______ _______ _____ _____    ______ ____
ROOT
ATOM      1  C   UNL     1       7.523   6.558  17.602  0.00  0.00    +0.000 C 
ATOM      2  S   UNL     1       7.746   5.731  19.030  0.00  0.00    +0.000 S 
ENDROOT
BRANCH   1   3
ATOM      3  N   UNL     1       7.217   6.022  16.379  0.00  0.00    +0.000 N 
ATOM      4  H   UNL     1       8.017   5.860  15.779  0.00  0.00    +0.000 HD
BRANCH   3   5
ATOM      5  C   UNL     1       5.898   5.848  15.777  0.00  0.00    +0.000 C 
BRANCH   5   8
ATOM      6  C   UNL     1       2.951   6.227  18.199  0.00  0.00    +0.000 A 
ATOM      7  C   UNL     1       4.086   6.524  17.426  0.00  0.00    +0.000 A 
ATOM      8  C   UNL     1       4.774   5.538  16.732  0.00  0.00    +0.000 A 
ATOM      9  C   UNL     1       4.339   4.217  16.903  0.00  0.00    +0.000 A 
ATOM     10  C   UNL     1       3.250   3.885  17.739  0.00  0.00    +0.000 A 
ATOM     11  C   UNL     1       2.544   4.900  18.415  0.00  0.00    +0.000 A 
BRANCH   6  13
ATOM     12  C   UNL     1       2.461   8.499  18.037  0.00  0.00    +0.000 C 
ATOM     13  O   UNL     1       2.254   7.273  18.744  0.00  0.00    +0.000 OA
ENDBRANCH   6  13
BRANCH  10  14
ATOM     14  O   UNL     1       3.009   2.531  17.744  0.00  0.00    +0.000 OA
ATOM     15  C   UNL     1       3.640   1.719  18.725  0.00  0.00    +0.000 C 
ENDBRANCH  10  14
BRANCH  11  16
ATOM     16  O   UNL     1       1.510   4.505  19.221  0.00  0.00    +0.000 OA
ATOM     17  C   UNL     1       1.703   4.309  20.611  0.00  0.00    +0.000 C 
ENDBRANCH  11  16
ENDBRANCH   5   8
ENDBRANCH   3   5
ENDBRANCH   1   3
BRANCH   1  18
ATOM     18  S   UNL     1       7.486   8.311  17.469  0.00  0.00    +0.000 S 
BRANCH  18  19
ATOM     19  C   UNL     1       8.691   8.832  18.711  0.00  0.00    +0.000 C 
BRANCH  19  20
ATOM     20  C   UNL     1       9.122  10.283  18.581  0.00  0.00    +0.000 A 
ATOM     21  N   UNL     1      10.181  10.760  19.164  0.00  0.00    +0.000 NA
ATOM     22  C   UNL     1      10.351  12.100  19.031  0.00  0.00    +0.000 A 
ATOM     23  S   UNL     1      11.711  12.922  19.653  0.00  0.00    +0.000 S 
ATOM     24  C   UNL     1      10.874  14.420  19.593  0.00  0.00    +0.000 A 
ATOM     25  C   UNL     1      11.304  15.563  20.452  0.00  0.00    +0.000 C 
ATOM     26  C   UNL     1       9.803  14.341  18.723  0.00  0.00    +0.000 A 
ATOM     27  C   UNL     1       9.497  12.985  18.410  0.00  0.00    +0.000 A 
ATOM     28  C   UNL     1       8.389  12.429  17.672  0.00  0.00    +0.000 A 
ATOM     29  O   UNL     1       7.611  13.091  16.991  0.00  0.00    +0.000 OA
ATOM     30  N   UNL     1       8.265  11.062  17.814  0.00  0.00    +0.000 N 
ATOM     31  H   UNL     1       7.504  10.649  17.295  0.00  0.00    +0.000 HD
ENDBRANCH  19  20
ENDBRANCH  18  19
ENDBRANCH   1  18
TORSDOF 9
ENDMDL
MODEL 4
REMARK VINA RESULT:      -7.0      0.963      1.098
REMARK  Name = 
REMARK  13 active torsions:
REMARK  status: ('A' for Active; 'I' for Inactive)
REMARK    1  A    between atoms: C_1  and  O_2
REMARK    2  A    between atoms: O_2  and  C_3
REMARK    3  A    between atoms: C_5  and  C_6
REMARK    4  A    between atoms: C_6  and  N_7
REMARK    5  A    between atoms: N_7  and  C_8
REMARK    6  A    between atoms: C_8  and  S_10
REMARK    7  A    between atoms: S_10  and  C_11
REMARK    8  A    between atoms: C_11  and  C_12
REMARK    9  A    between atoms: C_16  and  C_17
REMARK   10  A    between atoms: C_24  and  O_25
REMARK   11  A    between atoms: O_25  and  C_26
REMARK   12  A    between atoms: C_27  and  O_28
REMARK   13  A    between atoms: O_28  and  C_29
REMARK                            x       y       z     vdW  Elec       q    Type
REMARK                         _______ _______ _______ _____ _____    ______ ____
ROOT
ATOM      1  C   UNL     1       1.839   4.303  19.758  0.00  0.00    +0.000 C 
ATOM      2  S   UNL     1       2.060   4.074  21.393  0.00  0.00    +0.000 S 
ENDROOT
BRANCH   1   3
ATOM      3  N   UNL     1       1.727   5.500  19.101  0.00  0.00    +0.000 N 
ATOM      4  H   UNL     1       1.026   5.515  18.371  0.00  0.00    +0.000 HD
BRANCH   3   5
ATOM      5  C   UNL     1       2.608   6.661  19.190  0.00  0.00    +0.000 C 
BRANCH   5   8
ATOM      6  C   UNL     1       0.681   9.973  19.063  0.00  0.00    +0.000 A 
ATOM      7  C   UNL     1       1.414   8.842  18.664  0.00  0.00    +0.000 A 
ATOM      8  C   UNL     1       1.951   7.957  19.589  0.00  0.00    +0.000 A 
ATOM      9  C   UNL     1       1.802   8.285  20.944  0.00  0.00    +0.000 A 
ATOM     10  C   UNL     1       1.139   9.457  21.367  0.00  0.00    +0.000 A 
ATOM     11  C   UNL     1       0.576  10.332  20.416  0.00  0.00    +0.000 A 
BRANCH   6  13
ATOM     12  C   UNL     1      -1.118  10.112  17.588  0.00  0.00    +0.000 C 
ATOM     13  O   UNL     1       0.076  10.721  18.088  0.00  0.00    +0.000 OA
ENDBRANCH   6  13
BRANCH  10  14
ATOM     14  O   UNL     1       1.116   9.560  22.738  0.00  0.00    +0.000 OA
ATOM     15  C   UNL     1      -0.122   9.415  23.422  0.00  0.00    +0.000 C 
ENDBRANCH  10  14
BRANCH  11  16
ATOM     16  O   UNL     1      -0.038  11.457  20.896  0.00  0.00    +0.000 OA
ATOM     17  C   UNL     1      -1.451  11.570  20.906  0.00  0.00    +0.000 C 
ENDBRANCH  11  16
ENDBRANCH   5   8
ENDBRANCH   3   5
ENDBRANCH   1   3
BRANCH   1  18
ATOM     18  S   UNL     1       1.877   3.012  18.564  0.00  0.00    +0.000 S 
BRANCH  18  19
ATOM     19  C   UNL     1       3.539   2.330  18.766  0.00  0.00    +0.000 C 
BRANCH  19  20
ATOM     20  C   UNL     1       4.643   3.230  18.237  0.00  0.00    +0.000 A 
ATOM     21  N   UNL     1       5.406   3.941  19.012  0.00  0.00    +0.000 NA
ATOM     22  C   UNL     1       6.263   4.771  18.364  0.00  0.00    +0.000 A 
ATOM     23  S   UNL     1       7.405   5.739  19.183  0.00  0.00    +0.000 S 
ATOM     24  C   UNL     1       7.560   6.768  17.818  0.00  0.00    +0.000 A 
ATOM     25  C   UNL     1       8.068   8.164  17.975  0.00  0.00    +0.000 C 
ATOM     26  C   UNL     1       7.116   6.128  16.677  0.00  0.00    +0.000 A 
ATOM     27  C   UNL     1       6.350   4.972  17.004  0.00  0.00    +0.000 A 
ATOM     28  C   UNL     1       5.580   4.095  16.154  0.00  0.00    +0.000 A 
ATOM     29  O   UNL     1       5.640   4.096  14.928  0.00  0.00    +0.000 OA
ATOM     30  N   UNL     1       4.740   3.252  16.852  0.00  0.00    +0.000 N 
ATOM     31  H   UNL     1       4.202   2.620  16.278  0.00  0.00    +0.000 HD
ENDBRANCH  19  20
ENDBRANCH  18  19
ENDBRANCH   1  18
TORSDOF 9
ENDMDL
MODEL 5
REMARK VINA RESULT:      -6.9      4.380      9.183
REMARK  Name = 
REMARK  13 active torsions:
REMARK  status: ('A' for Active; 'I' for Inactive)
REMARK    1  A    between atoms: C_1  and  O_2
REMARK    2  A    between atoms: O_2  and  C_3
REMARK    3  A    between atoms: C_5  and  C_6
REMARK    4  A    between atoms: C_6  and  N_7
REMARK    5  A    between atoms: N_7  and  C_8
REMARK    6  A    between atoms: C_8  and  S_10
REMARK    7  A    between atoms: S_10  and  C_11
REMARK    8  A    between atoms: C_11  and  C_12
REMARK    9  A    between atoms: C_16  and  C_17
REMARK   10  A    between atoms: C_24  and  O_25
REMARK   11  A    between atoms: O_25  and  C_26
REMARK   12  A    between atoms: C_27  and  O_28
REMARK   13  A    between atoms: O_28  and  C_29
REMARK                            x       y       z     vdW  Elec       q    Type
REMARK                         _______ _______ _______ _____ _____    ______ ____
ROOT
ATOM      1  C   UNL     1       1.078   8.862  20.413  0.00  0.00    +0.000 C 
ATOM      2  S   UNL     1       0.004   8.969  21.681  0.00  0.00    +0.000 S 
ENDROOT
BRANCH   1   3
ATOM      3  N   UNL     1       1.938   7.830  20.146  0.00  0.00    +0.000 N 
ATOM      4  H   UNL     1       2.275   7.340  20.966  0.00  0.00    +0.000 HD
BRANCH   3   5
ATOM      5  C   UNL     1       2.567   7.488  18.873  0.00  0.00    +0.000 C 
BRANCH   5   8
ATOM      6  C   UNL     1       3.706   4.120  17.440  0.00  0.00    +0.000 A 
ATOM      7  C   UNL     1       3.540   5.504  17.618  0.00  0.00    +0.000 A 
ATOM      8  C   UNL     1       2.654   6.017  18.555  0.00  0.00    +0.000 A 
ATOM      9  C   UNL     1       1.868   5.095  19.260  0.00  0.00    +0.000 A 
ATOM     10  C   UNL     1       1.960   3.704  19.040  0.00  0.00    +0.000 A 
ATOM     11  C   UNL     1       2.884   3.196  18.105  0.00  0.00    +0.000 A 
BRANCH   6  13
ATOM     12  C   UNL     1       5.757   4.644  16.466  0.00  0.00    +0.000 C 
ATOM     13  O   UNL     1       4.692   3.697  16.588  0.00  0.00    +0.000 OA
ENDBRANCH   6  13
BRANCH  10  14
ATOM     14  O   UNL     1       1.096   3.004  19.850  0.00  0.00    +0.000 OA
ATOM     15  C   UNL     1       1.501   2.674  21.172  0.00  0.00    +0.000 C 
ENDBRANCH  10  14
BRANCH  11  16
ATOM     16  O   UNL     1       2.908   1.838  17.932  0.00  0.00    +0.000 OA
ATOM     17  C   UNL     1       3.824   1.028  18.647  0.00  0.00    +0.000 C 
ENDBRANCH  11  16
ENDBRANCH   5   8
ENDBRANCH   3   5
ENDBRANCH   1   3
BRANCH   1  18
ATOM     18  S   UNL     1       1.165  10.017  19.090  0.00  0.00    +0.000 S 
BRANCH  18  19
ATOM     19  C   UNL     1       0.205  11.414  19.716  0.00  0.00    +0.000 C 
BRANCH  19  20
ATOM     20  C   UNL     1      -1.166  11.557  19.074  0.00  0.00    +0.000 A 
ATOM     21  N   UNL     1      -2.207  11.990  19.721  0.00  0.00    +0.000 NA
ATOM     22  C   UNL     1      -3.370  11.946  19.024  0.00  0.00    +0.000 A 
ATOM     23  S   UNL     1      -4.844  12.533  19.654  0.00  0.00    +0.000 S 
ATOM     24  C   UNL     1      -5.737  11.607  18.516  0.00  0.00    +0.000 A 
ATOM     25  C   UNL     1      -7.162  11.251  18.780  0.00  0.00    +0.000 C 
ATOM     26  C   UNL     1      -4.935  11.250  17.448  0.00  0.00    +0.000 A 
ATOM     27  C   UNL     1      -3.558  11.439  17.757  0.00  0.00    +0.000 A 
ATOM     28  C   UNL     1      -2.378  11.070  17.011  0.00  0.00    +0.000 A 
ATOM     29  O   UNL     1      -2.390  10.701  15.840  0.00  0.00    +0.000 OA
ATOM     30  N   UNL     1      -1.214  11.151  17.748  0.00  0.00    +0.000 N 
ATOM     31  H   UNL     1      -0.375  10.910  17.241  0.00  0.00    +0.000 HD
ENDBRANCH  19  20
ENDBRANCH  18  19
ENDBRANCH   1  18
TORSDOF 9
ENDMDL
MODEL 6
REMARK VINA RESULT:      -6.9      0.804      2.439
REMARK  Name = 
REMARK  13 active torsions:
REMARK  status: ('A' for Active; 'I' for Inactive)
REMARK    1  A    between atoms: C_1  and  O_2
REMARK    2  A    between atoms: O_2  and  C_3
REMARK    3  A    between atoms: C_5  and  C_6
REMARK    4  A    between atoms: C_6  and  N_7
REMARK    5  A    between atoms: N_7  and  C_8
REMARK    6  A    between atoms: C_8  and  S_10
REMARK    7  A    between atoms: S_10  and  C_11
REMARK    8  A    between atoms: C_11  and  C_12
REMARK    9  A    between atoms: C_16  and  C_17
REMARK   10  A    between atoms: C_24  and  O_25
REMARK   11  A    between atoms: O_25  and  C_26
REMARK   12  A    between atoms: C_27  and  O_28
REMARK   13  A    between atoms: O_28  and  C_29
REMARK                            x       y       z     vdW  Elec       q    Type
REMARK                         _______ _______ _______ _____ _____    ______ ____
ROOT
ATOM      1  C   UNL     1       2.315   4.458  19.205  0.00  0.00    +0.000 C 
ATOM      2  S   UNL     1       1.446   4.333  17.790  0.00  0.00    +0.000 S 
ENDROOT
BRANCH   1   3
ATOM      3  N   UNL     1       2.795   5.606  19.779  0.00  0.00    +0.000 N 
ATOM      4  H   UNL     1       2.869   5.573  20.788  0.00  0.00    +0.000 HD
BRANCH   3   5
ATOM      5  C   UNL     1       3.015   6.904  19.146  0.00  0.00    +0.000 C 
BRANCH   5   8
ATOM      6  C   UNL     1       0.305   8.944  20.934  0.00  0.00    +0.000 A 
ATOM      7  C   UNL     1       1.129   7.872  20.548  0.00  0.00    +0.000 A 
ATOM      8  C   UNL     1       2.015   7.980  19.485  0.00  0.00    +0.000 A 
ATOM      9  C   UNL     1       1.994   9.178  18.757  0.00  0.00    +0.000 A 
ATOM     10  C   UNL     1       1.118  10.237  19.076  0.00  0.00    +0.000 A 
ATOM     11  C   UNL     1       0.243  10.124  20.176  0.00  0.00    +0.000 A 
BRANCH   6  13
ATOM     12  C   UNL     1       0.135   9.464  23.199  0.00  0.00    +0.000 C 
ATOM     13  O   UNL     1      -0.443   8.800  22.072  0.00  0.00    +0.000 OA
ENDBRANCH   6  13
BRANCH  10  14
ATOM     14  O   UNL     1       1.283  11.306  18.226  0.00  0.00    +0.000 OA
ATOM     15  C   UNL     1       2.103  12.394  18.632  0.00  0.00    +0.000 C 
ENDBRANCH  10  14
BRANCH  11  16
ATOM     16  O   UNL     1      -0.589  11.184  20.417  0.00  0.00    +0.000 OA
ATOM     17  C   UNL     1      -1.711  11.433  19.589  0.00  0.00    +0.000 C 
ENDBRANCH  11  16
ENDBRANCH   5   8
ENDBRANCH   3   5
ENDBRANCH   1   3
BRANCH   1  18
ATOM     18  S   UNL     1       2.625   3.116  20.299  0.00  0.00    +0.000 S 
BRANCH  18  19
ATOM     19  C   UNL     1       4.054   2.307  19.543  0.00  0.00    +0.000 C 
BRANCH  19  20
ATOM     20  C   UNL     1       4.965   3.253  18.779  0.00  0.00    +0.000 A 
ATOM     21  N   UNL     1       5.812   4.045  19.365  0.00  0.00    +0.000 NA
ATOM     22  C   UNL     1       6.463   4.899  18.535  0.00  0.00    +0.000 A 
ATOM     23  S   UNL     1       7.671   5.974  19.082  0.00  0.00    +0.000 S 
ATOM     24  C   UNL     1       7.481   6.952  17.683  0.00  0.00    +0.000 A 
ATOM     25  C   UNL     1       7.907   8.382  17.695  0.00  0.00    +0.000 C 
ATOM     26  C   UNL     1       6.868   6.235  16.673  0.00  0.00    +0.000 A 
ATOM     27  C   UNL     1       6.267   5.047  17.180  0.00  0.00    +0.000 A 
ATOM     28  C   UNL     1       5.410   4.087  16.526  0.00  0.00    +0.000 A 
ATOM     29  O   UNL     1       5.227   4.038  15.313  0.00  0.00    +0.000 OA
ATOM     30  N   UNL     1       4.786   3.222  17.402  0.00  0.00    +0.000 N 
ATOM     31  H   UNL     1       4.193   2.532  16.965  0.00  0.00    +0.000 HD
ENDBRANCH  19  20
ENDBRANCH  18  19
ENDBRANCH   1  18
TORSDOF 9
ENDMDL
MODEL 7
REMARK VINA RESULT:      -6.9      1.117      1.362
REMARK  Name = 
REMARK  13 active torsions:
REMARK  status: ('A' for Active; 'I' for Inactive)
REMARK    1  A    between atoms: C_1  and  O_2
REMARK    2  A    between atoms: O_2  and  C_3
REMARK    3  A    between atoms: C_5  and  C_6
REMARK    4  A    between atoms: C_6  and  N_7
REMARK    5  A    between atoms: N_7  and  C_8
REMARK    6  A    between atoms: C_8  and  S_10
REMARK    7  A    between atoms: S_10  and  C_11
REMARK    8  A    between atoms: C_11  and  C_12
REMARK    9  A    between atoms: C_16  and  C_17
REMARK   10  A    between atoms: C_24  and  O_25
REMARK   11  A    between atoms: O_25  and  C_26
REMARK   12  A    between atoms: C_27  and  O_28
REMARK   13  A    between atoms: O_28  and  C_29
REMARK                            x       y       z     vdW  Elec       q    Type
REMARK                         _______ _______ _______ _____ _____    ______ ____
ROOT
ATOM      1  C   UNL     1       2.041   4.543  19.336  0.00  0.00    +0.000 C 
ATOM      2  S   UNL     1       1.250   3.974  17.985  0.00  0.00    +0.000 S 
ENDROOT
BRANCH   1   3
ATOM      3  N   UNL     1       2.200   5.851  19.708  0.00  0.00    +0.000 N 
ATOM      4  H   UNL     1       2.139   6.016  20.705  0.00  0.00    +0.000 HD
BRANCH   3   5
ATOM      5  C   UNL     1       2.247   7.031  18.849  0.00  0.00    +0.000 C 
BRANCH   5   8
ATOM      6  C   UNL     1       1.101  10.653  19.370  0.00  0.00    +0.000 A 
ATOM      7  C   UNL     1       1.613   9.492  18.766  0.00  0.00    +0.000 A 
ATOM      8  C   UNL     1       1.844   8.333  19.495  0.00  0.00    +0.000 A 
ATOM      9  C   UNL     1       1.624   8.395  20.878  0.00  0.00    +0.000 A 
ATOM     10  C   UNL     1       1.187   9.575  21.518  0.00  0.00    +0.000 A 
ATOM     11  C   UNL     1       0.930  10.736  20.761  0.00  0.00    +0.000 A 
BRANCH   6  13
ATOM     12  C   UNL     1       1.852  12.644  18.421  0.00  0.00    +0.000 C 
ATOM     13  O   UNL     1       0.779  11.709  18.558  0.00  0.00    +0.000 OA
ENDBRANCH   6  13
BRANCH  10  14
ATOM     14  O   UNL     1       1.038   9.392  22.873  0.00  0.00    +0.000 OA
ATOM     15  C   UNL     1      -0.270   9.340  23.425  0.00  0.00    +0.000 C 
ENDBRANCH  10  14
BRANCH  11  16
ATOM     16  O   UNL     1       0.524  11.848  21.449  0.00  0.00    +0.000 OA
ATOM     17  C   UNL     1      -0.834  12.251  21.446  0.00  0.00    +0.000 C 
ENDBRANCH  11  16
ENDBRANCH   5   8
ENDBRANCH   3   5
ENDBRANCH   1   3
BRANCH   1  18
ATOM     18  S   UNL     1       2.675   3.517  20.616  0.00  0.00    +0.000 S 
BRANCH  18  19
ATOM     19  C   UNL     1       3.989   2.601  19.779  0.00  0.00    +0.000 C 
BRANCH  19  20
ATOM     20  C   UNL     1       4.929   3.475  18.967  0.00  0.00    +0.000 A 
ATOM     21  N   UNL     1       5.808   4.264  19.511  0.00  0.00    +0.000 NA
ATOM     22  C   UNL     1       6.483   5.054  18.638  0.00  0.00    +0.000 A 
ATOM     23  S   UNL     1       7.731   6.110  19.128  0.00  0.00    +0.000 S 
ATOM     24  C   UNL     1       7.568   7.025  17.683  0.00  0.00    +0.000 A 
ATOM     25  C   UNL     1       8.045   8.438  17.624  0.00  0.00    +0.000 C 
ATOM     26  C   UNL     1       6.925   6.282  16.711  0.00  0.00    +0.000 A 
ATOM     27  C   UNL     1       6.285   5.143  17.277  0.00  0.00    +0.000 A 
ATOM     28  C   UNL     1       5.391   4.183  16.675  0.00  0.00    +0.000 A 
ATOM     29  O   UNL     1       5.201   4.082  15.466  0.00  0.00    +0.000 OA
ATOM     30  N   UNL     1       4.742   3.384  17.594  0.00  0.00    +0.000 N 
ATOM     31  H   UNL     1       4.123   2.696  17.193  0.00  0.00    +0.000 HD
ENDBRANCH  19  20
ENDBRANCH  18  19
ENDBRANCH   1  18
TORSDOF 9
ENDMDL
MODEL 8
REMARK VINA RESULT:      -6.9      1.103      1.395
REMARK  Name = 
REMARK  13 active torsions:
REMARK  status: ('A' for Active; 'I' for Inactive)
REMARK    1  A    between atoms: C_1  and  O_2
REMARK    2  A    between atoms: O_2  and  C_3
REMARK    3  A    between atoms: C_5  and  C_6
REMARK    4  A    between atoms: C_6  and  N_7
REMARK    5  A    between atoms: N_7  and  C_8
REMARK    6  A    between atoms: C_8  and  S_10
REMARK    7  A    between atoms: S_10  and  C_11
REMARK    8  A    between atoms: C_11  and  C_12
REMARK    9  A    between atoms: C_16  and  C_17
REMARK   10  A    between atoms: C_24  and  O_25
REMARK   11  A    between atoms: O_25  and  C_26
REMARK   12  A    between atoms: C_27  and  O_28
REMARK   13  A    between atoms: O_28  and  C_29
REMARK                            x       y       z     vdW  Elec       q    Type
REMARK                         _______ _______ _______ _____ _____    ______ ____
ROOT
ATOM      1  C   UNL     1       2.182   4.531  19.237  0.00  0.00    +0.000 C 
ATOM      2  S   UNL     1       1.393   4.157  17.818  0.00  0.00    +0.000 S 
ENDROOT
BRANCH   1   3
ATOM      3  N   UNL     1       2.397   5.780  19.755  0.00  0.00    +0.000 N 
ATOM      4  H   UNL     1       3.175   6.279  19.343  0.00  0.00    +0.000 HD
BRANCH   3   5
ATOM      5  C   UNL     1       1.781   6.383  20.935  0.00  0.00    +0.000 C 
BRANCH   5   8
ATOM      6  C   UNL     1       0.938   9.831  19.488  0.00  0.00    +0.000 A 
ATOM      7  C   UNL     1       1.422   8.517  19.602  0.00  0.00    +0.000 A 
ATOM      8  C   UNL     1       1.412   7.839  20.814  0.00  0.00    +0.000 A 
ATOM      9  C   UNL     1       0.975   8.552  21.939  0.00  0.00    +0.000 A 
ATOM     10  C   UNL     1       0.560   9.899  21.862  0.00  0.00    +0.000 A 
ATOM     11  C   UNL     1       0.550  10.566  20.620  0.00  0.00    +0.000 A 
BRANCH   6  13
ATOM     12  C   UNL     1      -0.324   9.994  17.536  0.00  0.00    +0.000 C 
ATOM     13  O   UNL     1       0.862  10.380  18.235  0.00  0.00    +0.000 OA
ENDBRANCH   6  13
BRANCH  10  14
ATOM     14  O   UNL     1       0.174  10.381  23.091  0.00  0.00    +0.000 OA
ATOM     15  C   UNL     1      -1.207  10.607  23.343  0.00  0.00    +0.000 C 
ENDBRANCH  10  14
BRANCH  11  16
ATOM     16  O   UNL     1       0.151  11.875  20.623  0.00  0.00    +0.000 OA
ATOM     17  C   UNL     1      -1.136  12.246  20.160  0.00  0.00    +0.000 C 
ENDBRANCH  11  16
ENDBRANCH   5   8
ENDBRANCH   3   5
ENDBRANCH   1   3
BRANCH   1  18
ATOM     18  S   UNL     1       2.738   3.339  20.403  0.00  0.00    +0.000 S 
BRANCH  18  19
ATOM     19  C   UNL     1       4.028   2.460  19.492  0.00  0.00    +0.000 C 
BRANCH  19  20
ATOM     20  C   UNL     1       4.985   3.373  18.744  0.00  0.00    +0.000 A 
ATOM     21  N   UNL     1       5.834   4.152  19.346  0.00  0.00    +0.000 NA
ATOM     22  C   UNL     1       6.530   4.979  18.526  0.00  0.00    +0.000 A 
ATOM     23  S   UNL     1       7.746   6.032  19.096  0.00  0.00    +0.000 S 
ATOM     24  C   UNL     1       7.623   6.994  17.679  0.00  0.00    +0.000 A 
ATOM     25  C   UNL     1       8.084   8.414  17.685  0.00  0.00    +0.000 C 
ATOM     26  C   UNL     1       7.025   6.279  16.660  0.00  0.00    +0.000 A 
ATOM     27  C   UNL     1       6.379   5.113  17.163  0.00  0.00    +0.000 A 
ATOM     28  C   UNL     1       5.520   4.164  16.496  0.00  0.00    +0.000 A 
ATOM     29  O   UNL     1       5.373   4.103  15.279  0.00  0.00    +0.000 OA
ATOM     30  N   UNL     1       4.848   3.327  17.363  0.00  0.00    +0.000 N 
ATOM     31  H   UNL     1       4.252   2.646  16.917  0.00  0.00    +0.000 HD
ENDBRANCH  19  20
ENDBRANCH  18  19
ENDBRANCH   1  18
TORSDOF 9
ENDMDL
MODEL 9
REMARK VINA RESULT:      -6.8      2.484      6.889
REMARK  Name = 
REMARK  13 active torsions:
REMARK  status: ('A' for Active; 'I' for Inactive)
REMARK    1  A    between atoms: C_1  and  O_2
REMARK    2  A    between atoms: O_2  and  C_3
REMARK    3  A    between atoms: C_5  and  C_6
REMARK    4  A    between atoms: C_6  and  N_7
REMARK    5  A    between atoms: N_7  and  C_8
REMARK    6  A    between atoms: C_8  and  S_10
REMARK    7  A    between atoms: S_10  and  C_11
REMARK    8  A    between atoms: C_11  and  C_12
REMARK    9  A    between atoms: C_16  and  C_17
REMARK   10  A    between atoms: C_24  and  O_25
REMARK   11  A    between atoms: O_25  and  C_26
REMARK   12  A    between atoms: C_27  and  O_28
REMARK   13  A    between atoms: O_28  and  C_29
REMARK                            x       y       z     vdW  Elec       q    Type
REMARK                         _______ _______ _______ _____ _____    ______ ____
ROOT
ATOM      1  C   UNL     1       2.400   2.691  19.306  0.00  0.00    +0.000 C 
ATOM      2  S   UNL     1       0.794   2.496  18.912  0.00  0.00    +0.000 S 
ENDROOT
BRANCH   1   3
ATOM      3  N   UNL     1       3.484   2.292  18.568  0.00  0.00    +0.000 N 
ATOM      4  H   UNL     1       4.134   1.695  19.065  0.00  0.00    +0.000 HD
BRANCH   3   5
ATOM      5  C   UNL     1       3.904   2.772  17.255  0.00  0.00    +0.000 C 
BRANCH   5   8
ATOM      6  C   UNL     1       6.445   5.404  18.402  0.00  0.00    +0.000 A 
ATOM      7  C   UNL     1       5.415   4.449  18.425  0.00  0.00    +0.000 A 
ATOM      8  C   UNL     1       4.899   3.905  17.256  0.00  0.00    +0.000 A 
ATOM      9  C   UNL     1       5.392   4.412  16.046  0.00  0.00    +0.000 A 
ATOM     10  C   UNL     1       6.369   5.430  15.998  0.00  0.00    +0.000 A 
ATOM     11  C   UNL     1       6.903   5.953  17.193  0.00  0.00    +0.000 A 
BRANCH   6  13
ATOM     12  C   UNL     1       8.332   5.338  19.767  0.00  0.00    +0.000 C 
ATOM     13  O   UNL     1       6.987   5.792  19.599  0.00  0.00    +0.000 OA
ENDBRANCH   6  13
BRANCH  10  14
ATOM     14  O   UNL     1       6.696   5.758  14.703  0.00  0.00    +0.000 OA
ATOM     15  C   UNL     1       6.959   4.718  13.771  0.00  0.00    +0.000 C 
ENDBRANCH  10  14
BRANCH  11  16
ATOM     16  O   UNL     1       7.836   6.948  17.072  0.00  0.00    +0.000 OA
ATOM     17  C   UNL     1       7.571   8.257  17.546  0.00  0.00    +0.000 C 
ENDBRANCH  11  16
ENDBRANCH   5   8
ENDBRANCH   3   5
ENDBRANCH   1   3
BRANCH   1  18
ATOM     18  S   UNL     1       2.975   3.606  20.693  0.00  0.00    +0.000 S 
BRANCH  18  19
ATOM     19  C   UNL     1       1.598   4.727  21.029  0.00  0.00    +0.000 C 
BRANCH  19  20
ATOM     20  C   UNL     1       1.767   6.111  20.423  0.00  0.00    +0.000 A 
ATOM     21  N   UNL     1       1.235   7.178  20.940  0.00  0.00    +0.000 NA
ATOM     22  C   UNL     1       1.395   8.308  20.205  0.00  0.00    +0.000 A 
ATOM     23  S   UNL     1       0.841   9.835  20.731  0.00  0.00    +0.000 S 
ATOM     24  C   UNL     1       0.888  10.441  19.124  0.00  0.00    +0.000 A 
ATOM     25  C   UNL     1       0.064  11.625  18.738  0.00  0.00    +0.000 C 
ATOM     26  C   UNL     1       1.711   9.660  18.337  0.00  0.00    +0.000 A 
ATOM     27  C   UNL     1       1.991   8.414  18.968  0.00  0.00    +0.000 A 
ATOM     28  C   UNL     1       2.675   7.248  18.461  0.00  0.00    +0.000 A 
ATOM     29  O   UNL     1       3.333   7.229  17.424  0.00  0.00    +0.000 OA
ATOM     30  N   UNL     1       2.508   6.127  19.249  0.00  0.00    +0.000 N 
ATOM     31  H   UNL     1       2.990   5.303  18.920  0.00  0.00    +0.000 HD
ENDBRANCH  19  20
ENDBRANCH  18  19
ENDBRANCH   1  18
TORSDOF 9
ENDMDL
