MODEL 1
REMARK VINA RESULT:      -7.5      0.000      0.000
REMARK  Name = 
REMARK  5 active torsions:
REMARK  status: ('A' for Active; 'I' for Inactive)
REMARK    1  A    between atoms: C_1  and  C_2
REMARK    2  A    between atoms: C_2  and  C_3
REMARK    3  A    between atoms: C_2  and  N_16
REMARK    4  A    between atoms: N_5  and  C_6
REMARK    5  A    between atoms: C_6  and  C_7
REMARK                            x       y       z     vdW  Elec       q    Type
REMARK                         _______ _______ _______ _____ _____    ______ ____
ROOT
ATOM      1  C   UNL     1       5.821   5.044  18.476  0.00  0.00    +0.000 C 
ATOM      2  O   UNL     1       5.776   4.082  19.243  0.00  0.00    +0.000 OA
ATOM      3  N   UNL     1       4.755   5.905  18.319  0.00  0.00    +0.000 N 
ATOM      4  H   UNL     1       4.795   6.638  17.613  0.00  0.00    +0.000 HD
ENDROOT
BRANCH   1   6
ATOM      5  C   UNL     1       7.445   6.826  17.679  0.00  0.00    +0.000 C 
ATOM      6  C   UNL     1       7.050   5.349  17.623  0.00  0.00    +0.000 C 
BRANCH   6   7
ATOM      7  N   UNL     1       6.812   4.925  16.248  0.00  0.00    +0.000 N 
ATOM      8  C   UNL     1       5.995   3.915  15.820  0.00  0.00    +0.000 A 
ATOM      9  C   UNL     1       6.121   3.875  14.453  0.00  0.00    +0.000 A 
ATOM     10  C   UNL     1       7.047   4.889  14.150  0.00  0.00    +0.000 A 
ATOM     11  N   UNL     1       7.492   5.516  15.242  0.00  0.00    +0.000 NA
ENDBRANCH   6   7
ENDBRANCH   1   6
BRANCH   3  12
ATOM     12  C   UNL     1       3.562   5.789  19.130  0.00  0.00    +0.000 C 
BRANCH  12  13
ATOM     13  C   UNL     1       2.713   7.030  19.046  0.00  0.00    +0.000 A 
ATOM     14  C   UNL     1       2.680   7.783  17.848  0.00  0.00    +0.000 A 
ATOM     15  C   UNL     1       1.938   8.965  17.758  0.00  0.00    +0.000 A 
ATOM     16  C   UNL     1       1.254   9.375  18.879  0.00  0.00    +0.000 A 
ATOM     17  C   UNL     1       1.277   8.650  20.048  0.00  0.00    +0.000 A 
ATOM     18  C   UNL     1       1.989   7.475  20.163  0.00  0.00    +0.000 A 
ATOM     19  O   UNL     1       0.548   9.236  21.036  0.00  0.00    +0.000 OA
ATOM     20  C   UNL     1       0.122  10.445  20.375  0.00  0.00    +0.000 C 
ATOM     21  O   UNL     1       0.509  10.508  18.987  0.00  0.00    +0.000 OA
ENDBRANCH  12  13
ENDBRANCH   3  12
TORSDOF 4
ENDMDL
MODEL 2
REMARK VINA RESULT:      -7.3      2.635      4.246
REMARK  Name = 
REMARK  5 active torsions:
REMARK  status: ('A' for Active; 'I' for Inactive)
REMARK    1  A    between atoms: C_1  and  C_2
REMARK    2  A    between atoms: C_2  and  C_3
REMARK    3  A    between atoms: C_2  and  N_16
REMARK    4  A    between atoms: N_5  and  C_6
REMARK    5  A    between atoms: C_6  and  C_7
REMARK                            x       y       z     vdW  Elec       q    Type
REMARK                         _______ _______ _______ _____ _____    ______ ____
ROOT
ATOM      1  C   UNL     1       4.366   4.240  18.507  0.00  0.00    +0.000 C 
ATOM      2  O   UNL     1       5.552   4.559  18.415  0.00  0.00    +0.000 OA
ATOM      3  N   UNL     1       3.346   5.137  18.268  0.00  0.00    +0.000 N 
ATOM      4  H   UNL     1       2.380   4.863  18.438  0.00  0.00    +0.000 HD
ENDROOT
BRANCH   1   6
ATOM      5  C   UNL     1       3.551   1.971  17.710  0.00  0.00    +0.000 C 
ATOM      6  C   UNL     1       3.930   2.834  18.915  0.00  0.00    +0.000 C 
BRANCH   6   7
ATOM      7  N   UNL     1       2.826   2.917  19.864  0.00  0.00    +0.000 N 
ATOM      8  C   UNL     1       2.874   2.707  21.214  0.00  0.00    +0.000 A 
ATOM      9  C   UNL     1       1.588   2.868  21.672  0.00  0.00    +0.000 A 
ATOM     10  C   UNL     1       0.834   3.159  20.522  0.00  0.00    +0.000 A 
ATOM     11  N   UNL     1       1.577   3.165  19.412  0.00  0.00    +0.000 NA
ENDBRANCH   6   7
ENDBRANCH   1   6
BRANCH   3  12
ATOM     12  C   UNL     1       3.612   6.475  17.787  0.00  0.00    +0.000 C 
BRANCH  12  13
ATOM     13  C   UNL     1       2.685   7.484  18.413  0.00  0.00    +0.000 A 
ATOM     14  C   UNL     1       2.266   8.613  17.671  0.00  0.00    +0.000 A 
ATOM     15  C   UNL     1       1.445   9.590  18.243  0.00  0.00    +0.000 A 
ATOM     16  C   UNL     1       1.071   9.419  19.557  0.00  0.00    +0.000 A 
ATOM     17  C   UNL     1       1.471   8.324  20.287  0.00  0.00    +0.000 A 
ATOM     18  C   UNL     1       2.271   7.339  19.746  0.00  0.00    +0.000 A 
ATOM     19  O   UNL     1       1.006   8.355  21.565  0.00  0.00    +0.000 OA
ATOM     20  C   UNL     1       0.327   9.628  21.573  0.00  0.00    +0.000 C 
ATOM     21  O   UNL     1       0.306  10.276  20.284  0.00  0.00    +0.000 OA
ENDBRANCH  12  13
ENDBRANCH   3  12
TORSDOF 4
ENDMDL
MODEL 3
REMARK VINA RESULT:      -7.2      2.638      3.855
REMARK  Name = 
REMARK  5 active torsions:
REMARK  status: ('A' for Active; 'I' for Inactive)
REMARK    1  A    between atoms: C_1  and  C_2
REMARK    2  A    between atoms: C_2  and  C_3
REMARK    3  A    between atoms: C_2  and  N_16
REMARK    4  A    between atoms: N_5  and  C_6
REMARK    5  A    between atoms: C_6  and  C_7
REMARK                            x       y       z     vdW  Elec       q    Type
REMARK                         _______ _______ _______ _____ _____    ______ ____
ROOT
ATOM      1  C   UNL     1       5.535   6.170  18.220  0.00  0.00    +0.000 C 
ATOM      2  O   UNL     1       5.279   5.780  19.359  0.00  0.00    +0.000 OA
ATOM      3  N   UNL     1       4.619   6.871  17.463  0.00  0.00    +0.000 N 
ATOM      4  H   UNL     1       4.833   7.102  16.495  0.00  0.00    +0.000 HD
ENDROOT
BRANCH   1   6
ATOM      5  C   UNL     1       7.705   7.164  17.352  0.00  0.00    +0.000 C 
ATOM      6  C   UNL     1       6.877   5.892  17.546  0.00  0.00    +0.000 C 
BRANCH   6   7
ATOM      7  N   UNL     1       6.657   5.215  16.274  0.00  0.00    +0.000 N 
ATOM      8  C   UNL     1       5.857   4.131  16.037  0.00  0.00    +0.000 A 
ATOM      9  C   UNL     1       5.996   3.837  14.702  0.00  0.00    +0.000 A 
ATOM     10  C   UNL     1       6.913   4.788  14.221  0.00  0.00    +0.000 A 
ATOM     11  N   UNL     1       7.340   5.616  15.179  0.00  0.00    +0.000 NA
ENDBRANCH   6   7
ENDBRANCH   1   6
BRANCH   3  12
ATOM     12  C   UNL     1       3.344   7.282  18.008  0.00  0.00    +0.000 C 
BRANCH  12  13
ATOM     13  C   UNL     1       2.589   6.116  18.591  0.00  0.00    +0.000 A 
ATOM     14  C   UNL     1       2.196   6.139  19.950  0.00  0.00    +0.000 A 
ATOM     15  C   UNL     1       1.536   5.050  20.530  0.00  0.00    +0.000 A 
ATOM     16  C   UNL     1       1.297   3.953  19.735  0.00  0.00    +0.000 A 
ATOM     17  C   UNL     1       1.673   3.920  18.412  0.00  0.00    +0.000 A 
ATOM     18  C   UNL     1       2.314   4.983  17.810  0.00  0.00    +0.000 A 
ATOM     19  O   UNL     1       1.357   2.741  17.812  0.00  0.00    +0.000 OA
ATOM     20  C   UNL     1       0.803   2.013  18.927  0.00  0.00    +0.000 C 
ATOM     21  O   UNL     1       0.699   2.797  20.132  0.00  0.00    +0.000 OA
ENDBRANCH  12  13
ENDBRANCH   3  12
TORSDOF 4
ENDMDL
MODEL 4
REMARK VINA RESULT:      -7.0      1.269      2.278
REMARK  Name = 
REMARK  5 active torsions:
REMARK  status: ('A' for Active; 'I' for Inactive)
REMARK    1  A    between atoms: C_1  and  C_2
REMARK    2  A    between atoms: C_2  and  C_3
REMARK    3  A    between atoms: C_2  and  N_16
REMARK    4  A    between atoms: N_5  and  C_6
REMARK    5  A    between atoms: C_6  and  C_7
REMARK                            x       y       z     vdW  Elec       q    Type
REMARK                         _______ _______ _______ _____ _____    ______ ____
ROOT
ATOM      1  C   UNL     1       4.323   5.063  17.125  0.00  0.00    +0.000 C 
ATOM      2  O   UNL     1       3.635   4.045  17.047  0.00  0.00    +0.000 OA
ATOM      3  N   UNL     1       3.985   6.115  17.950  0.00  0.00    +0.000 N 
ATOM      4  H   UNL     1       4.529   6.975  17.925  0.00  0.00    +0.000 HD
ENDROOT
BRANCH   1   6
ATOM      5  C   UNL     1       6.195   3.919  15.845  0.00  0.00    +0.000 C 
ATOM      6  C   UNL     1       5.595   5.251  16.299  0.00  0.00    +0.000 C 
BRANCH   6   7
ATOM      7  N   UNL     1       6.566   6.026  17.062  0.00  0.00    +0.000 N 
ATOM      8  C   UNL     1       7.306   5.607  18.134  0.00  0.00    +0.000 A 
ATOM      9  C   UNL     1       8.051   6.691  18.531  0.00  0.00    +0.000 A 
ATOM     10  C   UNL     1       7.682   7.721  17.648  0.00  0.00    +0.000 A 
ATOM     11  N   UNL     1       6.758   7.330  16.766  0.00  0.00    +0.000 NA
ENDBRANCH   6   7
ENDBRANCH   1   6
BRANCH   3  12
ATOM     12  C   UNL     1       2.858   6.035  18.854  0.00  0.00    +0.000 C 
BRANCH  12  13
ATOM     13  C   UNL     1       2.194   7.375  19.031  0.00  0.00    +0.000 A 
ATOM     14  C   UNL     1       2.064   8.250  17.927  0.00  0.00    +0.000 A 
ATOM     15  C   UNL     1       1.495   9.519  18.072  0.00  0.00    +0.000 A 
ATOM     16  C   UNL     1       1.080   9.890  19.331  0.00  0.00    +0.000 A 
ATOM     17  C   UNL     1       1.199   9.048  20.412  0.00  0.00    +0.000 A 
ATOM     18  C   UNL     1       1.745   7.786  20.296  0.00  0.00    +0.000 A 
ATOM     19  O   UNL     1       0.743   9.612  21.562  0.00  0.00    +0.000 OA
ATOM     20  C   UNL     1       0.388  10.929  21.093  0.00  0.00    +0.000 C 
ATOM     21  O   UNL     1       0.535  11.091  19.667  0.00  0.00    +0.000 OA
ENDBRANCH  12  13
ENDBRANCH   3  12
TORSDOF 4
ENDMDL
MODEL 5
REMARK VINA RESULT:      -6.9      2.776      3.760
REMARK  Name = 
REMARK  5 active torsions:
REMARK  status: ('A' for Active; 'I' for Inactive)
REMARK    1  A    between atoms: C_1  and  C_2
REMARK    2  A    between atoms: C_2  and  C_3
REMARK    3  A    between atoms: C_2  and  N_16
REMARK    4  A    between atoms: N_5  and  C_6
REMARK    5  A    between atoms: C_6  and  C_7
REMARK                            x       y       z     vdW  Elec       q    Type
REMARK                         _______ _______ _______ _____ _____    ______ ____
ROOT
ATOM      1  C   UNL     1       5.684   6.053  18.136  0.00  0.00    +0.000 C 
ATOM      2  O   UNL     1       5.578   5.562  19.260  0.00  0.00    +0.000 OA
ATOM      3  N   UNL     1       4.631   6.687  17.511  0.00  0.00    +0.000 N 
ATOM      4  H   UNL     1       4.729   7.005  16.549  0.00  0.00    +0.000 HD
ENDROOT
BRANCH   1   6
ATOM      5  C   UNL     1       7.564   7.366  17.045  0.00  0.00    +0.000 C 
ATOM      6  C   UNL     1       6.983   5.981  17.336  0.00  0.00    +0.000 C 
BRANCH   6   7
ATOM      7  N   UNL     1       6.758   5.241  16.099  0.00  0.00    +0.000 N 
ATOM      8  C   UNL     1       5.986   4.125  15.928  0.00  0.00    +0.000 A 
ATOM      9  C   UNL     1       6.108   3.775  14.605  0.00  0.00    +0.000 A 
ATOM     10  C   UNL     1       6.985   4.731  14.063  0.00  0.00    +0.000 A 
ATOM     11  N   UNL     1       7.406   5.612  14.974  0.00  0.00    +0.000 NA
ENDBRANCH   6   7
ENDBRANCH   1   6
BRANCH   3  12
ATOM     12  C   UNL     1       3.371   6.908  18.188  0.00  0.00    +0.000 C 
BRANCH  12  13
ATOM     13  C   UNL     1       2.788   5.619  18.706  0.00  0.00    +0.000 A 
ATOM     14  C   UNL     1       2.193   4.702  17.806  0.00  0.00    +0.000 A 
ATOM     15  C   UNL     1       1.601   3.521  18.263  0.00  0.00    +0.000 A 
ATOM     16  C   UNL     1       1.607   3.290  19.620  0.00  0.00    +0.000 A 
ATOM     17  C   UNL     1       2.183   4.172  20.504  0.00  0.00    +0.000 A 
ATOM     18  C   UNL     1       2.785   5.339  20.081  0.00  0.00    +0.000 A 
ATOM     19  O   UNL     1       2.066   3.763  21.796  0.00  0.00    +0.000 OA
ATOM     20  C   UNL     1       1.291   2.559  21.627  0.00  0.00    +0.000 C 
ATOM     21  O   UNL     1       1.054   2.216  20.246  0.00  0.00    +0.000 OA
ENDBRANCH  12  13
ENDBRANCH   3  12
TORSDOF 4
ENDMDL
MODEL 6
REMARK VINA RESULT:      -6.9      2.688      4.438
REMARK  Name = 
REMARK  5 active torsions:
REMARK  status: ('A' for Active; 'I' for Inactive)
REMARK    1  A    between atoms: C_1  and  C_2
REMARK    2  A    between atoms: C_2  and  C_3
REMARK    3  A    between atoms: C_2  and  N_16
REMARK    4  A    between atoms: N_5  and  C_6
REMARK    5  A    between atoms: C_6  and  C_7
REMARK                            x       y       z     vdW  Elec       q    Type
REMARK                         _______ _______ _______ _____ _____    ______ ____
ROOT
ATOM      1  C   UNL     1       4.165   4.342  18.319  0.00  0.00    +0.000 C 
ATOM      2  O   UNL     1       5.297   4.653  17.947  0.00  0.00    +0.000 OA
ATOM      3  N   UNL     1       3.138   5.260  18.386  0.00  0.00    +0.000 N 
ATOM      4  H   UNL     1       2.240   4.989  18.780  0.00  0.00    +0.000 HD
ENDROOT
BRANCH   1   6
ATOM      5  C   UNL     1       3.391   2.039  17.580  0.00  0.00    +0.000 C 
ATOM      6  C   UNL     1       3.814   2.922  18.756  0.00  0.00    +0.000 C 
BRANCH   6   7
ATOM      7  N   UNL     1       2.771   2.965  19.775  0.00  0.00    +0.000 N 
ATOM      8  C   UNL     1       2.924   2.816  21.126  0.00  0.00    +0.000 A 
ATOM      9  C   UNL     1       1.663   2.902  21.665  0.00  0.00    +0.000 A 
ATOM     10  C   UNL     1       0.814   3.090  20.560  0.00  0.00    +0.000 A 
ATOM     11  N   UNL     1       1.480   3.102  19.402  0.00  0.00    +0.000 NA
ENDBRANCH   6   7
ENDBRANCH   1   6
BRANCH   3  12
ATOM     12  C   UNL     1       3.307   6.619  17.917  0.00  0.00    +0.000 C 
BRANCH  12  13
ATOM     13  C   UNL     1       2.475   7.588  18.716  0.00  0.00    +0.000 A 
ATOM     14  C   UNL     1       2.150   7.295  20.062  0.00  0.00    +0.000 A 
ATOM     15  C   UNL     1       1.339   8.153  20.812  0.00  0.00    +0.000 A 
ATOM     16  C   UNL     1       0.860   9.283  20.190  0.00  0.00    +0.000 A 
ATOM     17  C   UNL     1       1.171   9.579  18.883  0.00  0.00    +0.000 A 
ATOM     18  C   UNL     1       1.977   8.758  18.122  0.00  0.00    +0.000 A 
ATOM     19  O   UNL     1       0.584  10.729  18.458  0.00  0.00    +0.000 OA
ATOM     20  C   UNL     1      -0.185  11.086  19.625  0.00  0.00    +0.000 C 
ATOM     21  O   UNL     1       0.037  10.211  20.750  0.00  0.00    +0.000 OA
ENDBRANCH  12  13
ENDBRANCH   3  12
TORSDOF 4
ENDMDL
MODEL 7
REMARK VINA RESULT:      -6.9      2.670      4.413
REMARK  Name = 
REMARK  5 active torsions:
REMARK  status: ('A' for Active; 'I' for Inactive)
REMARK    1  A    between atoms: C_1  and  C_2
REMARK    2  A    between atoms: C_2  and  C_3
REMARK    3  A    between atoms: C_2  and  N_16
REMARK    4  A    between atoms: N_5  and  C_6
REMARK    5  A    between atoms: C_6  and  C_7
REMARK                            x       y       z     vdW  Elec       q    Type
REMARK                         _______ _______ _______ _____ _____    ______ ____
ROOT
ATOM      1  C   UNL     1       3.652   3.928  17.906  0.00  0.00    +0.000 C 
ATOM      2  O   UNL     1       3.230   3.797  16.757  0.00  0.00    +0.000 OA
ATOM      3  N   UNL     1       4.050   5.150  18.405  0.00  0.00    +0.000 N 
ATOM      4  H   UNL     1       4.475   5.207  19.329  0.00  0.00    +0.000 HD
ENDROOT
BRANCH   1   6
ATOM      5  C   UNL     1       3.722   1.400  18.136  0.00  0.00    +0.000 C 
ATOM      6  C   UNL     1       3.790   2.745  18.862  0.00  0.00    +0.000 C 
BRANCH   6   7
ATOM      7  N   UNL     1       2.768   2.829  19.899  0.00  0.00    +0.000 N 
ATOM      8  C   UNL     1       1.447   3.144  19.738  0.00  0.00    +0.000 A 
ATOM      9  C   UNL     1       0.894   3.126  20.996  0.00  0.00    +0.000 A 
ATOM     10  C   UNL     1       1.963   2.804  21.851  0.00  0.00    +0.000 A 
ATOM     11  N   UNL     1       3.114   2.647  21.192  0.00  0.00    +0.000 NA
ENDBRANCH   6   7
ENDBRANCH   1   6
BRANCH   3  12
ATOM     12  C   UNL     1       3.889   6.368  17.641  0.00  0.00    +0.000 C 
BRANCH  12  13
ATOM     13  C   UNL     1       2.918   7.312  18.301  0.00  0.00    +0.000 A 
ATOM     14  C   UNL     1       2.501   8.483  17.624  0.00  0.00    +0.000 A 
ATOM     15  C   UNL     1       1.639   9.400  18.231  0.00  0.00    +0.000 A 
ATOM     16  C   UNL     1       1.222   9.130  19.515  0.00  0.00    +0.000 A 
ATOM     17  C   UNL     1       1.620   7.995  20.182  0.00  0.00    +0.000 A 
ATOM     18  C   UNL     1       2.460   7.066  19.604  0.00  0.00    +0.000 A 
ATOM     19  O   UNL     1       1.108   7.927  21.441  0.00  0.00    +0.000 OA
ATOM     20  C   UNL     1       0.401   9.182  21.512  0.00  0.00    +0.000 C 
ATOM     21  O   UNL     1       0.412   9.919  20.272  0.00  0.00    +0.000 OA
ENDBRANCH  12  13
ENDBRANCH   3  12
TORSDOF 4
ENDMDL
MODEL 8
REMARK VINA RESULT:      -6.9      2.985      4.456
REMARK  Name = 
REMARK  5 active torsions:
REMARK  status: ('A' for Active; 'I' for Inactive)
REMARK    1  A    between atoms: C_1  and  C_2
REMARK    2  A    between atoms: C_2  and  C_3
REMARK    3  A    between atoms: C_2  and  N_16
REMARK    4  A    between atoms: N_5  and  C_6
REMARK    5  A    between atoms: C_6  and  C_7
REMARK                            x       y       z     vdW  Elec       q    Type
REMARK                         _______ _______ _______ _____ _____    ______ ____
ROOT
ATOM      1  C   UNL     1       5.375   6.585  16.104  0.00  0.00    +0.000 C 
ATOM      2  O   UNL     1       4.760   6.996  15.120  0.00  0.00    +0.000 OA
ATOM      3  N   UNL     1       4.856   6.664  17.379  0.00  0.00    +0.000 N 
ATOM      4  H   UNL     1       5.427   6.394  18.177  0.00  0.00    +0.000 HD
ENDROOT
BRANCH   1   6
ATOM      5  C   UNL     1       6.746   4.579  15.364  0.00  0.00    +0.000 C 
ATOM      6  C   UNL     1       6.771   5.974  15.994  0.00  0.00    +0.000 C 
BRANCH   6   7
ATOM      7  N   UNL     1       7.398   5.939  17.310  0.00  0.00    +0.000 N 
ATOM      8  C   UNL     1       7.671   4.836  18.071  0.00  0.00    +0.000 A 
ATOM      9  C   UNL     1       8.233   5.304  19.234  0.00  0.00    +0.000 A 
ATOM     10  C   UNL     1       8.243   6.702  19.088  0.00  0.00    +0.000 A 
ATOM     11  N   UNL     1       7.711   7.098  17.928  0.00  0.00    +0.000 NA
ENDBRANCH   6   7
ENDBRANCH   1   6
BRANCH   3  12
ATOM     12  C   UNL     1       3.510   7.137  17.619  0.00  0.00    +0.000 C 
BRANCH  12  13
ATOM     13  C   UNL     1       2.698   6.129  18.390  0.00  0.00    +0.000 A 
ATOM     14  C   UNL     1       2.416   6.348  19.759  0.00  0.00    +0.000 A 
ATOM     15  C   UNL     1       1.707   5.406  20.511  0.00  0.00    +0.000 A 
ATOM     16  C   UNL     1       1.306   4.254  19.874  0.00  0.00    +0.000 A 
ATOM     17  C   UNL     1       1.573   4.030  18.544  0.00  0.00    +0.000 A 
ATOM     18  C   UNL     1       2.260   4.946  17.774  0.00  0.00    +0.000 A 
ATOM     19  O   UNL     1       1.104   2.828  18.116  0.00  0.00    +0.000 OA
ATOM     20  C   UNL     1       0.574   2.293  19.346  0.00  0.00    +0.000 C 
ATOM     21  O   UNL     1       0.637   3.218  20.450  0.00  0.00    +0.000 OA
ENDBRANCH  12  13
ENDBRANCH   3  12
TORSDOF 4
ENDMDL
MODEL 9
REMARK VINA RESULT:      -6.9      1.115      1.772
REMARK  Name = 
REMARK  5 active torsions:
REMARK  status: ('A' for Active; 'I' for Inactive)
REMARK    1  A    between atoms: C_1  and  C_2
REMARK    2  A    between atoms: C_2  and  C_3
REMARK    3  A    between atoms: C_2  and  N_16
REMARK    4  A    between atoms: N_5  and  C_6
REMARK    5  A    between atoms: C_6  and  C_7
REMARK                            x       y       z     vdW  Elec       q    Type
REMARK                         _______ _______ _______ _____ _____    ______ ____
ROOT
ATOM      1  C   UNL     1       5.282   4.319  18.943  0.00  0.00    +0.000 C 
ATOM      2  O   UNL     1       5.103   3.311  19.627  0.00  0.00    +0.000 OA
ATOM      3  N   UNL     1       4.349   5.332  18.872  0.00  0.00    +0.000 N 
ATOM      4  H   UNL     1       4.491   6.109  18.231  0.00  0.00    +0.000 HD
ENDROOT
BRANCH   1   6
ATOM      5  C   UNL     1       7.402   5.678  18.610  0.00  0.00    +0.000 C 
ATOM      6  C   UNL     1       6.541   4.519  18.102  0.00  0.00    +0.000 C 
BRANCH   6   7
ATOM      7  N   UNL     1       6.173   4.717  16.705  0.00  0.00    +0.000 N 
ATOM      8  C   UNL     1       6.208   3.793  15.698  0.00  0.00    +0.000 A 
ATOM      9  C   UNL     1       5.802   4.450  14.561  0.00  0.00    +0.000 A 
ATOM     10  C   UNL     1       5.559   5.769  14.980  0.00  0.00    +0.000 A 
ATOM     11  N   UNL     1       5.808   5.946  16.281  0.00  0.00    +0.000 NA
ENDBRANCH   6   7
ENDBRANCH   1   6
BRANCH   3  12
ATOM     12  C   UNL     1       3.153   5.317  19.687  0.00  0.00    +0.000 C 
BRANCH  12  13
ATOM     13  C   UNL     1       2.481   6.665  19.709  0.00  0.00    +0.000 A 
ATOM     14  C   UNL     1       1.759   7.074  20.856  0.00  0.00    +0.000 A 
ATOM     15  C   UNL     1       1.086   8.299  20.887  0.00  0.00    +0.000 A 
ATOM     16  C   UNL     1       1.139   9.084  19.757  0.00  0.00    +0.000 A 
ATOM     17  C   UNL     1       1.839   8.698  18.638  0.00  0.00    +0.000 A 
ATOM     18  C   UNL     1       2.522   7.501  18.583  0.00  0.00    +0.000 A 
ATOM     19  O   UNL     1       1.752   9.608  17.632  0.00  0.00    +0.000 OA
ATOM     20  C   UNL     1       0.861  10.577  18.223  0.00  0.00    +0.000 C 
ATOM     21  O   UNL     1       0.523  10.286  19.594  0.00  0.00    +0.000 OA
ENDBRANCH  12  13
ENDBRANCH   3  12
TORSDOF 4
ENDMDL
