MODEL 1
REMARK VINA RESULT:      -8.4      0.000      0.000
REMARK  Name = 
REMARK  11 active torsions:
REMARK  status: ('A' for Active; 'I' for Inactive)
REMARK    1  A    between atoms: C_2  and  C_3
REMARK    2  A    between atoms: C_3  and  C_4
REMARK    3  A    between atoms: C_4  and  C_5
REMARK    4  A    between atoms: C_4  and  C_12
REMARK    5  A    between atoms: C_5  and  C_6
REMARK    6  A    between atoms: N_14  and  CA_15
REMARK    7  A    between atoms: CA_15  and  CB_16
REMARK    8  A    between atoms: CA_15  and  C_23
REMARK    9  A    between atoms: CB_16  and  CG_17
REMARK   10  A    between atoms: C_23  and  OXT_25
REMARK   11  A    between atoms: N_26  and  O_27
REMARK                            x       y       z     vdW  Elec       q    Type
REMARK                         _______ _______ _______ _____ _____    ______ ____
ROOT
ATOM      1  C   UNK A   0       5.080   5.565  16.991  0.00  0.00    +0.000 C 
ATOM      2  O   UNK A   0       4.572   4.453  16.854  0.00  0.00    +0.000 OA
ATOM      3  N   PHE A   1       4.403   6.597  17.586  0.00  0.00    +0.000 N 
ATOM      4  H   PHE A   1       4.880   7.452  17.865  0.00  0.00    +0.000 HD
ENDROOT
BRANCH   1   5
ATOM      5  C   UNK A   0       6.479   5.888  16.508  0.00  0.00    +0.000 C 
BRANCH   5   6
ATOM      6  C   UNK A   0       7.280   6.469  17.689  0.00  0.00    +0.000 C 
BRANCH   6   8
ATOM      7  O   UNK A   0       8.109   4.307  18.386  0.00  0.00    +0.000 OA
ATOM      8  C   UNK A   0       7.799   5.455  18.684  0.00  0.00    +0.000 C 
ATOM      9  N   UNK A   0       7.869   5.975  19.961  0.00  0.00    +0.000 N 
ATOM     10  H   UNK A   0       7.919   6.976  20.122  0.00  0.00    +0.000 HD
BRANCH   9  11
ATOM     11  O   UNK A   0       8.484   5.165  20.938  0.00  0.00    +0.000 OA
ATOM     12  H   UNK A   0       8.901   5.826  21.524  0.00  0.00    +0.000 HD
ENDBRANCH   9  11
ENDBRANCH   6   8
ENDBRANCH   5   6
BRANCH   5  13
ATOM     13  C   UNK A   0       7.127   4.653  15.841  0.00  0.00    +0.000 C 
BRANCH  13  14
ATOM     14  C   UNK A   0       6.986   4.553  14.337  0.00  0.00    +0.000 A 
ATOM     15  C   UNK A   0       7.782   5.326  13.479  0.00  0.00    +0.000 A 
ATOM     16  C   UNK A   0       7.691   5.197  12.095  0.00  0.00    +0.000 A 
ATOM     17  C   UNK A   0       6.825   4.256  11.548  0.00  0.00    +0.000 A 
ATOM     18  C   UNK A   0       6.024   3.478  12.386  0.00  0.00    +0.000 A 
ATOM     19  C   UNK A   0       6.093   3.637  13.772  0.00  0.00    +0.000 A 
ENDBRANCH  13  14
ENDBRANCH   5  13
ENDBRANCH   1   5
BRANCH   3  20
ATOM     20  CA  PHE A   1       2.996   6.456  17.939  0.00  0.00    +0.000 C 
BRANCH  20  21
ATOM     21  C   PHE A   1       2.427   7.830  18.278  0.00  0.00    +0.000 C 
ATOM     22  O   PHE A   1       1.992   8.128  19.388  0.00  0.00    +0.000 OA
BRANCH  21  23
ATOM     23  OXT PHE A   1       2.496   8.726  17.269  0.00  0.00    +0.000 OA
ATOM     24  HXT PHE A   1       1.658   8.859  16.785  0.00  0.00    +0.000 HD
ENDBRANCH  21  23
ENDBRANCH  20  21
BRANCH  20  25
ATOM     25  CB  PHE A   1       2.884   5.495  19.110  0.00  0.00    +0.000 C 
BRANCH  25  26
ATOM     26  CG  PHE A   1       1.591   4.660  19.156  0.00  0.00    +0.000 C 
ATOM     27  CD1 PHE A   1       1.739   3.246  18.574  0.00  0.00    +0.000 C 
ATOM     28  CE1 PHE A   1       2.655   2.356  19.410  0.00  0.00    +0.000 C 
ATOM     29  CZ  PHE A   1       2.266   2.343  20.888  0.00  0.00    +0.000 C 
ATOM     30  CE2 PHE A   1       2.061   3.738  21.471  0.00  0.00    +0.000 C 
ATOM     31  CD2 PHE A   1       1.109   4.566  20.610  0.00  0.00    +0.000 C 
ENDBRANCH  25  26
ENDBRANCH  20  25
ENDBRANCH   3  20
TORSDOF 11
ENDMDL
MODEL 2
REMARK VINA RESULT:      -8.3      3.398      6.793
REMARK  Name = 
REMARK  11 active torsions:
REMARK  status: ('A' for Active; 'I' for Inactive)
REMARK    1  A    between atoms: C_2  and  C_3
REMARK    2  A    between atoms: C_3  and  C_4
REMARK    3  A    between atoms: C_4  and  C_5
REMARK    4  A    between atoms: C_4  and  C_12
REMARK    5  A    between atoms: C_5  and  C_6
REMARK    6  A    between atoms: N_14  and  CA_15
REMARK    7  A    between atoms: CA_15  and  CB_16
REMARK    8  A    between atoms: CA_15  and  C_23
REMARK    9  A    between atoms: CB_16  and  CG_17
REMARK   10  A    between atoms: C_23  and  OXT_25
REMARK   11  A    between atoms: N_26  and  O_27
REMARK                            x       y       z     vdW  Elec       q    Type
REMARK                         _______ _______ _______ _____ _____    ______ ____
ROOT
ATOM      1  C   UNK A   0       2.082   8.353  18.276  0.00  0.00    +0.000 C 
ATOM      2  O   UNK A   0       2.222   9.169  17.366  0.00  0.00    +0.000 OA
ATOM      3  N   PHE A   1       1.362   8.648  19.404  0.00  0.00    +0.000 N 
ATOM      4  H   PHE A   1       1.092   7.923  20.064  0.00  0.00    +0.000 HD
ENDROOT
BRANCH   1   5
ATOM      5  C   UNK A   0       2.700   6.971  18.234  0.00  0.00    +0.000 C 
BRANCH   5   6
ATOM      6  C   UNK A   0       4.133   7.095  17.681  0.00  0.00    +0.000 C 
BRANCH   6   8
ATOM      7  O   UNK A   0       4.730   5.148  16.377  0.00  0.00    +0.000 OA
ATOM      8  C   UNK A   0       4.844   5.786  17.418  0.00  0.00    +0.000 C 
ATOM      9  N   UNK A   0       5.623   5.398  18.489  0.00  0.00    +0.000 N 
ATOM     10  H   UNK A   0       5.948   6.070  19.177  0.00  0.00    +0.000 HD
BRANCH   9  11
ATOM     11  O   UNK A   0       6.450   4.273  18.292  0.00  0.00    +0.000 OA
ATOM     12  H   UNK A   0       5.910   3.550  18.666  0.00  0.00    +0.000 HD
ENDBRANCH   9  11
ENDBRANCH   6   8
ENDBRANCH   5   6
BRANCH   5  13
ATOM     13  C   UNK A   0       2.605   6.287  19.617  0.00  0.00    +0.000 C 
BRANCH  13  14
ATOM     14  C   UNK A   0       1.976   4.911  19.643  0.00  0.00    +0.000 A 
ATOM     15  C   UNK A   0       1.715   4.209  18.456  0.00  0.00    +0.000 A 
ATOM     16  C   UNK A   0       1.184   2.921  18.479  0.00  0.00    +0.000 A 
ATOM     17  C   UNK A   0       0.946   2.298  19.699  0.00  0.00    +0.000 A 
ATOM     18  C   UNK A   0       1.198   2.980  20.890  0.00  0.00    +0.000 A 
ATOM     19  C   UNK A   0       1.697   4.285  20.861  0.00  0.00    +0.000 A 
ENDBRANCH  13  14
ENDBRANCH   5  13
ENDBRANCH   1   5
BRANCH   3  20
ATOM     20  CA  PHE A   1       0.863   9.999  19.633  0.00  0.00    +0.000 C 
BRANCH  20  21
ATOM     21  C   PHE A   1       1.108  10.379  21.090  0.00  0.00    +0.000 C 
ATOM     22  O   PHE A   1       1.062  11.535  21.505  0.00  0.00    +0.000 OA
BRANCH  21  23
ATOM     23  OXT PHE A   1       1.322   9.328  21.911  0.00  0.00    +0.000 OA
ATOM     24  HXT PHE A   1       0.661   8.614  21.838  0.00  0.00    +0.000 HD
ENDBRANCH  21  23
ENDBRANCH  20  21
BRANCH  20  25
ATOM     25  CB  PHE A   1      -0.615  10.037  19.282  0.00  0.00    +0.000 C 
BRANCH  25  26
ATOM     26  CG  PHE A   1      -0.957  10.725  17.948  0.00  0.00    +0.000 C 
ATOM     27  CD1 PHE A   1      -1.855   9.888  17.025  0.00  0.00    +0.000 C 
ATOM     28  CE1 PHE A   1      -3.261   9.692  17.586  0.00  0.00    +0.000 C 
ATOM     29  CZ  PHE A   1      -3.914  11.010  18.000  0.00  0.00    +0.000 C 
ATOM     30  CE2 PHE A   1      -3.016  11.881  18.873  0.00  0.00    +0.000 C 
ATOM     31  CD2 PHE A   1      -1.638  12.069  18.241  0.00  0.00    +0.000 C 
ENDBRANCH  25  26
ENDBRANCH  20  25
ENDBRANCH   3  20
TORSDOF 11
ENDMDL
MODEL 3
REMARK VINA RESULT:      -8.2      3.440      6.878
REMARK  Name = 
REMARK  11 active torsions:
REMARK  status: ('A' for Active; 'I' for Inactive)
REMARK    1  A    between atoms: C_2  and  C_3
REMARK    2  A    between atoms: C_3  and  C_4
REMARK    3  A    between atoms: C_4  and  C_5
REMARK    4  A    between atoms: C_4  and  C_12
REMARK    5  A    between atoms: C_5  and  C_6
REMARK    6  A    between atoms: N_14  and  CA_15
REMARK    7  A    between atoms: CA_15  and  CB_16
REMARK    8  A    between atoms: CA_15  and  C_23
REMARK    9  A    between atoms: CB_16  and  CG_17
REMARK   10  A    between atoms: C_23  and  OXT_25
REMARK   11  A    between atoms: N_26  and  O_27
REMARK                            x       y       z     vdW  Elec       q    Type
REMARK                         _______ _______ _______ _____ _____    ______ ____
ROOT
ATOM      1  C   UNK A   0       2.022   8.393  18.363  0.00  0.00    +0.000 C 
ATOM      2  O   UNK A   0       2.147   9.155  17.405  0.00  0.00    +0.000 OA
ATOM      3  N   PHE A   1       1.332   8.760  19.489  0.00  0.00    +0.000 N 
ATOM      4  H   PHE A   1       1.071   8.077  20.196  0.00  0.00    +0.000 HD
ENDROOT
BRANCH   1   5
ATOM      5  C   UNK A   0       2.625   7.004  18.386  0.00  0.00    +0.000 C 
BRANCH   5   6
ATOM      6  C   UNK A   0       4.035   7.075  17.768  0.00  0.00    +0.000 C 
BRANCH   6   8
ATOM      7  O   UNK A   0       4.448   4.988  16.620  0.00  0.00    +0.000 OA
ATOM      8  C   UNK A   0       4.717   5.744  17.547  0.00  0.00    +0.000 C 
ATOM      9  N   UNK A   0       5.664   5.482  18.517  0.00  0.00    +0.000 N 
ATOM     10  H   UNK A   0       6.085   6.230  19.060  0.00  0.00    +0.000 HD
BRANCH   9  11
ATOM     11  O   UNK A   0       6.468   4.340  18.321  0.00  0.00    +0.000 OA
ATOM     12  H   UNK A   0       6.989   4.585  17.532  0.00  0.00    +0.000 HD
ENDBRANCH   9  11
ENDBRANCH   6   8
ENDBRANCH   5   6
BRANCH   5  13
ATOM     13  C   UNK A   0       2.581   6.411  19.813  0.00  0.00    +0.000 C 
BRANCH  13  14
ATOM     14  C   UNK A   0       2.108   4.978  19.929  0.00  0.00    +0.000 A 
ATOM     15  C   UNK A   0       2.099   4.313  21.164  0.00  0.00    +0.000 A 
ATOM     16  C   UNK A   0       1.615   3.012  21.283  0.00  0.00    +0.000 A 
ATOM     17  C   UNK A   0       1.091   2.370  20.166  0.00  0.00    +0.000 A 
ATOM     18  C   UNK A   0       1.093   3.014  18.928  0.00  0.00    +0.000 A 
ATOM     19  C   UNK A   0       1.612   4.306  18.807  0.00  0.00    +0.000 A 
ENDBRANCH  13  14
ENDBRANCH   5  13
ENDBRANCH   1   5
BRANCH   3  20
ATOM     20  CA  PHE A   1       0.853  10.127  19.654  0.00  0.00    +0.000 C 
BRANCH  20  21
ATOM     21  C   PHE A   1       1.129  10.584  21.082  0.00  0.00    +0.000 C 
ATOM     22  O   PHE A   1       1.235   9.811  22.032  0.00  0.00    +0.000 OA
BRANCH  21  23
ATOM     23  OXT PHE A   1       1.312  11.916  21.215  0.00  0.00    +0.000 OA
ATOM     24  HXT PHE A   1       0.992  12.288  22.058  0.00  0.00    +0.000 HD
ENDBRANCH  21  23
ENDBRANCH  20  21
BRANCH  20  25
ATOM     25  CB  PHE A   1      -0.632  10.162  19.328  0.00  0.00    +0.000 C 
BRANCH  25  26
ATOM     26  CG  PHE A   1      -0.994  10.800  17.974  0.00  0.00    +0.000 C 
ATOM     27  CD1 PHE A   1      -1.839   9.897  17.064  0.00  0.00    +0.000 C 
ATOM     28  CE1 PHE A   1      -3.239   9.644  17.616  0.00  0.00    +0.000 C 
ATOM     29  CZ  PHE A   1      -3.962  10.937  17.991  0.00  0.00    +0.000 C 
ATOM     30  CE2 PHE A   1      -3.118  11.873  18.851  0.00  0.00    +0.000 C 
ATOM     31  CD2 PHE A   1      -1.744  12.115  18.228  0.00  0.00    +0.000 C 
ENDBRANCH  25  26
ENDBRANCH  20  25
ENDBRANCH   3  20
TORSDOF 11
ENDMDL
MODEL 4
REMARK VINA RESULT:      -8.2      1.036      1.823
REMARK  Name = 
REMARK  11 active torsions:
REMARK  status: ('A' for Active; 'I' for Inactive)
REMARK    1  A    between atoms: C_2  and  C_3
REMARK    2  A    between atoms: C_3  and  C_4
REMARK    3  A    between atoms: C_4  and  C_5
REMARK    4  A    between atoms: C_4  and  C_12
REMARK    5  A    between atoms: C_5  and  C_6
REMARK    6  A    between atoms: N_14  and  CA_15
REMARK    7  A    between atoms: CA_15  and  CB_16
REMARK    8  A    between atoms: CA_15  and  C_23
REMARK    9  A    between atoms: CB_16  and  CG_17
REMARK   10  A    between atoms: C_23  and  OXT_25
REMARK   11  A    between atoms: N_26  and  O_27
REMARK                            x       y       z     vdW  Elec       q    Type
REMARK                         _______ _______ _______ _____ _____    ______ ____
ROOT
ATOM      1  C   UNK A   0       5.100   6.682  16.356  0.00  0.00    +0.000 C 
ATOM      2  O   UNK A   0       4.648   7.076  15.282  0.00  0.00    +0.000 OA
ATOM      3  N   PHE A   1       4.282   6.379  17.413  0.00  0.00    +0.000 N 
ATOM      4  H   PHE A   1       4.633   5.882  18.229  0.00  0.00    +0.000 HD
ENDROOT
BRANCH   1   5
ATOM      5  C   UNK A   0       6.584   6.512  16.605  0.00  0.00    +0.000 C 
BRANCH   5   6
ATOM      6  C   UNK A   0       6.887   6.938  18.054  0.00  0.00    +0.000 C 
BRANCH   6   8
ATOM      7  O   UNK A   0       6.481   4.836  19.177  0.00  0.00    +0.000 OA
ATOM      8  C   UNK A   0       7.205   5.811  19.011  0.00  0.00    +0.000 C 
ATOM      9  N   UNK A   0       8.396   6.020  19.677  0.00  0.00    +0.000 N 
ATOM     10  H   UNK A   0       9.109   6.639  19.303  0.00  0.00    +0.000 HD
BRANCH   9  11
ATOM     11  O   UNK A   0       8.865   4.959  20.479  0.00  0.00    +0.000 OA
ATOM     12  H   UNK A   0       8.730   4.185  19.899  0.00  0.00    +0.000 HD
ENDBRANCH   9  11
ENDBRANCH   6   8
ENDBRANCH   5   6
BRANCH   5  13
ATOM     13  C   UNK A   0       7.038   5.077  16.252  0.00  0.00    +0.000 C 
BRANCH  13  14
ATOM     14  C   UNK A   0       6.981   4.697  14.788  0.00  0.00    +0.000 A 
ATOM     15  C   UNK A   0       6.033   3.779  14.312  0.00  0.00    +0.000 A 
ATOM     16  C   UNK A   0       5.945   3.468  12.957  0.00  0.00    +0.000 A 
ATOM     17  C   UNK A   0       6.782   4.107  12.049  0.00  0.00    +0.000 A 
ATOM     18  C   UNK A   0       7.733   5.022  12.504  0.00  0.00    +0.000 A 
ATOM     19  C   UNK A   0       7.842   5.304  13.868  0.00  0.00    +0.000 A 
ENDBRANCH  13  14
ENDBRANCH   5  13
ENDBRANCH   1   5
BRANCH   3  20
ATOM     20  CA  PHE A   1       2.853   6.662  17.351  0.00  0.00    +0.000 C 
BRANCH  20  21
ATOM     21  C   PHE A   1       2.573   7.974  18.076  0.00  0.00    +0.000 C 
ATOM     22  O   PHE A   1       2.528   9.064  17.510  0.00  0.00    +0.000 OA
BRANCH  21  23
ATOM     23  OXT PHE A   1       2.314   7.837  19.394  0.00  0.00    +0.000 OA
ATOM     24  HXT PHE A   1       2.285   6.913  19.709  0.00  0.00    +0.000 HD
ENDBRANCH  21  23
ENDBRANCH  20  21
BRANCH  20  25
ATOM     25  CB  PHE A   1       2.101   5.499  17.979  0.00  0.00    +0.000 C 
BRANCH  25  26
ATOM     26  CG  PHE A   1       2.983   4.431  18.651  0.00  0.00    +0.000 C 
ATOM     27  CD1 PHE A   1       2.997   4.507  20.185  0.00  0.00    +0.000 C 
ATOM     28  CE1 PHE A   1       1.647   4.160  20.807  0.00  0.00    +0.000 C 
ATOM     29  CZ  PHE A   1       1.089   2.834  20.291  0.00  0.00    +0.000 C 
ATOM     30  CE2 PHE A   1       1.117   2.717  18.770  0.00  0.00    +0.000 C 
ATOM     31  CD2 PHE A   1       2.502   3.041  18.213  0.00  0.00    +0.000 C 
ENDBRANCH  25  26
ENDBRANCH  20  25
ENDBRANCH   3  20
TORSDOF 11
ENDMDL
MODEL 5
REMARK VINA RESULT:      -8.2      3.509      6.946
REMARK  Name = 
REMARK  11 active torsions:
REMARK  status: ('A' for Active; 'I' for Inactive)
REMARK    1  A    between atoms: C_2  and  C_3
REMARK    2  A    between atoms: C_3  and  C_4
REMARK    3  A    between atoms: C_4  and  C_5
REMARK    4  A    between atoms: C_4  and  C_12
REMARK    5  A    between atoms: C_5  and  C_6
REMARK    6  A    between atoms: N_14  and  CA_15
REMARK    7  A    between atoms: CA_15  and  CB_16
REMARK    8  A    between atoms: CA_15  and  C_23
REMARK    9  A    between atoms: CB_16  and  CG_17
REMARK   10  A    between atoms: C_23  and  OXT_25
REMARK   11  A    between atoms: N_26  and  O_27
REMARK                            x       y       z     vdW  Elec       q    Type
REMARK                         _______ _______ _______ _____ _____    ______ ____
ROOT
ATOM      1  C   UNK A   0       2.025   8.553  18.224  0.00  0.00    +0.000 C 
ATOM      2  O   UNK A   0       2.055   9.348  17.287  0.00  0.00    +0.000 OA
ATOM      3  N   PHE A   1       1.338   8.825  19.378  0.00  0.00    +0.000 N 
ATOM      4  H   PHE A   1       1.159   8.102  20.071  0.00  0.00    +0.000 HD
ENDROOT
BRANCH   1   5
ATOM      5  C   UNK A   0       2.750   7.223  18.190  0.00  0.00    +0.000 C 
BRANCH   5   6
ATOM      6  C   UNK A   0       4.186   7.464  17.688  0.00  0.00    +0.000 C 
BRANCH   6   8
ATOM      7  O   UNK A   0       4.898   5.179  17.350  0.00  0.00    +0.000 OA
ATOM      8  C   UNK A   0       4.807   6.321  16.915  0.00  0.00    +0.000 C 
ATOM      9  N   UNK A   0       5.263   6.724  15.676  0.00  0.00    +0.000 N 
ATOM     10  H   UNK A   0       4.899   7.557  15.224  0.00  0.00    +0.000 HD
BRANCH   9  11
ATOM     11  O   UNK A   0       5.720   5.707  14.812  0.00  0.00    +0.000 OA
ATOM     12  H   UNK A   0       5.613   4.905  15.360  0.00  0.00    +0.000 HD
ENDBRANCH   9  11
ENDBRANCH   6   8
ENDBRANCH   5   6
BRANCH   5  13
ATOM     13  C   UNK A   0       2.662   6.516  19.562  0.00  0.00    +0.000 C 
BRANCH  13  14
ATOM     14  C   UNK A   0       2.081   5.119  19.560  0.00  0.00    +0.000 A 
ATOM     15  C   UNK A   0       1.728   4.477  20.757  0.00  0.00    +0.000 A 
ATOM     16  C   UNK A   0       1.144   3.212  20.755  0.00  0.00    +0.000 A 
ATOM     17  C   UNK A   0       0.867   2.586  19.545  0.00  0.00    +0.000 A 
ATOM     18  C   UNK A   0       1.213   3.207  18.344  0.00  0.00    +0.000 A 
ATOM     19  C   UNK A   0       1.831   4.460  18.353  0.00  0.00    +0.000 A 
ENDBRANCH  13  14
ENDBRANCH   5  13
ENDBRANCH   1   5
BRANCH   3  20
ATOM     20  CA  PHE A   1       0.743  10.139  19.595  0.00  0.00    +0.000 C 
BRANCH  20  21
ATOM     21  C   PHE A   1       0.944  10.542  21.052  0.00  0.00    +0.000 C 
ATOM     22  O   PHE A   1       1.358  11.645  21.399  0.00  0.00    +0.000 OA
BRANCH  21  23
ATOM     23  OXT PHE A   1       0.568   9.601  21.946  0.00  0.00    +0.000 OA
ATOM     24  HXT PHE A   1       1.221   9.426  22.651  0.00  0.00    +0.000 HD
ENDBRANCH  21  23
ENDBRANCH  20  21
BRANCH  20  25
ATOM     25  CB  PHE A   1      -0.730  10.071  19.226  0.00  0.00    +0.000 C 
BRANCH  25  26
ATOM     26  CG  PHE A   1      -1.109  10.757  17.901  0.00  0.00    +0.000 C 
ATOM     27  CD1 PHE A   1      -1.975   9.890  16.975  0.00  0.00    +0.000 C 
ATOM     28  CE1 PHE A   1      -3.368   9.629  17.542  0.00  0.00    +0.000 C 
ATOM     29  CZ  PHE A   1      -4.075  10.915  17.971  0.00  0.00    +0.000 C 
ATOM     30  CE2 PHE A   1      -3.209  11.815  18.848  0.00  0.00    +0.000 C 
ATOM     31  CD2 PHE A   1      -1.844  12.067  18.210  0.00  0.00    +0.000 C 
ENDBRANCH  25  26
ENDBRANCH  20  25
ENDBRANCH   3  20
TORSDOF 11
ENDMDL
MODEL 6
REMARK VINA RESULT:      -8.2      3.440      6.772
REMARK  Name = 
REMARK  11 active torsions:
REMARK  status: ('A' for Active; 'I' for Inactive)
REMARK    1  A    between atoms: C_2  and  C_3
REMARK    2  A    between atoms: C_3  and  C_4
REMARK    3  A    between atoms: C_4  and  C_5
REMARK    4  A    between atoms: C_4  and  C_12
REMARK    5  A    between atoms: C_5  and  C_6
REMARK    6  A    between atoms: N_14  and  CA_15
REMARK    7  A    between atoms: CA_15  and  CB_16
REMARK    8  A    between atoms: CA_15  and  C_23
REMARK    9  A    between atoms: CB_16  and  CG_17
REMARK   10  A    between atoms: C_23  and  OXT_25
REMARK   11  A    between atoms: N_26  and  O_27
REMARK                            x       y       z     vdW  Elec       q    Type
REMARK                         _______ _______ _______ _____ _____    ______ ____
ROOT
ATOM      1  C   UNK A   0       2.200   8.490  18.173  0.00  0.00    +0.000 C 
ATOM      2  O   UNK A   0       2.200   9.328  17.273  0.00  0.00    +0.000 OA
ATOM      3  N   PHE A   1       1.496   8.680  19.334  0.00  0.00    +0.000 N 
ATOM      4  H   PHE A   1       1.345   7.919  19.992  0.00  0.00    +0.000 HD
ENDROOT
BRANCH   1   5
ATOM      5  C   UNK A   0       2.982   7.196  18.084  0.00  0.00    +0.000 C 
BRANCH   5   6
ATOM      6  C   UNK A   0       4.400   7.519  17.575  0.00  0.00    +0.000 C 
BRANCH   6   8
ATOM      7  O   UNK A   0       4.586   5.310  16.610  0.00  0.00    +0.000 OA
ATOM      8  C   UNK A   0       5.111   6.387  16.867  0.00  0.00    +0.000 C 
ATOM      9  N   UNK A   0       6.417   6.712  16.557  0.00  0.00    +0.000 N 
ATOM     10  H   UNK A   0       6.718   7.679  16.485  0.00  0.00    +0.000 HD
BRANCH   9  11
ATOM     11  O   UNK A   0       7.124   5.788  15.760  0.00  0.00    +0.000 OA
ATOM     12  H   UNK A   0       7.490   5.175  16.426  0.00  0.00    +0.000 HD
ENDBRANCH   9  11
ENDBRANCH   6   8
ENDBRANCH   5   6
BRANCH   5  13
ATOM     13  C   UNK A   0       2.944   6.439  19.432  0.00  0.00    +0.000 C 
BRANCH  13  14
ATOM     14  C   UNK A   0       2.165   5.142  19.449  0.00  0.00    +0.000 A 
ATOM     15  C   UNK A   0       1.887   4.445  18.264  0.00  0.00    +0.000 A 
ATOM     16  C   UNK A   0       1.216   3.224  18.282  0.00  0.00    +0.000 A 
ATOM     17  C   UNK A   0       0.848   2.661  19.499  0.00  0.00    +0.000 A 
ATOM     18  C   UNK A   0       1.114   3.340  20.689  0.00  0.00    +0.000 A 
ATOM     19  C   UNK A   0       1.755   4.581  20.663  0.00  0.00    +0.000 A 
ENDBRANCH  13  14
ENDBRANCH   5  13
ENDBRANCH   1   5
BRANCH   3  20
ATOM     20  CA  PHE A   1       0.843   9.955  19.606  0.00  0.00    +0.000 C 
BRANCH  20  21
ATOM     21  C   PHE A   1       0.966  10.271  21.093  0.00  0.00    +0.000 C 
ATOM     22  O   PHE A   1       0.941   9.412  21.971  0.00  0.00    +0.000 OA
BRANCH  21  23
ATOM     23  OXT PHE A   1       1.169  11.577  21.369  0.00  0.00    +0.000 OA
ATOM     24  HXT PHE A   1       1.324  12.139  20.587  0.00  0.00    +0.000 HD
ENDBRANCH  21  23
ENDBRANCH  20  21
BRANCH  20  25
ATOM     25  CB  PHE A   1      -0.609   9.860  19.168  0.00  0.00    +0.000 C 
BRANCH  25  26
ATOM     26  CG  PHE A   1      -0.959  10.623  17.878  0.00  0.00    +0.000 C 
ATOM     27  CD1 PHE A   1      -1.964   9.895  16.973  0.00  0.00    +0.000 C 
ATOM     28  CE1 PHE A   1      -3.353   9.786  17.598  0.00  0.00    +0.000 C 
ATOM     29  CZ  PHE A   1      -3.879  11.135  18.090  0.00  0.00    +0.000 C 
ATOM     30  CE2 PHE A   1      -2.873  11.899  18.946  0.00  0.00    +0.000 C 
ATOM     31  CD2 PHE A   1      -1.517  12.004  18.251  0.00  0.00    +0.000 C 
ENDBRANCH  25  26
ENDBRANCH  20  25
ENDBRANCH   3  20
TORSDOF 11
ENDMDL
MODEL 7
REMARK VINA RESULT:      -8.2      1.146      1.366
REMARK  Name = 
REMARK  11 active torsions:
REMARK  status: ('A' for Active; 'I' for Inactive)
REMARK    1  A    between atoms: C_2  and  C_3
REMARK    2  A    between atoms: C_3  and  C_4
REMARK    3  A    between atoms: C_4  and  C_5
REMARK    4  A    between atoms: C_4  and  C_12
REMARK    5  A    between atoms: C_5  and  C_6
REMARK    6  A    between atoms: N_14  and  CA_15
REMARK    7  A    between atoms: CA_15  and  CB_16
REMARK    8  A    between atoms: CA_15  and  C_23
REMARK    9  A    between atoms: CB_16  and  CG_17
REMARK   10  A    between atoms: C_23  and  OXT_25
REMARK   11  A    between atoms: N_26  and  O_27
REMARK                            x       y       z     vdW  Elec       q    Type
REMARK                         _______ _______ _______ _____ _____    ______ ____
ROOT
ATOM      1  C   UNK A   0       4.892   6.633  16.619  0.00  0.00    +0.000 C 
ATOM      2  O   UNK A   0       4.292   7.218  15.719  0.00  0.00    +0.000 OA
ATOM      3  N   PHE A   1       4.231   6.076  17.683  0.00  0.00    +0.000 N 
ATOM      4  H   PHE A   1       4.699   5.440  18.323  0.00  0.00    +0.000 HD
ENDROOT
BRANCH   1   5
ATOM      5  C   UNK A   0       6.400   6.491  16.637  0.00  0.00    +0.000 C 
BRANCH   5   6
ATOM      6  C   UNK A   0       6.916   6.949  18.015  0.00  0.00    +0.000 C 
BRANCH   6   8
ATOM      7  O   UNK A   0       6.422   4.852  19.114  0.00  0.00    +0.000 OA
ATOM      8  C   UNK A   0       7.134   5.846  19.027  0.00  0.00    +0.000 C 
ATOM      9  N   UNK A   0       8.220   6.102  19.842  0.00  0.00    +0.000 N 
ATOM     10  H   UNK A   0       8.958   6.736  19.554  0.00  0.00    +0.000 HD
BRANCH   9  11
ATOM     11  O   UNK A   0       8.607   5.067  20.719  0.00  0.00    +0.000 OA
ATOM     12  H   UNK A   0       7.787   4.905  21.224  0.00  0.00    +0.000 HD
ENDBRANCH   9  11
ENDBRANCH   6   8
ENDBRANCH   5   6
BRANCH   5  13
ATOM     13  C   UNK A   0       6.820   5.057  16.241  0.00  0.00    +0.000 C 
BRANCH  13  14
ATOM     14  C   UNK A   0       6.770   4.728  14.765  0.00  0.00    +0.000 A 
ATOM     15  C   UNK A   0       7.687   5.289  13.864  0.00  0.00    +0.000 A 
ATOM     16  C   UNK A   0       7.675   4.947  12.513  0.00  0.00    +0.000 A 
ATOM     17  C   UNK A   0       6.767   4.001  12.051  0.00  0.00    +0.000 A 
ATOM     18  C   UNK A   0       5.846   3.432  12.933  0.00  0.00    +0.000 A 
ATOM     19  C   UNK A   0       5.838   3.805  14.279  0.00  0.00    +0.000 A 
ENDBRANCH  13  14
ENDBRANCH   5  13
ENDBRANCH   1   5
BRANCH   3  20
ATOM     20  CA  PHE A   1       2.800   6.293  17.863  0.00  0.00    +0.000 C 
BRANCH  20  21
ATOM     21  C   PHE A   1       2.585   7.600  18.620  0.00  0.00    +0.000 C 
ATOM     22  O   PHE A   1       2.356   7.653  19.826  0.00  0.00    +0.000 OA
BRANCH  21  23
ATOM     23  OXT PHE A   1       2.729   8.710  17.865  0.00  0.00    +0.000 OA
ATOM     24  HXT PHE A   1       3.496   8.695  17.261  0.00  0.00    +0.000 HD
ENDBRANCH  21  23
ENDBRANCH  20  21
BRANCH  20  25
ATOM     25  CB  PHE A   1       2.221   5.105  18.613  0.00  0.00    +0.000 C 
BRANCH  25  26
ATOM     26  CG  PHE A   1       1.713   3.952  17.728  0.00  0.00    +0.000 C 
ATOM     27  CD1 PHE A   1       2.806   3.291  16.874  0.00  0.00    +0.000 C 
ATOM     28  CE1 PHE A   1       3.839   2.543  17.712  0.00  0.00    +0.000 C 
ATOM     29  CZ  PHE A   1       3.196   1.567  18.698  0.00  0.00    +0.000 C 
ATOM     30  CE2 PHE A   1       2.070   2.190  19.517  0.00  0.00    +0.000 C 
ATOM     31  CD2 PHE A   1       1.052   2.892  18.620  0.00  0.00    +0.000 C 
ENDBRANCH  25  26
ENDBRANCH  20  25
ENDBRANCH   3  20
TORSDOF 11
ENDMDL
MODEL 8
REMARK VINA RESULT:      -8.1      1.757      3.334
REMARK  Name = 
REMARK  11 active torsions:
REMARK  status: ('A' for Active; 'I' for Inactive)
REMARK    1  A    between atoms: C_2  and  C_3
REMARK    2  A    between atoms: C_3  and  C_4
REMARK    3  A    between atoms: C_4  and  C_5
REMARK    4  A    between atoms: C_4  and  C_12
REMARK    5  A    between atoms: C_5  and  C_6
REMARK    6  A    between atoms: N_14  and  CA_15
REMARK    7  A    between atoms: CA_15  and  CB_16
REMARK    8  A    between atoms: CA_15  and  C_23
REMARK    9  A    between atoms: CB_16  and  CG_17
REMARK   10  A    between atoms: C_23  and  OXT_25
REMARK   11  A    between atoms: N_26  and  O_27
REMARK                            x       y       z     vdW  Elec       q    Type
REMARK                         _______ _______ _______ _____ _____    ______ ____
ROOT
ATOM      1  C   UNK A   0       4.637   4.518  17.882  0.00  0.00    +0.000 C 
ATOM      2  O   UNK A   0       3.957   5.315  18.527  0.00  0.00    +0.000 OA
ATOM      3  N   PHE A   1       4.656   3.181  18.181  0.00  0.00    +0.000 N 
ATOM      4  H   PHE A   1       5.065   2.502  17.544  0.00  0.00    +0.000 HD
ENDROOT
BRANCH   1   5
ATOM      5  C   UNK A   0       5.512   4.944  16.722  0.00  0.00    +0.000 C 
BRANCH   5   6
ATOM      6  C   UNK A   0       6.665   5.805  17.272  0.00  0.00    +0.000 C 
BRANCH   6   8
ATOM      7  O   UNK A   0       8.346   4.152  17.812  0.00  0.00    +0.000 OA
ATOM      8  C   UNK A   0       7.640   5.085  18.178  0.00  0.00    +0.000 C 
ATOM      9  N   UNK A   0       7.628   5.598  19.460  0.00  0.00    +0.000 N 
ATOM     10  H   UNK A   0       7.295   6.538  19.650  0.00  0.00    +0.000 HD
BRANCH   9  11
ATOM     11  O   UNK A   0       8.607   5.104  20.346  0.00  0.00    +0.000 OA
ATOM     12  H   UNK A   0       8.460   4.139  20.303  0.00  0.00    +0.000 HD
ENDBRANCH   9  11
ENDBRANCH   6   8
ENDBRANCH   5   6
BRANCH   5  13
ATOM     13  C   UNK A   0       5.967   3.716  15.899  0.00  0.00    +0.000 C 
BRANCH  13  14
ATOM     14  C   UNK A   0       6.444   3.993  14.490  0.00  0.00    +0.000 A 
ATOM     15  C   UNK A   0       5.863   3.349  13.387  0.00  0.00    +0.000 A 
ATOM     16  C   UNK A   0       6.265   3.641  12.085  0.00  0.00    +0.000 A 
ATOM     17  C   UNK A   0       7.229   4.619  11.866  0.00  0.00    +0.000 A 
ATOM     18  C   UNK A   0       7.819   5.270  12.951  0.00  0.00    +0.000 A 
ATOM     19  C   UNK A   0       7.439   4.948  14.256  0.00  0.00    +0.000 A 
ENDBRANCH  13  14
ENDBRANCH   5  13
ENDBRANCH   1   5
BRANCH   3  20
ATOM     20  CA  PHE A   1       3.990   2.679  19.377  0.00  0.00    +0.000 C 
BRANCH  20  21
ATOM     21  C   PHE A   1       4.818   1.543  19.970  0.00  0.00    +0.000 C 
ATOM     22  O   PHE A   1       5.375   1.611  21.063  0.00  0.00    +0.000 OA
BRANCH  21  23
ATOM     23  OXT PHE A   1       4.842   0.421  19.218  0.00  0.00    +0.000 OA
ATOM     24  HXT PHE A   1       5.648  -0.120  19.320  0.00  0.00    +0.000 HD
ENDBRANCH  21  23
ENDBRANCH  20  21
BRANCH  20  25
ATOM     25  CB  PHE A   1       2.593   2.217  18.995  0.00  0.00    +0.000 C 
BRANCH  25  26
ATOM     26  CG  PHE A   1       1.543   2.292  20.119  0.00  0.00    +0.000 C 
ATOM     27  CD1 PHE A   1       2.106   2.766  21.467  0.00  0.00    +0.000 C 
ATOM     28  CE1 PHE A   1       2.564   4.222  21.438  0.00  0.00    +0.000 C 
ATOM     29  CZ  PHE A   1       1.490   5.162  20.889  0.00  0.00    +0.000 C 
ATOM     30  CE2 PHE A   1       0.880   4.680  19.576  0.00  0.00    +0.000 C 
ATOM     31  CD2 PHE A   1       0.410   3.230  19.681  0.00  0.00    +0.000 C 
ENDBRANCH  25  26
ENDBRANCH  20  25
ENDBRANCH   3  20
TORSDOF 11
ENDMDL
MODEL 9
REMARK VINA RESULT:      -8.1      1.910      3.342
REMARK  Name = 
REMARK  11 active torsions:
REMARK  status: ('A' for Active; 'I' for Inactive)
REMARK    1  A    between atoms: C_2  and  C_3
REMARK    2  A    between atoms: C_3  and  C_4
REMARK    3  A    between atoms: C_4  and  C_5
REMARK    4  A    between atoms: C_4  and  C_12
REMARK    5  A    between atoms: C_5  and  C_6
REMARK    6  A    between atoms: N_14  and  CA_15
REMARK    7  A    between atoms: CA_15  and  CB_16
REMARK    8  A    between atoms: CA_15  and  C_23
REMARK    9  A    between atoms: CB_16  and  CG_17
REMARK   10  A    between atoms: C_23  and  OXT_25
REMARK   11  A    between atoms: N_26  and  O_27
REMARK                            x       y       z     vdW  Elec       q    Type
REMARK                         _______ _______ _______ _____ _____    ______ ____
ROOT
ATOM      1  C   UNK A   0       4.949   4.321  17.933  0.00  0.00    +0.000 C 
ATOM      2  O   UNK A   0       4.340   5.194  18.550  0.00  0.00    +0.000 OA
ATOM      3  N   PHE A   1       4.849   2.997  18.271  0.00  0.00    +0.000 N 
ATOM      4  H   PHE A   1       5.198   2.266  17.656  0.00  0.00    +0.000 HD
ENDROOT
BRANCH   1   5
ATOM      5  C   UNK A   0       5.863   4.634  16.766  0.00  0.00    +0.000 C 
BRANCH   5   6
ATOM      6  C   UNK A   0       7.318   4.625  17.272  0.00  0.00    +0.000 C 
BRANCH   6   8
ATOM      7  O   UNK A   0       7.574   6.788  18.321  0.00  0.00    +0.000 OA
ATOM      8  C   UNK A   0       7.615   5.567  18.418  0.00  0.00    +0.000 C 
ATOM      9  N   UNK A   0       7.946   4.886  19.572  0.00  0.00    +0.000 N 
ATOM     10  H   UNK A   0       7.666   3.921  19.715  0.00  0.00    +0.000 HD
BRANCH   9  11
ATOM     11  O   UNK A   0       8.091   5.662  20.741  0.00  0.00    +0.000 OA
ATOM     12  H   UNK A   0       8.099   4.983  21.443  0.00  0.00    +0.000 HD
ENDBRANCH   9  11
ENDBRANCH   6   8
ENDBRANCH   5   6
BRANCH   5  13
ATOM     13  C   UNK A   0       5.591   3.674  15.585  0.00  0.00    +0.000 C 
BRANCH  13  14
ATOM     14  C   UNK A   0       6.210   4.054  14.257  0.00  0.00    +0.000 A 
ATOM     15  C   UNK A   0       7.219   5.026  14.177  0.00  0.00    +0.000 A 
ATOM     16  C   UNK A   0       7.826   5.340  12.963  0.00  0.00    +0.000 A 
ATOM     17  C   UNK A   0       7.460   4.650  11.812  0.00  0.00    +0.000 A 
ATOM     18  C   UNK A   0       6.457   3.681  11.872  0.00  0.00    +0.000 A 
ATOM     19  C   UNK A   0       5.825   3.395  13.085  0.00  0.00    +0.000 A 
ENDBRANCH  13  14
ENDBRANCH   5  13
ENDBRANCH   1   5
BRANCH   3  20
ATOM     20  CA  PHE A   1       4.136   2.591  19.476  0.00  0.00    +0.000 C 
BRANCH  20  21
ATOM     21  C   PHE A   1       4.929   1.494  20.179  0.00  0.00    +0.000 C 
ATOM     22  O   PHE A   1       5.408   1.619  21.303  0.00  0.00    +0.000 OA
BRANCH  21  23
ATOM     23  OXT PHE A   1       5.014   0.338  19.485  0.00  0.00    +0.000 OA
ATOM     24  HXT PHE A   1       5.378   0.430  18.584  0.00  0.00    +0.000 HD
ENDBRANCH  21  23
ENDBRANCH  20  21
BRANCH  20  25
ATOM     25  CB  PHE A   1       2.747   2.116  19.080  0.00  0.00    +0.000 C 
BRANCH  25  26
ATOM     26  CG  PHE A   1       1.662   2.282  20.160  0.00  0.00    +0.000 C 
ATOM     27  CD1 PHE A   1       2.183   2.858  21.486  0.00  0.00    +0.000 C 
ATOM     28  CE1 PHE A   1       2.650   4.305  21.359  0.00  0.00    +0.000 C 
ATOM     29  CZ  PHE A   1       1.600   5.203  20.704  0.00  0.00    +0.000 C 
ATOM     30  CE2 PHE A   1       1.031   4.622  19.413  0.00  0.00    +0.000 C 
ATOM     31  CD2 PHE A   1       0.549   3.186  19.614  0.00  0.00    +0.000 C 
ENDBRANCH  25  26
ENDBRANCH  20  25
ENDBRANCH   3  20
TORSDOF 11
ENDMDL
