MODEL 1
REMARK VINA RESULT:      -8.7      0.000      0.000
REMARK  Name = 
REMARK  2 active torsions:
REMARK  status: ('A' for Active; 'I' for Inactive)
REMARK    1  A    between atoms: C_1  and  O_2
REMARK    2  A    between atoms: O_2  and  C_3
REMARK                            x       y       z     vdW  Elec       q    Type
REMARK                         _______ _______ _______ _____ _____    ______ ____
ROOT
ATOM      1  C   UNL     1       7.484   6.702  18.073  0.00  0.00    +0.000 C 
ATOM      2  C   UNL     1       6.984   6.761  16.826  0.00  0.00    +0.000 C 
ATOM      3  C   UNL     1       5.911   5.891  16.315  0.00  0.00    +0.000 C 
ATOM      4  O   UNL     1       5.736   5.816  15.097  0.00  0.00    +0.000 OA
ATOM      5  C   UNL     1       5.076   5.147  17.361  0.00  0.00    +0.000 C 
ATOM      6  C   UNL     1       5.857   4.694  18.620  0.00  0.00    +0.000 C 
ATOM      7  C   UNL     1       7.015   5.637  19.069  0.00  0.00    +0.000 C 
ATOM      8  O   UNL     1       7.570   5.551  20.174  0.00  0.00    +0.000 OA
ATOM      9  C   UNL     1       4.524   4.849  19.406  0.00  0.00    +0.000 C 
ATOM     10  C   UNL     1       3.331   3.838  19.249  0.00  0.00    +0.000 A 
ATOM     11  C   UNL     1       3.221   2.487  19.557  0.00  0.00    +0.000 A 
ATOM     12  C   UNL     1       2.048   1.802  19.223  0.00  0.00    +0.000 A 
ATOM     13  C   UNL     1       0.976   2.465  18.605  0.00  0.00    +0.000 A 
ATOM     14  C   UNL     1       1.076   3.814  18.279  0.00  0.00    +0.000 A 
ATOM     15  C   UNL     1       2.263   4.467  18.570  0.00  0.00    +0.000 A 
ATOM     16  C   UNL     1       2.619   5.882  18.178  0.00  0.00    +0.000 C 
ATOM     17  C   UNL     1       4.151   5.961  18.354  0.00  0.00    +0.000 C 
ENDROOT
BRANCH   1  19
ATOM     18  C   UNL     1       8.373   8.934  18.182  0.00  0.00    +0.000 C 
ATOM     19  O   UNL     1       8.438   7.574  18.572  0.00  0.00    +0.000 OA
ENDBRANCH   1  19
TORSDOF 1
ENDMDL
MODEL 2
REMARK VINA RESULT:      -8.2      1.496      3.229
REMARK  Name = 
REMARK  2 active torsions:
REMARK  status: ('A' for Active; 'I' for Inactive)
REMARK    1  A    between atoms: C_1  and  O_2
REMARK    2  A    between atoms: O_2  and  C_3
REMARK                            x       y       z     vdW  Elec       q    Type
REMARK                         _______ _______ _______ _____ _____    ______ ____
ROOT
ATOM      1  C   UNL     1       6.967   5.818  16.719  0.00  0.00    +0.000 C 
ATOM      2  C   UNL     1       7.600   5.600  17.887  0.00  0.00    +0.000 C 
ATOM      3  C   UNL     1       6.921   5.371  19.174  0.00  0.00    +0.000 C 
ATOM      4  O   UNL     1       7.570   5.483  20.216  0.00  0.00    +0.000 OA
ATOM      5  C   UNL     1       5.439   4.992  19.109  0.00  0.00    +0.000 C 
ATOM      6  C   UNL     1       4.642   5.664  17.963  0.00  0.00    +0.000 C 
ATOM      7  C   UNL     1       5.442   5.925  16.649  0.00  0.00    +0.000 C 
ATOM      8  O   UNL     1       4.902   6.226  15.575  0.00  0.00    +0.000 OA
ATOM      9  C   UNL     1       3.737   4.398  17.955  0.00  0.00    +0.000 C 
ATOM     10  C   UNL     1       2.695   4.102  19.093  0.00  0.00    +0.000 A 
ATOM     11  C   UNL     1       1.548   4.778  19.490  0.00  0.00    +0.000 A 
ATOM     12  C   UNL     1       0.843   4.330  20.614  0.00  0.00    +0.000 A 
ATOM     13  C   UNL     1       1.267   3.197  21.326  0.00  0.00    +0.000 A 
ATOM     14  C   UNL     1       2.421   2.518  20.948  0.00  0.00    +0.000 A 
ATOM     15  C   UNL     1       3.135   3.003  19.865  0.00  0.00    +0.000 A 
ATOM     16  C   UNL     1       4.474   2.494  19.383  0.00  0.00    +0.000 C 
ATOM     17  C   UNL     1       5.007   3.613  18.462  0.00  0.00    +0.000 C 
ENDROOT
BRANCH   1  19
ATOM     18  C   UNL     1       7.421   4.942  14.526  0.00  0.00    +0.000 C 
ATOM     19  O   UNL     1       7.609   5.953  15.499  0.00  0.00    +0.000 OA
ENDBRANCH   1  19
TORSDOF 1
ENDMDL
MODEL 3
REMARK VINA RESULT:      -7.8      1.966      3.553
REMARK  Name = 
REMARK  2 active torsions:
REMARK  status: ('A' for Active; 'I' for Inactive)
REMARK    1  A    between atoms: C_1  and  O_2
REMARK    2  A    between atoms: O_2  and  C_3
REMARK                            x       y       z     vdW  Elec       q    Type
REMARK                         _______ _______ _______ _____ _____    ______ ____
ROOT
ATOM      1  C   UNL     1       6.863   5.445  15.375  0.00  0.00    +0.000 C 
ATOM      2  C   UNL     1       7.612   4.819  16.300  0.00  0.00    +0.000 C 
ATOM      3  C   UNL     1       7.216   4.633  17.707  0.00  0.00    +0.000 C 
ATOM      4  O   UNL     1       8.080   4.324  18.531  0.00  0.00    +0.000 OA
ATOM      5  C   UNL     1       5.733   4.828  18.033  0.00  0.00    +0.000 C 
ATOM      6  C   UNL     1       5.021   5.927  17.206  0.00  0.00    +0.000 C 
ATOM      7  C   UNL     1       5.530   6.104  15.742  0.00  0.00    +0.000 C 
ATOM      8  O   UNL     1       4.918   6.757  14.885  0.00  0.00    +0.000 OA
ATOM      9  C   UNL     1       3.718   5.092  17.365  0.00  0.00    +0.000 C 
ATOM     10  C   UNL     1       2.938   4.999  18.725  0.00  0.00    +0.000 A 
ATOM     11  C   UNL     1       2.273   5.963  19.474  0.00  0.00    +0.000 A 
ATOM     12  C   UNL     1       1.731   5.614  20.715  0.00  0.00    +0.000 A 
ATOM     13  C   UNL     1       1.830   4.300  21.201  0.00  0.00    +0.000 A 
ATOM     14  C   UNL     1       2.504   3.327  20.469  0.00  0.00    +0.000 A 
ATOM     15  C   UNL     1       3.078   3.701  19.266  0.00  0.00    +0.000 A 
ATOM     16  C   UNL     1       3.960   2.836  18.394  0.00  0.00    +0.000 C 
ATOM     17  C   UNL     1       4.658   3.829  17.440  0.00  0.00    +0.000 C 
ENDROOT
BRANCH   1  19
ATOM     18  C   UNL     1       6.934   4.446  13.188  0.00  0.00    +0.000 C 
ATOM     19  O   UNL     1       7.204   5.548  14.036  0.00  0.00    +0.000 OA
ENDBRANCH   1  19
TORSDOF 1
ENDMDL
MODEL 4
REMARK VINA RESULT:      -7.7      1.898      3.978
REMARK  Name = 
REMARK  2 active torsions:
REMARK  status: ('A' for Active; 'I' for Inactive)
REMARK    1  A    between atoms: C_1  and  O_2
REMARK    2  A    between atoms: O_2  and  C_3
REMARK                            x       y       z     vdW  Elec       q    Type
REMARK                         _______ _______ _______ _____ _____    ______ ____
ROOT
ATOM      1  C   UNL     1       6.814   5.265  16.081  0.00  0.00    +0.000 C 
ATOM      2  C   UNL     1       7.296   4.829  17.259  0.00  0.00    +0.000 C 
ATOM      3  C   UNL     1       6.746   5.201  18.575  0.00  0.00    +0.000 C 
ATOM      4  O   UNL     1       7.428   4.999  19.581  0.00  0.00    +0.000 OA
ATOM      5  C   UNL     1       5.341   5.807  18.583  0.00  0.00    +0.000 C 
ATOM      6  C   UNL     1       5.007   6.702  17.364  0.00  0.00    +0.000 C 
ATOM      7  C   UNL     1       5.668   6.279  16.017  0.00  0.00    +0.000 C 
ATOM      8  O   UNL     1       5.320   6.733  14.917  0.00  0.00    +0.000 OA
ATOM      9  C   UNL     1       3.525   6.266  17.549  0.00  0.00    +0.000 C 
ATOM     10  C   UNL     1       2.633   6.793  18.730  0.00  0.00    +0.000 A 
ATOM     11  C   UNL     1       2.176   8.068  19.042  0.00  0.00    +0.000 A 
ATOM     12  C   UNL     1       1.458   8.267  20.227  0.00  0.00    +0.000 A 
ATOM     13  C   UNL     1       1.176   7.195  21.088  0.00  0.00    +0.000 A 
ATOM     14  C   UNL     1       1.638   5.916  20.796  0.00  0.00    +0.000 A 
ATOM     15  C   UNL     1       2.390   5.744  19.645  0.00  0.00    +0.000 A 
ATOM     16  C   UNL     1       3.092   4.473  19.223  0.00  0.00    +0.000 C 
ATOM     17  C   UNL     1       4.100   4.926  18.146  0.00  0.00    +0.000 C 
ENDROOT
BRANCH   1  19
ATOM     18  C   UNL     1       6.502   3.930  14.105  0.00  0.00    +0.000 C 
ATOM     19  O   UNL     1       7.284   4.849  14.846  0.00  0.00    +0.000 OA
ENDBRANCH   1  19
TORSDOF 1
ENDMDL
MODEL 5
REMARK VINA RESULT:      -7.2      2.687      5.961
REMARK  Name = 
REMARK  2 active torsions:
REMARK  status: ('A' for Active; 'I' for Inactive)
REMARK    1  A    between atoms: C_1  and  O_2
REMARK    2  A    between atoms: O_2  and  C_3
REMARK                            x       y       z     vdW  Elec       q    Type
REMARK                         _______ _______ _______ _____ _____    ______ ____
ROOT
ATOM      1  C   UNL     1       1.910   3.559  20.017  0.00  0.00    +0.000 C 
ATOM      2  C   UNL     1       1.416   4.807  20.098  0.00  0.00    +0.000 C 
ATOM      3  C   UNL     1       2.232   6.033  20.047  0.00  0.00    +0.000 C 
ATOM      4  O   UNL     1       1.734   7.094  20.426  0.00  0.00    +0.000 OA
ATOM      5  C   UNL     1       3.655   5.886  19.503  0.00  0.00    +0.000 C 
ATOM      6  C   UNL     1       4.354   4.548  19.851  0.00  0.00    +0.000 C 
ATOM      7  C   UNL     1       3.418   3.303  19.942  0.00  0.00    +0.000 C 
ATOM      8  O   UNL     1       3.839   2.138  19.971  0.00  0.00    +0.000 OA
ATOM      9  C   UNL     1       5.139   4.699  18.517  0.00  0.00    +0.000 C 
ATOM     10  C   UNL     1       6.289   5.754  18.332  0.00  0.00    +0.000 A 
ATOM     11  C   UNL     1       7.531   5.878  18.941  0.00  0.00    +0.000 A 
ATOM     12  C   UNL     1       8.333   6.986  18.643  0.00  0.00    +0.000 A 
ATOM     13  C   UNL     1       7.908   7.955  17.721  0.00  0.00    +0.000 A 
ATOM     14  C   UNL     1       6.662   7.851  17.112  0.00  0.00    +0.000 A 
ATOM     15  C   UNL     1       5.859   6.776  17.455  0.00  0.00    +0.000 A 
ATOM     16  C   UNL     1       4.430   6.556  17.013  0.00  0.00    +0.000 C 
ATOM     17  C   UNL     1       3.882   5.490  17.987  0.00  0.00    +0.000 C 
ENDROOT
BRANCH   1  19
ATOM     18  C   UNL     1       0.568   2.018  18.748  0.00  0.00    +0.000 C 
ATOM     19  O   UNL     1       1.131   2.414  19.986  0.00  0.00    +0.000 OA
ENDBRANCH   1  19
TORSDOF 1
ENDMDL
MODEL 6
REMARK VINA RESULT:      -7.0      1.619      1.959
REMARK  Name = 
REMARK  2 active torsions:
REMARK  status: ('A' for Active; 'I' for Inactive)
REMARK    1  A    between atoms: C_1  and  O_2
REMARK    2  A    between atoms: O_2  and  C_3
REMARK                            x       y       z     vdW  Elec       q    Type
REMARK                         _______ _______ _______ _____ _____    ______ ____
ROOT
ATOM      1  C   UNL     1       6.401   6.789  17.083  0.00  0.00    +0.000 C 
ATOM      2  C   UNL     1       5.382   7.667  17.128  0.00  0.00    +0.000 C 
ATOM      3  C   UNL     1       3.965   7.294  17.279  0.00  0.00    +0.000 C 
ATOM      4  O   UNL     1       3.099   8.128  17.009  0.00  0.00    +0.000 OA
ATOM      5  C   UNL     1       3.680   5.876  17.782  0.00  0.00    +0.000 C 
ATOM      6  C   UNL     1       4.679   4.796  17.297  0.00  0.00    +0.000 C 
ATOM      7  C   UNL     1       6.151   5.279  17.107  0.00  0.00    +0.000 C 
ATOM      8  O   UNL     1       7.106   4.502  16.962  0.00  0.00    +0.000 OA
ATOM      9  C   UNL     1       4.389   4.042  18.626  0.00  0.00    +0.000 C 
ATOM     10  C   UNL     1       3.034   3.291  18.888  0.00  0.00    +0.000 A 
ATOM     11  C   UNL     1       2.457   2.188  18.271  0.00  0.00    +0.000 A 
ATOM     12  C   UNL     1       1.176   1.778  18.657  0.00  0.00    +0.000 A 
ATOM     13  C   UNL     1       0.480   2.451  19.674  0.00  0.00    +0.000 A 
ATOM     14  C   UNL     1       1.039   3.565  20.292  0.00  0.00    +0.000 A 
ATOM     15  C   UNL     1       2.286   3.989  19.864  0.00  0.00    +0.000 A 
ATOM     16  C   UNL     1       3.000   5.245  20.309  0.00  0.00    +0.000 C 
ATOM     17  C   UNL     1       4.103   5.461  19.250  0.00  0.00    +0.000 C 
ENDROOT
BRANCH   1  19
ATOM     18  C   UNL     1       8.161   8.286  17.753  0.00  0.00    +0.000 C 
ATOM     19  O   UNL     1       7.737   7.149  17.021  0.00  0.00    +0.000 OA
ENDBRANCH   1  19
TORSDOF 1
ENDMDL
MODEL 7
REMARK VINA RESULT:      -7.0      3.069      5.610
REMARK  Name = 
REMARK  2 active torsions:
REMARK  status: ('A' for Active; 'I' for Inactive)
REMARK    1  A    between atoms: C_1  and  O_2
REMARK    2  A    between atoms: O_2  and  C_3
REMARK                            x       y       z     vdW  Elec       q    Type
REMARK                         _______ _______ _______ _____ _____    ______ ____
ROOT
ATOM      1  C   UNL     1       1.759   7.279  20.270  0.00  0.00    +0.000 C 
ATOM      2  C   UNL     1       1.808   5.988  20.642  0.00  0.00    +0.000 C 
ATOM      3  C   UNL     1       2.414   4.910  19.840  0.00  0.00    +0.000 C 
ATOM      4  O   UNL     1       2.145   3.740  20.118  0.00  0.00    +0.000 OA
ATOM      5  C   UNL     1       3.356   5.342  18.713  0.00  0.00    +0.000 C 
ATOM      6  C   UNL     1       2.963   6.661  18.001  0.00  0.00    +0.000 C 
ATOM      7  C   UNL     1       2.277   7.733  18.902  0.00  0.00    +0.000 C 
ATOM      8  O   UNL     1       2.123   8.913  18.555  0.00  0.00    +0.000 OA
ATOM      9  C   UNL     1       4.481   6.879  17.738  0.00  0.00    +0.000 C 
ATOM     10  C   UNL     1       5.281   6.038  16.680  0.00  0.00    +0.000 A 
ATOM     11  C   UNL     1       5.172   5.952  15.297  0.00  0.00    +0.000 A 
ATOM     12  C   UNL     1       5.971   5.037  14.602  0.00  0.00    +0.000 A 
ATOM     13  C   UNL     1       6.894   4.225  15.280  0.00  0.00    +0.000 A 
ATOM     14  C   UNL     1       7.005   4.290  16.666  0.00  0.00    +0.000 A 
ATOM     15  C   UNL     1       6.173   5.165  17.344  0.00  0.00    +0.000 A 
ATOM     16  C   UNL     1       6.044   5.286  18.845  0.00  0.00    +0.000 C 
ATOM     17  C   UNL     1       4.724   6.058  19.061  0.00  0.00    +0.000 C 
ENDROOT
BRANCH   1  19
ATOM     18  C   UNL     1      -0.106   8.256  21.432  0.00  0.00    +0.000 C 
ATOM     19  O   UNL     1       1.260   8.300  21.063  0.00  0.00    +0.000 OA
ENDBRANCH   1  19
TORSDOF 1
ENDMDL
MODEL 8
REMARK VINA RESULT:      -6.9      2.218      2.966
REMARK  Name = 
REMARK  2 active torsions:
REMARK  status: ('A' for Active; 'I' for Inactive)
REMARK    1  A    between atoms: C_1  and  O_2
REMARK    2  A    between atoms: O_2  and  C_3
REMARK                            x       y       z     vdW  Elec       q    Type
REMARK                         _______ _______ _______ _____ _____    ______ ____
ROOT
ATOM      1  C   UNL     1       6.294   5.508  15.701  0.00  0.00    +0.000 C 
ATOM      2  C   UNL     1       5.783   6.654  16.186  0.00  0.00    +0.000 C 
ATOM      3  C   UNL     1       4.511   6.756  16.922  0.00  0.00    +0.000 C 
ATOM      4  O   UNL     1       3.990   7.865  17.055  0.00  0.00    +0.000 OA
ATOM      5  C   UNL     1       3.938   5.452  17.482  0.00  0.00    +0.000 C 
ATOM      6  C   UNL     1       4.185   4.199  16.606  0.00  0.00    +0.000 C 
ATOM      7  C   UNL     1       5.528   4.186  15.813  0.00  0.00    +0.000 C 
ATOM      8  O   UNL     1       5.984   3.171  15.267  0.00  0.00    +0.000 OA
ATOM      9  C   UNL     1       4.178   3.372  17.924  0.00  0.00    +0.000 C 
ATOM     10  C   UNL     1       2.860   3.084  18.730  0.00  0.00    +0.000 A 
ATOM     11  C   UNL     1       1.721   2.358  18.405  0.00  0.00    +0.000 A 
ATOM     12  C   UNL     1       0.642   2.341  19.295  0.00  0.00    +0.000 A 
ATOM     13  C   UNL     1       0.706   3.026  20.518  0.00  0.00    +0.000 A 
ATOM     14  C   UNL     1       1.834   3.769  20.852  0.00  0.00    +0.000 A 
ATOM     15  C   UNL     1       2.874   3.817  19.939  0.00  0.00    +0.000 A 
ATOM     16  C   UNL     1       4.118   4.668  20.051  0.00  0.00    +0.000 C 
ATOM     17  C   UNL     1       4.712   4.678  18.626  0.00  0.00    +0.000 C 
ENDROOT
BRANCH   1  19
ATOM     18  C   UNL     1       7.560   5.241  13.674  0.00  0.00    +0.000 C 
ATOM     19  O   UNL     1       7.528   5.406  15.080  0.00  0.00    +0.000 OA
ENDBRANCH   1  19
TORSDOF 1
ENDMDL
MODEL 9
REMARK VINA RESULT:      -6.8      2.904      6.079
REMARK  Name = 
REMARK  2 active torsions:
REMARK  status: ('A' for Active; 'I' for Inactive)
REMARK    1  A    between atoms: C_1  and  O_2
REMARK    2  A    between atoms: O_2  and  C_3
REMARK                            x       y       z     vdW  Elec       q    Type
REMARK                         _______ _______ _______ _____ _____    ______ ____
ROOT
ATOM      1  C   UNL     1       2.069   2.748  20.178  0.00  0.00    +0.000 C 
ATOM      2  C   UNL     1       3.231   2.337  20.716  0.00  0.00    +0.000 C 
ATOM      3  C   UNL     1       4.506   2.252  19.984  0.00  0.00    +0.000 C 
ATOM      4  O   UNL     1       5.426   1.589  20.468  0.00  0.00    +0.000 OA
ATOM      5  C   UNL     1       4.589   3.020  18.662  0.00  0.00    +0.000 C 
ATOM      6  C   UNL     1       3.272   3.066  17.848  0.00  0.00    +0.000 C 
ATOM      7  C   UNL     1       1.960   3.098  18.691  0.00  0.00    +0.000 C 
ATOM      8  O   UNL     1       0.852   3.376  18.211  0.00  0.00    +0.000 OA
ATOM      9  C   UNL     1       3.750   4.441  17.300  0.00  0.00    +0.000 C 
ATOM     10  C   UNL     1       4.913   4.571  16.251  0.00  0.00    +0.000 A 
ATOM     11  C   UNL     1       5.018   4.140  14.935  0.00  0.00    +0.000 A 
ATOM     12  C   UNL     1       6.226   4.317  14.250  0.00  0.00    +0.000 A 
ATOM     13  C   UNL     1       7.320   4.943  14.869  0.00  0.00    +0.000 A 
ATOM     14  C   UNL     1       7.234   5.368  16.191  0.00  0.00    +0.000 A 
ATOM     15  C   UNL     1       6.049   5.141  16.870  0.00  0.00    +0.000 A 
ATOM     16  C   UNL     1       5.801   5.402  18.338  0.00  0.00    +0.000 C 
ATOM     17  C   UNL     1       4.522   4.601  18.665  0.00  0.00    +0.000 C 
ENDROOT
BRANCH   1  19
ATOM     18  C   UNL     1       0.881   2.532  22.259  0.00  0.00    +0.000 C 
ATOM     19  O   UNL     1       0.891   2.902  20.892  0.00  0.00    +0.000 OA
ENDBRANCH   1  19
TORSDOF 1
ENDMDL
