MODEL 1
REMARK VINA RESULT:      -8.7      0.000      0.000
REMARK  Name = 
REMARK  4 active torsions:
REMARK  status: ('A' for Active; 'I' for Inactive)
REMARK    1  A    between atoms: C_2  and  C_3
REMARK    2  A    between atoms: C_3  and  C_4
REMARK    3  A    between atoms: C_4  and  C_5
REMARK    4  A    between atoms: N_11  and  N_12
REMARK                            x       y       z     vdW  Elec       q    Type
REMARK                         _______ _______ _______ _____ _____    ______ ____
ROOT
ATOM      1  N   UNL     1       1.417   7.792  18.266  0.00  0.00    +0.000 N 
ATOM      2  C   UNL     1       2.743   7.517  18.052  0.00  0.00    +0.000 C 
ATOM      3  O   UNL     1       3.498   8.470  18.010  0.00  0.00    +0.000 OA
ATOM      4  N   UNL     1       3.268   6.230  17.918  0.00  0.00    +0.000 N 
ATOM      5  C   UNL     1       2.363   5.085  17.802  0.00  0.00    +0.000 C 
ATOM      6  C   UNL     1       2.329   4.287  19.053  0.00  0.00    +0.000 A 
ATOM      7  C   UNL     1       1.164   4.221  19.840  0.00  0.00    +0.000 A 
ATOM      8  C   UNL     1       1.144   3.437  20.998  0.00  0.00    +0.000 A 
ATOM      9  C   UNL     1       2.275   2.703  21.361  0.00  0.00    +0.000 A 
ATOM     10  C   UNL     1       3.424   2.762  20.573  0.00  0.00    +0.000 A 
ATOM     11  C   UNL     1       3.459   3.567  19.427  0.00  0.00    +0.000 A 
ATOM     12  O   UNL     1       4.607   3.605  18.726  0.00  0.00    +0.000 OA
ATOM     13  C   UNL     1       5.280   4.692  18.280  0.00  0.00    +0.000 A 
ATOM     14  C   UNL     1       6.669   4.506  18.274  0.00  0.00    +0.000 A 
ATOM     15  C   UNL     1       7.546   5.538  17.990  0.00  0.00    +0.000 A 
ATOM     16  C   UNL     1       7.053   6.785  17.673  0.00  0.00    +0.000 A 
ATOM     17 CL   UNL     1       8.162   8.110  17.353  0.00  0.00    +0.000 Cl
ATOM     18  C   UNL     1       5.678   7.000  17.623  0.00  0.00    +0.000 A 
ATOM     19  C   UNL     1       4.719   5.979  17.934  0.00  0.00    +0.000 A 
ATOM     20  H   UNL     1       0.679   7.079  18.231  0.00  0.00    +0.000 HD
ENDROOT
BRANCH   1  23
ATOM     21  O   UNL     1       0.760   8.685  20.799  0.00  0.00    +0.000 OA
ATOM     22  C   UNL     1       0.703   9.478  19.869  0.00  0.00    +0.000 C 
ATOM     23  N   UNL     1       0.970   9.076  18.587  0.00  0.00    +0.000 N 
ATOM     24  H   UNL     1       0.699   9.707  17.815  0.00  0.00    +0.000 HD
BRANCH  22  25
ATOM     25  C   UNL     1       0.200  10.870  20.159  0.00  0.00    +0.000 C 
BRANCH  25  26
ATOM     26  C   UNL     1      -0.189  11.619  18.872  0.00  0.00    +0.000 C 
BRANCH  26  27
ATOM     27  C   UNL     1      -1.597  11.260  18.466  0.00  0.00    +0.000 A 
ATOM     28  C   UNL     1      -2.697  11.956  18.988  0.00  0.00    +0.000 A 
ATOM     29  C   UNL     1      -3.980  11.638  18.545  0.00  0.00    +0.000 A 
ATOM     30  C   UNL     1      -4.159  10.636  17.593  0.00  0.00    +0.000 A 
ATOM     31  C   UNL     1      -3.042   9.958  17.096  0.00  0.00    +0.000 A 
ATOM     32  N   UNL     1      -1.797  10.281  17.544  0.00  0.00    +0.000 NA
ENDBRANCH  26  27
ENDBRANCH  25  26
ENDBRANCH  22  25
ENDBRANCH   1  23
TORSDOF 4
ENDMDL
MODEL 2
REMARK VINA RESULT:      -8.5      1.624      2.567
REMARK  Name = 
REMARK  4 active torsions:
REMARK  status: ('A' for Active; 'I' for Inactive)
REMARK    1  A    between atoms: C_2  and  C_3
REMARK    2  A    between atoms: C_3  and  C_4
REMARK    3  A    between atoms: C_4  and  C_5
REMARK    4  A    between atoms: N_11  and  N_12
REMARK                            x       y       z     vdW  Elec       q    Type
REMARK                         _______ _______ _______ _____ _____    ______ ____
ROOT
ATOM      1  N   UNL     1       1.474   8.022  18.408  0.00  0.00    +0.000 N 
ATOM      2  C   UNL     1       2.771   7.689  18.114  0.00  0.00    +0.000 C 
ATOM      3  O   UNL     1       3.573   8.603  18.073  0.00  0.00    +0.000 OA
ATOM      4  N   UNL     1       3.219   6.385  17.899  0.00  0.00    +0.000 N 
ATOM      5  C   UNL     1       2.250   5.293  17.782  0.00  0.00    +0.000 C 
ATOM      6  C   UNL     1       2.236   4.443  18.999  0.00  0.00    +0.000 A 
ATOM      7  C   UNL     1       1.109   4.401  19.842  0.00  0.00    +0.000 A 
ATOM      8  C   UNL     1       1.105   3.568  20.965  0.00  0.00    +0.000 A 
ATOM      9  C   UNL     1       2.212   2.763  21.237  0.00  0.00    +0.000 A 
ATOM     10  C   UNL     1       3.323   2.797  20.394  0.00  0.00    +0.000 A 
ATOM     11  C   UNL     1       3.343   3.651  19.283  0.00  0.00    +0.000 A 
ATOM     12  O   UNL     1       4.455   3.661  18.526  0.00  0.00    +0.000 OA
ATOM     13  C   UNL     1       5.162   4.732  18.092  0.00  0.00    +0.000 A 
ATOM     14  C   UNL     1       6.538   4.475  18.005  0.00  0.00    +0.000 A 
ATOM     15  C   UNL     1       7.453   5.473  17.720  0.00  0.00    +0.000 A 
ATOM     16  C   UNL     1       7.011   6.756  17.482  0.00  0.00    +0.000 A 
ATOM     17 CL   UNL     1       8.172   8.036  17.161  0.00  0.00    +0.000 Cl
ATOM     18  C   UNL     1       5.650   7.043  17.512  0.00  0.00    +0.000 A 
ATOM     19  C   UNL     1       4.654   6.059  17.829  0.00  0.00    +0.000 A 
ATOM     20  H   UNL     1       0.698   7.349  18.382  0.00  0.00    +0.000 HD
ENDROOT
BRANCH   1  23
ATOM     21  O   UNL     1      -0.666   9.473  17.428  0.00  0.00    +0.000 OA
ATOM     22  C   UNL     1       0.013   9.966  18.318  0.00  0.00    +0.000 C 
ATOM     23  N   UNL     1       1.113   9.312  18.806  0.00  0.00    +0.000 N 
ATOM     24  H   UNL     1       1.777   9.847  19.388  0.00  0.00    +0.000 HD
BRANCH  22  25
ATOM     25  C   UNL     1      -0.319  11.368  18.765  0.00  0.00    +0.000 C 
BRANCH  25  26
ATOM     26  C   UNL     1       0.618  11.850  19.886  0.00  0.00    +0.000 C 
BRANCH  26  27
ATOM     27  C   UNL     1       0.309  11.121  21.171  0.00  0.00    +0.000 A 
ATOM     28  C   UNL     1      -0.847  11.416  21.906  0.00  0.00    +0.000 A 
ATOM     29  C   UNL     1      -1.133  10.680  23.056  0.00  0.00    +0.000 A 
ATOM     30  C   UNL     1      -0.270   9.664  23.463  0.00  0.00    +0.000 A 
ATOM     31  C   UNL     1       0.876   9.398  22.710  0.00  0.00    +0.000 A 
ATOM     32  N   UNL     1       1.139  10.130  21.592  0.00  0.00    +0.000 NA
ENDBRANCH  26  27
ENDBRANCH  25  26
ENDBRANCH  22  25
ENDBRANCH   1  23
TORSDOF 4
ENDMDL
MODEL 3
REMARK VINA RESULT:      -8.5      1.541      2.038
REMARK  Name = 
REMARK  4 active torsions:
REMARK  status: ('A' for Active; 'I' for Inactive)
REMARK    1  A    between atoms: C_2  and  C_3
REMARK    2  A    between atoms: C_3  and  C_4
REMARK    3  A    between atoms: C_4  and  C_5
REMARK    4  A    between atoms: N_11  and  N_12
REMARK                            x       y       z     vdW  Elec       q    Type
REMARK                         _______ _______ _______ _____ _____    ______ ____
ROOT
ATOM      1  N   UNL     1       1.443   7.789  18.107  0.00  0.00    +0.000 N 
ATOM      2  C   UNL     1       2.777   7.524  17.934  0.00  0.00    +0.000 C 
ATOM      3  O   UNL     1       3.523   8.484  17.893  0.00  0.00    +0.000 OA
ATOM      4  N   UNL     1       3.319   6.241  17.839  0.00  0.00    +0.000 N 
ATOM      5  C   UNL     1       2.430   5.083  17.721  0.00  0.00    +0.000 C 
ATOM      6  C   UNL     1       2.372   4.310  18.987  0.00  0.00    +0.000 A 
ATOM      7  C   UNL     1       1.186   4.246  19.744  0.00  0.00    +0.000 A 
ATOM      8  C   UNL     1       1.144   3.484  20.916  0.00  0.00    +0.000 A 
ATOM      9  C   UNL     1       2.273   2.771  21.323  0.00  0.00    +0.000 A 
ATOM     10  C   UNL     1       3.442   2.827  20.565  0.00  0.00    +0.000 A 
ATOM     11  C   UNL     1       3.498   3.610  19.405  0.00  0.00    +0.000 A 
ATOM     12  O   UNL     1       4.665   3.647  18.733  0.00  0.00    +0.000 OA
ATOM     13  C   UNL     1       5.337   4.733  18.284  0.00  0.00    +0.000 A 
ATOM     14  C   UNL     1       6.728   4.563  18.318  0.00  0.00    +0.000 A 
ATOM     15  C   UNL     1       7.601   5.599  18.037  0.00  0.00    +0.000 A 
ATOM     16  C   UNL     1       7.102   6.834  17.683  0.00  0.00    +0.000 A 
ATOM     17 CL   UNL     1       8.205   8.165  17.367  0.00  0.00    +0.000 Cl
ATOM     18  C   UNL     1       5.728   7.032  17.592  0.00  0.00    +0.000 A 
ATOM     19  C   UNL     1       4.772   6.006  17.898  0.00  0.00    +0.000 A 
ATOM     20  H   UNL     1       0.713   7.066  18.067  0.00  0.00    +0.000 HD
ENDROOT
BRANCH   1  23
ATOM     21  O   UNL     1       1.010   8.826  20.634  0.00  0.00    +0.000 OA
ATOM     22  C   UNL     1       0.822   9.551  19.666  0.00  0.00    +0.000 C 
ATOM     23  N   UNL     1       0.974   9.074  18.391  0.00  0.00    +0.000 N 
ATOM     24  H   UNL     1       0.596   9.639  17.614  0.00  0.00    +0.000 HD
BRANCH  22  25
ATOM     25  C   UNL     1       0.289  10.940  19.918  0.00  0.00    +0.000 C 
BRANCH  25  26
ATOM     26  C   UNL     1       0.169  11.244  21.422  0.00  0.00    +0.000 C 
BRANCH  26  27
ATOM     27  C   UNL     1      -1.222  11.731  21.746  0.00  0.00    +0.000 A 
ATOM     28  C   UNL     1      -1.712  11.690  23.058  0.00  0.00    +0.000 A 
ATOM     29  C   UNL     1      -2.979  12.206  23.332  0.00  0.00    +0.000 A 
ATOM     30  C   UNL     1      -3.744  12.753  22.303  0.00  0.00    +0.000 A 
ATOM     31  C   UNL     1      -3.228  12.774  21.004  0.00  0.00    +0.000 A 
ATOM     32  N   UNL     1      -1.989  12.263  20.758  0.00  0.00    +0.000 NA
ENDBRANCH  26  27
ENDBRANCH  25  26
ENDBRANCH  22  25
ENDBRANCH   1  23
TORSDOF 4
ENDMDL
MODEL 4
REMARK VINA RESULT:      -8.3      1.663      2.749
REMARK  Name = 
REMARK  4 active torsions:
REMARK  status: ('A' for Active; 'I' for Inactive)
REMARK    1  A    between atoms: C_2  and  C_3
REMARK    2  A    between atoms: C_3  and  C_4
REMARK    3  A    between atoms: C_4  and  C_5
REMARK    4  A    between atoms: N_11  and  N_12
REMARK                            x       y       z     vdW  Elec       q    Type
REMARK                         _______ _______ _______ _____ _____    ______ ____
ROOT
ATOM      1  N   UNL     1       1.410   7.819  18.282  0.00  0.00    +0.000 N 
ATOM      2  C   UNL     1       2.732   7.539  18.047  0.00  0.00    +0.000 C 
ATOM      3  O   UNL     1       3.489   8.490  17.992  0.00  0.00    +0.000 OA
ATOM      4  N   UNL     1       3.250   6.251  17.906  0.00  0.00    +0.000 N 
ATOM      5  C   UNL     1       2.340   5.108  17.805  0.00  0.00    +0.000 C 
ATOM      6  C   UNL     1       2.323   4.311  19.057  0.00  0.00    +0.000 A 
ATOM      7  C   UNL     1       1.170   4.249  19.863  0.00  0.00    +0.000 A 
ATOM      8  C   UNL     1       1.166   3.467  21.021  0.00  0.00    +0.000 A 
ATOM      9  C   UNL     1       2.300   2.730  21.367  0.00  0.00    +0.000 A 
ATOM     10  C   UNL     1       3.437   2.784  20.561  0.00  0.00    +0.000 A 
ATOM     11  C   UNL     1       3.456   3.588  19.414  0.00  0.00    +0.000 A 
ATOM     12  O   UNL     1       4.593   3.621  18.695  0.00  0.00    +0.000 OA
ATOM     13  C   UNL     1       5.263   4.707  18.238  0.00  0.00    +0.000 A 
ATOM     14  C   UNL     1       6.651   4.516  18.209  0.00  0.00    +0.000 A 
ATOM     15  C   UNL     1       7.527   5.545  17.911  0.00  0.00    +0.000 A 
ATOM     16  C   UNL     1       7.032   6.793  17.601  0.00  0.00    +0.000 A 
ATOM     17 CL   UNL     1       8.140   8.114  17.263  0.00  0.00    +0.000 Cl
ATOM     18  C   UNL     1       5.658   7.012  17.572  0.00  0.00    +0.000 A 
ATOM     19  C   UNL     1       4.700   5.994  17.899  0.00  0.00    +0.000 A 
ATOM     20  H   UNL     1       0.669   7.108  18.260  0.00  0.00    +0.000 HD
ENDROOT
BRANCH   1  23
ATOM     21  O   UNL     1       0.845   8.731  20.831  0.00  0.00    +0.000 OA
ATOM     22  C   UNL     1       0.752   9.516  19.897  0.00  0.00    +0.000 C 
ATOM     23  N   UNL     1       0.972   9.105  18.609  0.00  0.00    +0.000 N 
ATOM     24  H   UNL     1       0.671   9.728  17.843  0.00  0.00    +0.000 HD
BRANCH  22  25
ATOM     25  C   UNL     1       0.256  10.910  20.194  0.00  0.00    +0.000 C 
BRANCH  25  26
ATOM     26  C   UNL     1      -0.028  11.704  18.907  0.00  0.00    +0.000 C 
BRANCH  26  27
ATOM     27  C   UNL     1       0.925  12.869  18.793  0.00  0.00    +0.000 A 
ATOM     28  C   UNL     1       2.266  12.669  18.435  0.00  0.00    +0.000 A 
ATOM     29  C   UNL     1       3.103  13.773  18.279  0.00  0.00    +0.000 A 
ATOM     30  C   UNL     1       2.603  15.059  18.479  0.00  0.00    +0.000 A 
ATOM     31  C   UNL     1       1.263  15.223  18.839  0.00  0.00    +0.000 A 
ATOM     32  N   UNL     1       0.462  14.132  18.990  0.00  0.00    +0.000 NA
ENDBRANCH  26  27
ENDBRANCH  25  26
ENDBRANCH  22  25
ENDBRANCH   1  23
TORSDOF 4
ENDMDL
MODEL 5
REMARK VINA RESULT:      -8.2      2.231      2.827
REMARK  Name = 
REMARK  4 active torsions:
REMARK  status: ('A' for Active; 'I' for Inactive)
REMARK    1  A    between atoms: C_2  and  C_3
REMARK    2  A    between atoms: C_3  and  C_4
REMARK    3  A    between atoms: C_4  and  C_5
REMARK    4  A    between atoms: N_11  and  N_12
REMARK                            x       y       z     vdW  Elec       q    Type
REMARK                         _______ _______ _______ _____ _____    ______ ____
ROOT
ATOM      1  N   UNL     1       1.331   7.861  18.886  0.00  0.00    +0.000 N 
ATOM      2  C   UNL     1       2.611   7.578  18.482  0.00  0.00    +0.000 C 
ATOM      3  O   UNL     1       3.388   8.512  18.438  0.00  0.00    +0.000 OA
ATOM      4  N   UNL     1       3.069   6.299  18.160  0.00  0.00    +0.000 N 
ATOM      5  C   UNL     1       2.117   5.192  18.049  0.00  0.00    +0.000 C 
ATOM      6  C   UNL     1       2.209   4.275  19.212  0.00  0.00    +0.000 A 
ATOM      7  C   UNL     1       1.147   4.157  20.129  0.00  0.00    +0.000 A 
ATOM      8  C   UNL     1       1.241   3.262  21.199  0.00  0.00    +0.000 A 
ATOM      9  C   UNL     1       2.381   2.470  21.346  0.00  0.00    +0.000 A 
ATOM     10  C   UNL     1       3.427   2.581  20.430  0.00  0.00    +0.000 A 
ATOM     11  C   UNL     1       3.350   3.495  19.371  0.00  0.00    +0.000 A 
ATOM     12  O   UNL     1       4.404   3.576  18.539  0.00  0.00    +0.000 OA
ATOM     13  C   UNL     1       5.055   4.687  18.119  0.00  0.00    +0.000 A 
ATOM     14  C   UNL     1       6.426   4.470  17.921  0.00  0.00    +0.000 A 
ATOM     15  C   UNL     1       7.298   5.505  17.630  0.00  0.00    +0.000 A 
ATOM     16  C   UNL     1       6.813   6.788  17.499  0.00  0.00    +0.000 A 
ATOM     17 CL   UNL     1       7.921   8.113  17.171  0.00  0.00    +0.000 Cl
ATOM     18  C   UNL     1       5.451   7.039  17.642  0.00  0.00    +0.000 A 
ATOM     19  C   UNL     1       4.502   6.014  17.970  0.00  0.00    +0.000 A 
ATOM     20  H   UNL     1       0.570   7.172  18.876  0.00  0.00    +0.000 HD
ENDROOT
BRANCH   1  23
ATOM     21  O   UNL     1       0.146   8.349  21.336  0.00  0.00    +0.000 OA
ATOM     22  C   UNL     1       0.430   9.303  20.626  0.00  0.00    +0.000 C 
ATOM     23  N   UNL     1       0.973   9.117  19.383  0.00  0.00    +0.000 N 
ATOM     24  H   UNL     1       0.990   9.921  18.735  0.00  0.00    +0.000 HD
BRANCH  22  25
ATOM     25  C   UNL     1       0.038  10.680  21.105  0.00  0.00    +0.000 C 
BRANCH  25  26
ATOM     26  C   UNL     1      -0.446  10.663  22.566  0.00  0.00    +0.000 C 
BRANCH  26  27
ATOM     27  C   UNL     1      -1.156  11.954  22.894  0.00  0.00    +0.000 A 
ATOM     28  C   UNL     1      -2.539  11.977  23.119  0.00  0.00    +0.000 A 
ATOM     29  C   UNL     1      -3.152  13.177  23.480  0.00  0.00    +0.000 A 
ATOM     30  C   UNL     1      -2.389  14.335  23.613  0.00  0.00    +0.000 A 
ATOM     31  C   UNL     1      -1.013  14.279  23.377  0.00  0.00    +0.000 A 
ATOM     32  N   UNL     1      -0.434  13.098  23.022  0.00  0.00    +0.000 NA
ENDBRANCH  26  27
ENDBRANCH  25  26
ENDBRANCH  22  25
ENDBRANCH   1  23
TORSDOF 4
ENDMDL
MODEL 6
REMARK VINA RESULT:      -8.2      0.966      1.362
REMARK  Name = 
REMARK  4 active torsions:
REMARK  status: ('A' for Active; 'I' for Inactive)
REMARK    1  A    between atoms: C_2  and  C_3
REMARK    2  A    between atoms: C_3  and  C_4
REMARK    3  A    between atoms: C_4  and  C_5
REMARK    4  A    between atoms: N_11  and  N_12
REMARK                            x       y       z     vdW  Elec       q    Type
REMARK                         _______ _______ _______ _____ _____    ______ ____
ROOT
ATOM      1  N   UNL     1       1.454   7.711  18.004  0.00  0.00    +0.000 N 
ATOM      2  C   UNL     1       2.796   7.462  17.866  0.00  0.00    +0.000 C 
ATOM      3  O   UNL     1       3.529   8.431  17.819  0.00  0.00    +0.000 OA
ATOM      4  N   UNL     1       3.357   6.185  17.814  0.00  0.00    +0.000 N 
ATOM      5  C   UNL     1       2.487   5.012  17.704  0.00  0.00    +0.000 C 
ATOM      6  C   UNL     1       2.410   4.267  18.986  0.00  0.00    +0.000 A 
ATOM      7  C   UNL     1       1.209   4.204  19.718  0.00  0.00    +0.000 A 
ATOM      8  C   UNL     1       1.151   3.470  20.906  0.00  0.00    +0.000 A 
ATOM      9  C   UNL     1       2.280   2.782  21.355  0.00  0.00    +0.000 A 
ATOM     10  C   UNL     1       3.465   2.837  20.623  0.00  0.00    +0.000 A 
ATOM     11  C   UNL     1       3.537   3.594  19.446  0.00  0.00    +0.000 A 
ATOM     12  O   UNL     1       4.717   3.632  18.800  0.00  0.00    +0.000 OA
ATOM     13  C   UNL     1       5.385   4.717  18.340  0.00  0.00    +0.000 A 
ATOM     14  C   UNL     1       6.777   4.567  18.409  0.00  0.00    +0.000 A 
ATOM     15  C   UNL     1       7.642   5.608  18.123  0.00  0.00    +0.000 A 
ATOM     16  C   UNL     1       7.135   6.828  17.729  0.00  0.00    +0.000 A 
ATOM     17 CL   UNL     1       8.226   8.166  17.406  0.00  0.00    +0.000 Cl
ATOM     18  C   UNL     1       5.760   7.004  17.603  0.00  0.00    +0.000 A 
ATOM     19  C   UNL     1       4.811   5.972  17.911  0.00  0.00    +0.000 A 
ATOM     20  H   UNL     1       0.736   6.978  17.965  0.00  0.00    +0.000 HD
ENDROOT
BRANCH   1  23
ATOM     21  O   UNL     1       0.962   8.806  20.495  0.00  0.00    +0.000 OA
ATOM     22  C   UNL     1       0.780   9.503  19.506  0.00  0.00    +0.000 C 
ATOM     23  N   UNL     1       0.961   8.996  18.247  0.00  0.00    +0.000 N 
ATOM     24  H   UNL     1       0.589   9.535  17.448  0.00  0.00    +0.000 HD
BRANCH  22  25
ATOM     25  C   UNL     1       0.222  10.889  19.713  0.00  0.00    +0.000 C 
BRANCH  25  26
ATOM     26  C   UNL     1      -0.814  11.257  18.636  0.00  0.00    +0.000 C 
BRANCH  26  27
ATOM     27  C   UNL     1      -2.061  11.811  19.281  0.00  0.00    +0.000 A 
ATOM     28  C   UNL     1      -3.300  11.743  18.629  0.00  0.00    +0.000 A 
ATOM     29  C   UNL     1      -4.442  12.208  19.280  0.00  0.00    +0.000 A 
ATOM     30  C   UNL     1      -4.343  12.735  20.567  0.00  0.00    +0.000 A 
ATOM     31  C   UNL     1      -3.092  12.792  21.188  0.00  0.00    +0.000 A 
ATOM     32  N   UNL     1      -1.988  12.335  20.533  0.00  0.00    +0.000 NA
ENDBRANCH  26  27
ENDBRANCH  25  26
ENDBRANCH  22  25
ENDBRANCH   1  23
TORSDOF 4
ENDMDL
MODEL 7
REMARK VINA RESULT:      -8.1      1.669      2.382
REMARK  Name = 
REMARK  4 active torsions:
REMARK  status: ('A' for Active; 'I' for Inactive)
REMARK    1  A    between atoms: C_2  and  C_3
REMARK    2  A    between atoms: C_3  and  C_4
REMARK    3  A    between atoms: C_4  and  C_5
REMARK    4  A    between atoms: N_11  and  N_12
REMARK                            x       y       z     vdW  Elec       q    Type
REMARK                         _______ _______ _______ _____ _____    ______ ____
ROOT
ATOM      1  N   UNL     1       1.425   7.963  18.357  0.00  0.00    +0.000 N 
ATOM      2  C   UNL     1       2.734   7.652  18.092  0.00  0.00    +0.000 C 
ATOM      3  O   UNL     1       3.518   8.582  18.049  0.00  0.00    +0.000 OA
ATOM      4  N   UNL     1       3.213   6.354  17.908  0.00  0.00    +0.000 N 
ATOM      5  C   UNL     1       2.269   5.240  17.794  0.00  0.00    +0.000 C 
ATOM      6  C   UNL     1       2.251   4.412  19.026  0.00  0.00    +0.000 A 
ATOM      7  C   UNL     1       1.110   4.361  19.849  0.00  0.00    +0.000 A 
ATOM      8  C   UNL     1       1.102   3.549  20.987  0.00  0.00    +0.000 A 
ATOM      9  C   UNL     1       2.221   2.771  21.294  0.00  0.00    +0.000 A 
ATOM     10  C   UNL     1       3.345   2.814  20.470  0.00  0.00    +0.000 A 
ATOM     11  C   UNL     1       3.368   3.648  19.344  0.00  0.00    +0.000 A 
ATOM     12  O   UNL     1       4.494   3.668  18.606  0.00  0.00    +0.000 OA
ATOM     13  C   UNL     1       5.186   4.745  18.165  0.00  0.00    +0.000 A 
ATOM     14  C   UNL     1       6.568   4.516  18.108  0.00  0.00    +0.000 A 
ATOM     15  C   UNL     1       7.468   5.527  17.820  0.00  0.00    +0.000 A 
ATOM     16  C   UNL     1       7.004   6.797  17.552  0.00  0.00    +0.000 A 
ATOM     17 CL   UNL     1       8.143   8.094  17.228  0.00  0.00    +0.000 Cl
ATOM     18  C   UNL     1       5.636   7.055  17.553  0.00  0.00    +0.000 A 
ATOM     19  C   UNL     1       4.655   6.057  17.870  0.00  0.00    +0.000 A 
ATOM     20  H   UNL     1       0.664   7.274  18.329  0.00  0.00    +0.000 HD
ENDROOT
BRANCH   1  23
ATOM     21  O   UNL     1      -0.664   9.390  17.242  0.00  0.00    +0.000 OA
ATOM     22  C   UNL     1      -0.044   9.894  18.169  0.00  0.00    +0.000 C 
ATOM     23  N   UNL     1       1.031   9.252  18.725  0.00  0.00    +0.000 N 
ATOM     24  H   UNL     1       1.655   9.796  19.342  0.00  0.00    +0.000 HD
BRANCH  22  25
ATOM     25  C   UNL     1      -0.413  11.296  18.586  0.00  0.00    +0.000 C 
BRANCH  25  26
ATOM     26  C   UNL     1       0.356  11.742  19.842  0.00  0.00    +0.000 C 
BRANCH  26  27
ATOM     27  C   UNL     1      -0.537  11.658  21.056  0.00  0.00    +0.000 A 
ATOM     28  C   UNL     1      -0.322  10.686  22.042  0.00  0.00    +0.000 A 
ATOM     29  C   UNL     1      -1.128  10.676  23.180  0.00  0.00    +0.000 A 
ATOM     30  C   UNL     1      -2.136  11.627  23.326  0.00  0.00    +0.000 A 
ATOM     31  C   UNL     1      -2.328  12.580  22.322  0.00  0.00    +0.000 A 
ATOM     32  N   UNL     1      -1.531  12.571  21.217  0.00  0.00    +0.000 NA
ENDBRANCH  26  27
ENDBRANCH  25  26
ENDBRANCH  22  25
ENDBRANCH   1  23
TORSDOF 4
ENDMDL
MODEL 8
REMARK VINA RESULT:      -8.1      2.451      4.079
REMARK  Name = 
REMARK  4 active torsions:
REMARK  status: ('A' for Active; 'I' for Inactive)
REMARK    1  A    between atoms: C_2  and  C_3
REMARK    2  A    between atoms: C_3  and  C_4
REMARK    3  A    between atoms: C_4  and  C_5
REMARK    4  A    between atoms: N_11  and  N_12
REMARK                            x       y       z     vdW  Elec       q    Type
REMARK                         _______ _______ _______ _____ _____    ______ ____
ROOT
ATOM      1  N   UNL     1       2.687   8.174  18.025  0.00  0.00    +0.000 N 
ATOM      2  C   UNL     1       2.704   7.018  18.763  0.00  0.00    +0.000 C 
ATOM      3  O   UNL     1       1.697   6.759  19.394  0.00  0.00    +0.000 OA
ATOM      4  N   UNL     1       3.777   6.125  18.802  0.00  0.00    +0.000 N 
ATOM      5  C   UNL     1       5.053   6.494  18.186  0.00  0.00    +0.000 C 
ATOM      6  C   UNL     1       5.275   5.765  16.913  0.00  0.00    +0.000 A 
ATOM      7  C   UNL     1       5.298   6.446  15.680  0.00  0.00    +0.000 A 
ATOM      8  C   UNL     1       5.542   5.744  14.496  0.00  0.00    +0.000 A 
ATOM      9  C   UNL     1       5.784   4.370  14.540  0.00  0.00    +0.000 A 
ATOM     10  C   UNL     1       5.772   3.699  15.762  0.00  0.00    +0.000 A 
ATOM     11  C   UNL     1       5.501   4.393  16.949  0.00  0.00    +0.000 A 
ATOM     12  O   UNL     1       5.474   3.684  18.093  0.00  0.00    +0.000 OA
ATOM     13  C   UNL     1       4.525   3.692  19.060  0.00  0.00    +0.000 A 
ATOM     14  C   UNL     1       4.366   2.442  19.674  0.00  0.00    +0.000 A 
ATOM     15  C   UNL     1       3.355   2.197  20.587  0.00  0.00    +0.000 A 
ATOM     16  C   UNL     1       2.489   3.212  20.934  0.00  0.00    +0.000 A 
ATOM     17 CL   UNL     1       1.177   2.895  22.060  0.00  0.00    +0.000 Cl
ATOM     18  C   UNL     1       2.642   4.480  20.381  0.00  0.00    +0.000 A 
ATOM     19  C   UNL     1       3.652   4.790  19.410  0.00  0.00    +0.000 A 
ATOM     20  H   UNL     1       3.509   8.539  17.527  0.00  0.00    +0.000 HD
ENDROOT
BRANCH   1  23
ATOM     21  O   UNL     1       1.813  10.168  19.731  0.00  0.00    +0.000 OA
ATOM     22  C   UNL     1       1.165   9.941  18.718  0.00  0.00    +0.000 C 
ATOM     23  N   UNL     1       1.525   8.933  17.865  0.00  0.00    +0.000 N 
ATOM     24  H   UNL     1       0.840   8.631  17.153  0.00  0.00    +0.000 HD
BRANCH  22  25
ATOM     25  C   UNL     1      -0.114  10.714  18.512  0.00  0.00    +0.000 C 
BRANCH  25  26
ATOM     26  C   UNL     1      -1.356   9.813  18.633  0.00  0.00    +0.000 C 
BRANCH  26  27
ATOM     27  C   UNL     1      -2.353  10.154  17.553  0.00  0.00    +0.000 A 
ATOM     28  C   UNL     1      -3.538  10.839  17.859  0.00  0.00    +0.000 A 
ATOM     29  C   UNL     1      -4.408  11.193  16.828  0.00  0.00    +0.000 A 
ATOM     30  C   UNL     1      -4.096  10.864  15.510  0.00  0.00    +0.000 A 
ATOM     31  C   UNL     1      -2.909  10.177  15.240  0.00  0.00    +0.000 A 
ATOM     32  N   UNL     1      -2.074   9.838  16.261  0.00  0.00    +0.000 NA
ENDBRANCH  26  27
ENDBRANCH  25  26
ENDBRANCH  22  25
ENDBRANCH   1  23
TORSDOF 4
ENDMDL
MODEL 9
REMARK VINA RESULT:      -8.1      2.642      4.572
REMARK  Name = 
REMARK  4 active torsions:
REMARK  status: ('A' for Active; 'I' for Inactive)
REMARK    1  A    between atoms: C_2  and  C_3
REMARK    2  A    between atoms: C_3  and  C_4
REMARK    3  A    between atoms: C_4  and  C_5
REMARK    4  A    between atoms: N_11  and  N_12
REMARK                            x       y       z     vdW  Elec       q    Type
REMARK                         _______ _______ _______ _____ _____    ______ ____
ROOT
ATOM      1  N   UNL     1       2.593   8.108  18.528  0.00  0.00    +0.000 N 
ATOM      2  C   UNL     1       2.634   6.908  19.190  0.00  0.00    +0.000 C 
ATOM      3  O   UNL     1       1.647   6.604  19.832  0.00  0.00    +0.000 OA
ATOM      4  N   UNL     1       3.710   6.019  19.141  0.00  0.00    +0.000 N 
ATOM      5  C   UNL     1       4.967   6.433  18.513  0.00  0.00    +0.000 C 
ATOM      6  C   UNL     1       5.154   5.786  17.190  0.00  0.00    +0.000 A 
ATOM      7  C   UNL     1       5.138   6.544  16.003  0.00  0.00    +0.000 A 
ATOM      8  C   UNL     1       5.349   5.919  14.770  0.00  0.00    +0.000 A 
ATOM      9  C   UNL     1       5.596   4.547  14.720  0.00  0.00    +0.000 A 
ATOM     10  C   UNL     1       5.623   3.800  15.897  0.00  0.00    +0.000 A 
ATOM     11  C   UNL     1       5.384   4.416  17.133  0.00  0.00    +0.000 A 
ATOM     12  O   UNL     1       5.393   3.636  18.230  0.00  0.00    +0.000 OA
ATOM     13  C   UNL     1       4.473   3.579  19.223  0.00  0.00    +0.000 A 
ATOM     14  C   UNL     1       4.336   2.292  19.761  0.00  0.00    +0.000 A 
ATOM     15  C   UNL     1       3.353   1.985  20.686  0.00  0.00    +0.000 A 
ATOM     16  C   UNL     1       2.494   2.971  21.121  0.00  0.00    +0.000 A 
ATOM     17 CL   UNL     1       1.217   2.577  22.262  0.00  0.00    +0.000 Cl
ATOM     18  C   UNL     1       2.627   4.272  20.646  0.00  0.00    +0.000 A 
ATOM     19  C   UNL     1       3.607   4.647  19.667  0.00  0.00    +0.000 A 
ATOM     20  H   UNL     1       3.398   8.507  18.030  0.00  0.00    +0.000 HD
ENDROOT
BRANCH   1  23
ATOM     21  O   UNL     1       2.473  10.849  18.180  0.00  0.00    +0.000 OA
ATOM     22  C   UNL     1       1.424  10.221  18.230  0.00  0.00    +0.000 C 
ATOM     23  N   UNL     1       1.424   8.869  18.450  0.00  0.00    +0.000 N 
ATOM     24  H   UNL     1       0.530   8.419  18.704  0.00  0.00    +0.000 HD
BRANCH  22  25
ATOM     25  C   UNL     1       0.133  11.001  18.177  0.00  0.00    +0.000 C 
BRANCH  25  26
ATOM     26  C   UNL     1      -1.014  10.259  18.888  0.00  0.00    +0.000 C 
BRANCH  26  27
ATOM     27  C   UNL     1      -0.803  10.286  20.382  0.00  0.00    +0.000 A 
ATOM     28  C   UNL     1      -1.043  11.452  21.122  0.00  0.00    +0.000 A 
ATOM     29  C   UNL     1      -0.898  11.424  22.509  0.00  0.00    +0.000 A 
ATOM     30  C   UNL     1      -0.516  10.244  23.144  0.00  0.00    +0.000 A 
ATOM     31  C   UNL     1      -0.280   9.100  22.377  0.00  0.00    +0.000 A 
ATOM     32  N   UNL     1      -0.425   9.149  21.024  0.00  0.00    +0.000 NA
ENDBRANCH  26  27
ENDBRANCH  25  26
ENDBRANCH  22  25
ENDBRANCH   1  23
TORSDOF 4
ENDMDL
