MODEL 1
REMARK VINA RESULT:      -5.8      0.000      0.000
REMARK  Name = 
REMARK  5 active torsions:
REMARK  status: ('A' for Active; 'I' for Inactive)
REMARK    1  A    between atoms: C_1  and  C_2
REMARK    2  A    between atoms: C_2  and  O_3
REMARK    3  A    between atoms: C_2  and  C_4
REMARK    4  A    between atoms: N_9  and  C_10
REMARK    5  A    between atoms: C_13  and  C_14
REMARK                            x       y       z     vdW  Elec       q    Type
REMARK                         _______ _______ _______ _____ _____    ______ ____
ROOT
ATOM      1  C   UNL     1       4.365   3.832  18.463  0.00  0.00    +0.000 C 
ATOM      2  O   UNL     1       5.012   3.870  17.414  0.00  0.00    +0.000 OA
ATOM      3  N   UNL     1       3.889   4.987  19.060  0.00  0.00    +0.000 N 
ATOM      4  C   UNL     1       4.027   6.273  18.367  0.00  0.00    +0.000 C 
ATOM      5  C   UNL     1       2.666   6.994  18.266  0.00  0.00    +0.000 C 
ATOM      6  N   UNL     1       2.058   7.092  19.606  0.00  0.00    +0.000 N 
ATOM      7  C   UNL     1       1.908   5.813  20.320  0.00  0.00    +0.000 C 
ATOM      8  C   UNL     1       3.261   5.084  20.387  0.00  0.00    +0.000 C 
ENDROOT
BRANCH   6   9
ATOM      9  C   UNL     1       1.551   8.269  20.107  0.00  0.00    +0.000 A 
ATOM     10  C   UNL     1       1.289   8.446  21.468  0.00  0.00    +0.000 A 
ATOM     11  C   UNL     1       0.750   9.639  21.952  0.00  0.00    +0.000 A 
ATOM     12  C   UNL     1       0.474  10.651  21.048  0.00  0.00    +0.000 A 
ATOM     13  N   UNL     1       0.706  10.543  19.722  0.00  0.00    +0.000 NA
ATOM     14  C   UNL     1       1.233   9.367  19.298  0.00  0.00    +0.000 A 
BRANCH  12  15
ATOM     15  C   UNL     1      -0.093  11.892  21.494  0.00  0.00    +0.000 C 
ATOM     16  N   UNL     1      -0.564  12.903  21.814  0.00  0.00    +0.000 NA
ENDBRANCH  12  15
ENDBRANCH   6   9
BRANCH   1  18
ATOM     17  C   UNL     1       3.369   1.525  18.095  0.00  0.00    +0.000 C 
ATOM     18  C   UNL     1       3.982   2.477  19.116  0.00  0.00    +0.000 C 
BRANCH  18  19
ATOM     19  O   UNL     1       5.050   1.804  19.769  0.00  0.00    +0.000 OA
ATOM     20  H   UNL     1       5.025   2.062  20.708  0.00  0.00    +0.000 HD
ENDBRANCH  18  19
ENDBRANCH   1  18
TORSDOF 4
ENDMDL
MODEL 2
REMARK VINA RESULT:      -5.8      5.119      7.416
REMARK  Name = 
REMARK  5 active torsions:
REMARK  status: ('A' for Active; 'I' for Inactive)
REMARK    1  A    between atoms: C_1  and  C_2
REMARK    2  A    between atoms: C_2  and  O_3
REMARK    3  A    between atoms: C_2  and  C_4
REMARK    4  A    between atoms: N_9  and  C_10
REMARK    5  A    between atoms: C_13  and  C_14
REMARK                            x       y       z     vdW  Elec       q    Type
REMARK                         _______ _______ _______ _____ _____    ______ ____
ROOT
ATOM      1  C   UNL     1       1.859   2.309  20.036  0.00  0.00    +0.000 C 
ATOM      2  O   UNL     1       0.761   1.878  19.677  0.00  0.00    +0.000 OA
ATOM      3  N   UNL     1       2.855   2.604  19.121  0.00  0.00    +0.000 N 
ATOM      4  C   UNL     1       2.562   2.543  17.684  0.00  0.00    +0.000 C 
ATOM      5  C   UNL     1       2.954   3.862  16.985  0.00  0.00    +0.000 C 
ATOM      6  N   UNL     1       4.356   4.191  17.302  0.00  0.00    +0.000 N 
ATOM      7  C   UNL     1       4.673   4.260  18.739  0.00  0.00    +0.000 C 
ATOM      8  C   UNL     1       4.248   2.956  19.436  0.00  0.00    +0.000 C 
ENDROOT
BRANCH   6   9
ATOM      9  C   UNL     1       5.275   4.534  16.338  0.00  0.00    +0.000 A 
ATOM     10  C   UNL     1       5.308   3.911  15.087  0.00  0.00    +0.000 A 
ATOM     11  C   UNL     1       6.265   4.256  14.131  0.00  0.00    +0.000 A 
ATOM     12  C   UNL     1       7.193   5.232  14.453  0.00  0.00    +0.000 A 
ATOM     13  N   UNL     1       7.213   5.873  15.641  0.00  0.00    +0.000 NA
ATOM     14  C   UNL     1       6.262   5.507  16.537  0.00  0.00    +0.000 A 
BRANCH  12  15
ATOM     15  C   UNL     1       8.206   5.614  13.510  0.00  0.00    +0.000 C 
ATOM     16  N   UNL     1       8.995   5.946  12.726  0.00  0.00    +0.000 NA
ENDBRANCH  12  15
ENDBRANCH   6   9
BRANCH   1  18
ATOM     17  C   UNL     1       2.360   4.115  21.751  0.00  0.00    +0.000 C 
ATOM     18  C   UNL     1       2.143   2.622  21.530  0.00  0.00    +0.000 C 
BRANCH  18  19
ATOM     19  O   UNL     1       1.142   2.178  22.436  0.00  0.00    +0.000 OA
ATOM     20  H   UNL     1       1.563   1.552  23.051  0.00  0.00    +0.000 HD
ENDBRANCH  18  19
ENDBRANCH   1  18
TORSDOF 4
ENDMDL
MODEL 3
REMARK VINA RESULT:      -5.8      0.648      1.103
REMARK  Name = 
REMARK  5 active torsions:
REMARK  status: ('A' for Active; 'I' for Inactive)
REMARK    1  A    between atoms: C_1  and  C_2
REMARK    2  A    between atoms: C_2  and  O_3
REMARK    3  A    between atoms: C_2  and  C_4
REMARK    4  A    between atoms: N_9  and  C_10
REMARK    5  A    between atoms: C_13  and  C_14
REMARK                            x       y       z     vdW  Elec       q    Type
REMARK                         _______ _______ _______ _____ _____    ______ ____
ROOT
ATOM      1  C   UNL     1       4.388   3.856  18.520  0.00  0.00    +0.000 C 
ATOM      2  O   UNL     1       5.070   3.880  17.493  0.00  0.00    +0.000 OA
ATOM      3  N   UNL     1       3.907   5.020  19.096  0.00  0.00    +0.000 N 
ATOM      4  C   UNL     1       4.085   6.300  18.402  0.00  0.00    +0.000 C 
ATOM      5  C   UNL     1       2.738   7.038  18.253  0.00  0.00    +0.000 C 
ATOM      6  N   UNL     1       2.087   7.151  19.571  0.00  0.00    +0.000 N 
ATOM      7  C   UNL     1       1.896   5.877  20.285  0.00  0.00    +0.000 C 
ATOM      8  C   UNL     1       3.237   5.131  20.400  0.00  0.00    +0.000 C 
ENDROOT
BRANCH   6   9
ATOM      9  C   UNL     1       1.580   8.336  20.050  0.00  0.00    +0.000 A 
ATOM     10  C   UNL     1       1.203   9.381  19.201  0.00  0.00    +0.000 A 
ATOM     11  C   UNL     1       0.715  10.586  19.709  0.00  0.00    +0.000 A 
ATOM     12  C   UNL     1       0.615  10.728  21.083  0.00  0.00    +0.000 A 
ATOM     13  N   UNL     1       0.959   9.757  21.955  0.00  0.00    +0.000 NA
ATOM     14  C   UNL     1       1.426   8.603  21.416  0.00  0.00    +0.000 A 
BRANCH  12  15
ATOM     15  C   UNL     1       0.131  11.952  21.655  0.00  0.00    +0.000 C 
ATOM     16  N   UNL     1      -0.240  12.933  22.155  0.00  0.00    +0.000 NA
ENDBRANCH  12  15
ENDBRANCH   6   9
BRANCH   1  18
ATOM     17  C   UNL     1       3.291   1.595  18.148  0.00  0.00    +0.000 C 
ATOM     18  C   UNL     1       3.965   2.509  19.165  0.00  0.00    +0.000 C 
BRANCH  18  19
ATOM     19  O   UNL     1       5.019   1.785  19.785  0.00  0.00    +0.000 OA
ATOM     20  H   UNL     1       4.801   1.705  20.731  0.00  0.00    +0.000 HD
ENDBRANCH  18  19
ENDBRANCH   1  18
TORSDOF 4
ENDMDL
MODEL 4
REMARK VINA RESULT:      -5.7      3.922      7.668
REMARK  Name = 
REMARK  5 active torsions:
REMARK  status: ('A' for Active; 'I' for Inactive)
REMARK    1  A    between atoms: C_1  and  C_2
REMARK    2  A    between atoms: C_2  and  O_3
REMARK    3  A    between atoms: C_2  and  C_4
REMARK    4  A    between atoms: N_9  and  C_10
REMARK    5  A    between atoms: C_13  and  C_14
REMARK                            x       y       z     vdW  Elec       q    Type
REMARK                         _______ _______ _______ _____ _____    ______ ____
ROOT
ATOM      1  C   UNL     1      -0.414  10.422  19.603  0.00  0.00    +0.000 C 
ATOM      2  O   UNL     1      -0.916  10.452  20.729  0.00  0.00    +0.000 OA
ATOM      3  N   UNL     1       0.776   9.756  19.360  0.00  0.00    +0.000 N 
ATOM      4  C   UNL     1       1.386   8.947  20.421  0.00  0.00    +0.000 C 
ATOM      5  C   UNL     1       1.677   7.515  19.925  0.00  0.00    +0.000 C 
ATOM      6  N   UNL     1       2.466   7.574  18.681  0.00  0.00    +0.000 N 
ATOM      7  C   UNL     1       1.872   8.379  17.600  0.00  0.00    +0.000 C 
ATOM      8  C   UNL     1       1.553   9.795  18.112  0.00  0.00    +0.000 C 
ENDROOT
BRANCH   6   9
ATOM      9  C   UNL     1       3.610   6.833  18.492  0.00  0.00    +0.000 A 
ATOM     10  C   UNL     1       3.989   5.813  19.369  0.00  0.00    +0.000 A 
ATOM     11  C   UNL     1       5.167   5.091  19.173  0.00  0.00    +0.000 A 
ATOM     12  C   UNL     1       5.963   5.412  18.086  0.00  0.00    +0.000 A 
ATOM     13  N   UNL     1       5.652   6.384  17.202  0.00  0.00    +0.000 NA
ATOM     14  C   UNL     1       4.496   7.057  17.431  0.00  0.00    +0.000 A 
BRANCH  12  15
ATOM     15  C   UNL     1       7.190   4.708  17.848  0.00  0.00    +0.000 C 
ATOM     16  N   UNL     1       8.205   4.168  17.679  0.00  0.00    +0.000 NA
ENDBRANCH  12  15
ENDBRANCH   6   9
BRANCH   1  18
ATOM     17  C   UNL     1      -2.141  10.088  17.771  0.00  0.00    +0.000 C 
ATOM     18  C   UNL     1      -1.140  11.059  18.388  0.00  0.00    +0.000 C 
BRANCH  18  19
ATOM     19  O   UNL     1      -1.815  12.279  18.666  0.00  0.00    +0.000 OA
ATOM     20  H   UNL     1      -2.309  12.156  19.495  0.00  0.00    +0.000 HD
ENDBRANCH  18  19
ENDBRANCH   1  18
TORSDOF 4
ENDMDL
MODEL 5
REMARK VINA RESULT:      -5.7      1.456      1.627
REMARK  Name = 
REMARK  5 active torsions:
REMARK  status: ('A' for Active; 'I' for Inactive)
REMARK    1  A    between atoms: C_1  and  C_2
REMARK    2  A    between atoms: C_2  and  O_3
REMARK    3  A    between atoms: C_2  and  C_4
REMARK    4  A    between atoms: N_9  and  C_10
REMARK    5  A    between atoms: C_13  and  C_14
REMARK                            x       y       z     vdW  Elec       q    Type
REMARK                         _______ _______ _______ _____ _____    ______ ____
ROOT
ATOM      1  C   UNL     1       4.536   5.436  17.060  0.00  0.00    +0.000 C 
ATOM      2  O   UNL     1       4.934   5.849  15.968  0.00  0.00    +0.000 OA
ATOM      3  N   UNL     1       3.973   6.289  17.994  0.00  0.00    +0.000 N 
ATOM      4  C   UNL     1       3.707   7.686  17.634  0.00  0.00    +0.000 C 
ATOM      5  C   UNL     1       2.239   8.061  17.926  0.00  0.00    +0.000 C 
ATOM      6  N   UNL     1       1.911   7.725  19.324  0.00  0.00    +0.000 N 
ATOM      7  C   UNL     1       2.169   6.326  19.707  0.00  0.00    +0.000 C 
ATOM      8  C   UNL     1       3.624   5.949  19.381  0.00  0.00    +0.000 C 
ENDROOT
BRANCH   6   9
ATOM      9  C   UNL     1       1.294   8.611  20.176  0.00  0.00    +0.000 A 
ATOM     10  C   UNL     1       1.268   8.416  21.560  0.00  0.00    +0.000 A 
ATOM     11  C   UNL     1       0.613   9.314  22.405  0.00  0.00    +0.000 A 
ATOM     12  C   UNL     1      -0.018  10.409  21.838  0.00  0.00    +0.000 A 
ATOM     13  N   UNL     1      -0.027  10.655  20.511  0.00  0.00    +0.000 NA
ATOM     14  C   UNL     1       0.624   9.756  19.729  0.00  0.00    +0.000 A 
BRANCH  12  15
ATOM     15  C   UNL     1      -0.715  11.354  22.663  0.00  0.00    +0.000 C 
ATOM     16  N   UNL     1      -1.277  12.148  23.297  0.00  0.00    +0.000 NA
ENDBRANCH  12  15
ENDBRANCH   6   9
BRANCH   1  18
ATOM     17  C   UNL     1       3.198   3.285  17.235  0.00  0.00    +0.000 C 
ATOM     18  C   UNL     1       4.573   3.922  17.401  0.00  0.00    +0.000 C 
BRANCH  18  19
ATOM     19  O   UNL     1       5.510   3.161  16.651  0.00  0.00    +0.000 OA
ATOM     20  H   UNL     1       5.596   3.584  15.779  0.00  0.00    +0.000 HD
ENDBRANCH  18  19
ENDBRANCH   1  18
TORSDOF 4
ENDMDL
MODEL 6
REMARK VINA RESULT:      -5.6      1.651      2.572
REMARK  Name = 
REMARK  5 active torsions:
REMARK  status: ('A' for Active; 'I' for Inactive)
REMARK    1  A    between atoms: C_1  and  C_2
REMARK    2  A    between atoms: C_2  and  O_3
REMARK    3  A    between atoms: C_2  and  C_4
REMARK    4  A    between atoms: N_9  and  C_10
REMARK    5  A    between atoms: C_13  and  C_14
REMARK                            x       y       z     vdW  Elec       q    Type
REMARK                         _______ _______ _______ _____ _____    ______ ____
ROOT
ATOM      1  C   UNL     1       2.689   2.736  20.137  0.00  0.00    +0.000 C 
ATOM      2  O   UNL     1       2.126   2.152  21.066  0.00  0.00    +0.000 OA
ATOM      3  N   UNL     1       2.297   4.003  19.737  0.00  0.00    +0.000 N 
ATOM      4  C   UNL     1       1.291   4.732  20.518  0.00  0.00    +0.000 C 
ATOM      5  C   UNL     1       1.805   6.135  20.906  0.00  0.00    +0.000 C 
ATOM      6  N   UNL     1       2.264   6.845  19.699  0.00  0.00    +0.000 N 
ATOM      7  C   UNL     1       3.276   6.132  18.900  0.00  0.00    +0.000 C 
ATOM      8  C   UNL     1       2.771   4.723  18.546  0.00  0.00    +0.000 C 
ENDROOT
BRANCH   6   9
ATOM      9  C   UNL     1       1.875   8.131  19.401  0.00  0.00    +0.000 A 
ATOM     10  C   UNL     1       2.167   8.730  18.172  0.00  0.00    +0.000 A 
ATOM     11  C   UNL     1       1.786  10.044  17.899  0.00  0.00    +0.000 A 
ATOM     12  C   UNL     1       1.112  10.751  18.881  0.00  0.00    +0.000 A 
ATOM     13  N   UNL     1       0.799  10.229  20.087  0.00  0.00    +0.000 NA
ATOM     14  C   UNL     1       1.187   8.948  20.305  0.00  0.00    +0.000 A 
BRANCH  12  15
ATOM     15  C   UNL     1       0.710  12.110  18.655  0.00  0.00    +0.000 C 
ATOM     16  N   UNL     1       0.407  13.209  18.435  0.00  0.00    +0.000 NA
ENDBRANCH  12  15
ENDBRANCH   6   9
BRANCH   1  18
ATOM     17  C   UNL     1       3.579   1.677  18.007  0.00  0.00    +0.000 C 
ATOM     18  C   UNL     1       3.920   2.110  19.429  0.00  0.00    +0.000 C 
BRANCH  18  19
ATOM     19  O   UNL     1       5.070   2.943  19.378  0.00  0.00    +0.000 OA
ATOM     20  H   UNL     1       5.678   2.560  18.721  0.00  0.00    +0.000 HD
ENDBRANCH  18  19
ENDBRANCH   1  18
TORSDOF 4
ENDMDL
MODEL 7
REMARK VINA RESULT:      -5.6      1.154      1.235
REMARK  Name = 
REMARK  5 active torsions:
REMARK  status: ('A' for Active; 'I' for Inactive)
REMARK    1  A    between atoms: C_1  and  C_2
REMARK    2  A    between atoms: C_2  and  O_3
REMARK    3  A    between atoms: C_2  and  C_4
REMARK    4  A    between atoms: N_9  and  C_10
REMARK    5  A    between atoms: C_13  and  C_14
REMARK                            x       y       z     vdW  Elec       q    Type
REMARK                         _______ _______ _______ _____ _____    ______ ____
ROOT
ATOM      1  C   UNL     1       4.920   3.748  18.919  0.00  0.00    +0.000 C 
ATOM      2  O   UNL     1       5.911   3.682  18.188  0.00  0.00    +0.000 OA
ATOM      3  N   UNL     1       4.309   4.958  19.201  0.00  0.00    +0.000 N 
ATOM      4  C   UNL     1       4.752   6.174  18.509  0.00  0.00    +0.000 C 
ATOM      5  C   UNL     1       3.559   6.898  17.850  0.00  0.00    +0.000 C 
ATOM      6  N   UNL     1       2.503   7.125  18.854  0.00  0.00    +0.000 N 
ATOM      7  C   UNL     1       2.042   5.918  19.560  0.00  0.00    +0.000 C 
ATOM      8  C   UNL     1       3.240   5.183  20.185  0.00  0.00    +0.000 C 
ENDROOT
BRANCH   6   9
ATOM      9  C   UNL     1       1.900   8.348  19.034  0.00  0.00    +0.000 A 
ATOM     10  C   UNL     1       1.230   8.681  20.214  0.00  0.00    +0.000 A 
ATOM     11  C   UNL     1       0.602   9.918  20.367  0.00  0.00    +0.000 A 
ATOM     12  C   UNL     1       0.653  10.815  19.313  0.00  0.00    +0.000 A 
ATOM     13  N   UNL     1       1.285  10.556  18.149  0.00  0.00    +0.000 NA
ATOM     14  C   UNL     1       1.883   9.342  18.047  0.00  0.00    +0.000 A 
BRANCH  12  15
ATOM     15  C   UNL     1       0.013  12.096  19.415  0.00  0.00    +0.000 C 
ATOM     16  N   UNL     1      -0.537  13.117  19.471  0.00  0.00    +0.000 NA
ENDBRANCH  12  15
ENDBRANCH   6   9
BRANCH   1  18
ATOM     17  C   UNL     1       3.507   1.701  18.404  0.00  0.00    +0.000 C 
ATOM     18  C   UNL     1       4.262   2.463  19.489  0.00  0.00    +0.000 C 
BRANCH  18  19
ATOM     19  O   UNL     1       5.159   1.561  20.124  0.00  0.00    +0.000 OA
ATOM     20  H   UNL     1       5.748   2.089  20.692  0.00  0.00    +0.000 HD
ENDBRANCH  18  19
ENDBRANCH   1  18
TORSDOF 4
ENDMDL
MODEL 8
REMARK VINA RESULT:      -5.5      3.860      7.742
REMARK  Name = 
REMARK  5 active torsions:
REMARK  status: ('A' for Active; 'I' for Inactive)
REMARK    1  A    between atoms: C_1  and  C_2
REMARK    2  A    between atoms: C_2  and  O_3
REMARK    3  A    between atoms: C_2  and  C_4
REMARK    4  A    between atoms: N_9  and  C_10
REMARK    5  A    between atoms: C_13  and  C_14
REMARK                            x       y       z     vdW  Elec       q    Type
REMARK                         _______ _______ _______ _____ _____    ______ ____
ROOT
ATOM      1  C   UNL     1      -0.404  10.170  19.627  0.00  0.00    +0.000 C 
ATOM      2  O   UNL     1      -0.922  10.110  20.744  0.00  0.00    +0.000 OA
ATOM      3  N   UNL     1       0.819   9.577  19.364  0.00  0.00    +0.000 N 
ATOM      4  C   UNL     1       1.454   8.737  20.386  0.00  0.00    +0.000 C 
ATOM      5  C   UNL     1       1.819   7.351  19.813  0.00  0.00    +0.000 C 
ATOM      6  N   UNL     1       2.622   7.520  18.587  0.00  0.00    +0.000 N 
ATOM      7  C   UNL     1       2.003   8.359  17.546  0.00  0.00    +0.000 C 
ATOM      8  C   UNL     1       1.610   9.725  18.133  0.00  0.00    +0.000 C 
ENDROOT
BRANCH   6   9
ATOM      9  C   UNL     1       3.802   6.847  18.374  0.00  0.00    +0.000 A 
ATOM     10  C   UNL     1       4.594   7.074  17.245  0.00  0.00    +0.000 A 
ATOM     11  C   UNL     1       5.775   6.362  17.034  0.00  0.00    +0.000 A 
ATOM     12  C   UNL     1       6.147   5.413  17.972  0.00  0.00    +0.000 A 
ATOM     13  N   UNL     1       5.428   5.148  19.083  0.00  0.00    +0.000 NA
ATOM     14  C   UNL     1       4.289   5.867  19.247  0.00  0.00    +0.000 A 
BRANCH  12  15
ATOM     15  C   UNL     1       7.346   4.644  17.795  0.00  0.00    +0.000 C 
ATOM     16  N   UNL     1       8.329   4.050  17.620  0.00  0.00    +0.000 NA
ENDBRANCH  12  15
ENDBRANCH   6   9
BRANCH   1  18
ATOM     17  C   UNL     1      -2.323   9.996  17.973  0.00  0.00    +0.000 C 
ATOM     18  C   UNL     1      -1.144  10.843  18.440  0.00  0.00    +0.000 C 
BRANCH  18  19
ATOM     19  O   UNL     1      -1.614  12.160  18.695  0.00  0.00    +0.000 OA
ATOM     20  H   UNL     1      -1.782  12.228  19.651  0.00  0.00    +0.000 HD
ENDBRANCH  18  19
ENDBRANCH   1  18
TORSDOF 4
ENDMDL
MODEL 9
REMARK VINA RESULT:      -5.4      1.765      2.438
REMARK  Name = 
REMARK  5 active torsions:
REMARK  status: ('A' for Active; 'I' for Inactive)
REMARK    1  A    between atoms: C_1  and  C_2
REMARK    2  A    between atoms: C_2  and  O_3
REMARK    3  A    between atoms: C_2  and  C_4
REMARK    4  A    between atoms: N_9  and  C_10
REMARK    5  A    between atoms: C_13  and  C_14
REMARK                            x       y       z     vdW  Elec       q    Type
REMARK                         _______ _______ _______ _____ _____    ______ ____
ROOT
ATOM      1  C   UNL     1       2.566   2.698  19.847  0.00  0.00    +0.000 C 
ATOM      2  O   UNL     1       1.898   2.031  20.640  0.00  0.00    +0.000 OA
ATOM      3  N   UNL     1       2.217   3.999  19.524  0.00  0.00    +0.000 N 
ATOM      4  C   UNL     1       1.119   4.656  20.242  0.00  0.00    +0.000 C 
ATOM      5  C   UNL     1       1.573   6.013  20.821  0.00  0.00    +0.000 C 
ATOM      6  N   UNL     1       2.171   6.832  19.751  0.00  0.00    +0.000 N 
ATOM      7  C   UNL     1       3.277   6.193  19.018  0.00  0.00    +0.000 C 
ATOM      8  C   UNL     1       2.828   4.826  18.473  0.00  0.00    +0.000 C 
ENDROOT
BRANCH   6   9
ATOM      9  C   UNL     1       1.813   8.142  19.531  0.00  0.00    +0.000 A 
ATOM     10  C   UNL     1       1.129   8.897  20.488  0.00  0.00    +0.000 A 
ATOM     11  C   UNL     1       0.753  10.217  20.235  0.00  0.00    +0.000 A 
ATOM     12  C   UNL     1       1.068  10.766  19.003  0.00  0.00    +0.000 A 
ATOM     13  N   UNL     1       1.728  10.091  18.038  0.00  0.00    +0.000 NA
ATOM     14  C   UNL     1       2.076   8.813  18.330  0.00  0.00    +0.000 A 
BRANCH  12  15
ATOM     15  C   UNL     1       0.691  12.115  18.689  0.00  0.00    +0.000 C 
ATOM     16  N   UNL     1       0.404  13.219  18.472  0.00  0.00    +0.000 NA
ENDBRANCH  12  15
ENDBRANCH   6   9
BRANCH   1  18
ATOM     17  C   UNL     1       4.880   1.770  20.327  0.00  0.00    +0.000 C 
ATOM     18  C   UNL     1       3.878   2.135  19.238  0.00  0.00    +0.000 C 
BRANCH  18  19
ATOM     19  O   UNL     1       3.709   1.006  18.391  0.00  0.00    +0.000 OA
ATOM     20  H   UNL     1       4.293   0.302  18.725  0.00  0.00    +0.000 HD
ENDBRANCH  18  19
ENDBRANCH   1  18
TORSDOF 4
ENDMDL
