MODEL 1
REMARK VINA RESULT:      -7.3      0.000      0.000
REMARK  Name = 
REMARK  11 active torsions:
REMARK  status: ('A' for Active; 'I' for Inactive)
REMARK    1  A    between atoms: C_1  and  C_2
REMARK    2  A    between atoms: C_2  and  C_3
REMARK    3  A    between atoms: C_6  and  O_7
REMARK    4  A    between atoms: O_7  and  C_8
REMARK    5  A    between atoms: C_8  and  C_9
REMARK    6  A    between atoms: C_9  and  O_10
REMARK    7  A    between atoms: C_9  and  C_11
REMARK    8  A    between atoms: C_11  and  N_12
REMARK    9  A    between atoms: N_15  and  C_16
REMARK   10  A    between atoms: C_19  and  O_20
REMARK   11  A    between atoms: O_20  and  C_21
REMARK                            x       y       z     vdW  Elec       q    Type
REMARK                         _______ _______ _______ _____ _____    ______ ____
ROOT
ATOM      1  C   UNL     1       3.214   3.229  19.180  0.00  0.00    +0.000 C 
ENDROOT
BRANCH   1   2
ATOM      2  N   UNL     1       1.850   3.781  19.052  0.00  0.00    +0.000 NA
ATOM      3  C   UNL     1       1.417   4.472  20.292  0.00  0.00    +0.000 C 
ATOM      4  C   UNL     1       2.244   5.725  20.649  0.00  0.00    +0.000 C 
ATOM      5  N   UNL     1       2.349   6.648  19.508  0.00  0.00    +0.000 N 
ATOM      6  C   UNL     1       2.641   6.053  18.193  0.00  0.00    +0.000 C 
ATOM      7  C   UNL     1       1.785   4.782  17.955  0.00  0.00    +0.000 C 
BRANCH   5   8
ATOM      8  C   UNL     1       1.791   7.913  19.557  0.00  0.00    +0.000 A 
ATOM      9  C   UNL     1       1.780   8.723  18.415  0.00  0.00    +0.000 A 
ATOM     10  C   UNL     1       1.249  10.014  18.446  0.00  0.00    +0.000 A 
ATOM     11  C   UNL     1       0.692  10.518  19.616  0.00  0.00    +0.000 A 
ATOM     12  C   UNL     1       0.703   9.736  20.763  0.00  0.00    +0.000 A 
ATOM     13  C   UNL     1       1.245   8.450  20.732  0.00  0.00    +0.000 A 
BRANCH  11  14
ATOM     14  O   UNL     1       0.213  11.795  19.539  0.00  0.00    +0.000 OA
ATOM     15  C   UNL     1       1.047  12.715  18.844  0.00  0.00    +0.000 C 
ENDBRANCH  11  14
ENDBRANCH   5   8
ENDBRANCH   1   2
BRANCH   1  16
ATOM     16  C   UNL     1       3.824   2.685  17.870  0.00  0.00    +0.000 C 
BRANCH  16  17
ATOM     17  O   UNL     1       3.966   1.262  17.980  0.00  0.00    +0.000 OA
ATOM     18  H   UNL     1       4.898   1.036  17.815  0.00  0.00    +0.000 HD
ENDBRANCH  16  17
BRANCH  16  19
ATOM     19  C   UNL     1       5.156   3.375  17.555  0.00  0.00    +0.000 C 
BRANCH  19  20
ATOM     20  O   UNL     1       5.635   4.017  18.742  0.00  0.00    +0.000 OA
BRANCH  20  24
ATOM     21  C   UNL     1       7.609   7.600  17.932  0.00  0.00    +0.000 A 
ATOM     22  C   UNL     1       6.399   7.266  17.314  0.00  0.00    +0.000 A 
ATOM     23  C   UNL     1       5.762   6.061  17.619  0.00  0.00    +0.000 A 
ATOM     24  C   UNL     1       6.334   5.172  18.529  0.00  0.00    +0.000 A 
ATOM     25  C   UNL     1       7.519   5.519  19.178  0.00  0.00    +0.000 A 
ATOM     26  C   UNL     1       8.151   6.728  18.883  0.00  0.00    +0.000 A 
BRANCH  21  28
ATOM     27  C   UNL     1       8.848   9.585  18.838  0.00  0.00    +0.000 C 
ATOM     28  C   UNL     1       8.317   8.886  17.597  0.00  0.00    +0.000 C 
ENDBRANCH  21  28
ENDBRANCH  20  24
ENDBRANCH  19  20
ENDBRANCH  16  19
ENDBRANCH   1  16
TORSDOF 9
ENDMDL
MODEL 2
REMARK VINA RESULT:      -7.3      2.660      6.568
REMARK  Name = 
REMARK  11 active torsions:
REMARK  status: ('A' for Active; 'I' for Inactive)
REMARK    1  A    between atoms: C_1  and  C_2
REMARK    2  A    between atoms: C_2  and  C_3
REMARK    3  A    between atoms: C_6  and  O_7
REMARK    4  A    between atoms: O_7  and  C_8
REMARK    5  A    between atoms: C_8  and  C_9
REMARK    6  A    between atoms: C_9  and  O_10
REMARK    7  A    between atoms: C_9  and  C_11
REMARK    8  A    between atoms: C_11  and  N_12
REMARK    9  A    between atoms: N_15  and  C_16
REMARK   10  A    between atoms: C_19  and  O_20
REMARK   11  A    between atoms: O_20  and  C_21
REMARK                            x       y       z     vdW  Elec       q    Type
REMARK                         _______ _______ _______ _____ _____    ______ ____
ROOT
ATOM      1  C   UNL     1       1.796   2.710  19.809  0.00  0.00    +0.000 C 
ENDROOT
BRANCH   1   2
ATOM      2  N   UNL     1       2.743   1.932  18.984  0.00  0.00    +0.000 NA
ATOM      3  C   UNL     1       2.545   2.183  17.534  0.00  0.00    +0.000 C 
ATOM      4  C   UNL     1       2.838   3.631  17.089  0.00  0.00    +0.000 C 
ATOM      5  N   UNL     1       4.158   4.084  17.555  0.00  0.00    +0.000 N 
ATOM      6  C   UNL     1       4.521   3.766  18.947  0.00  0.00    +0.000 C 
ATOM      7  C   UNL     1       4.147   2.302  19.298  0.00  0.00    +0.000 C 
BRANCH   5   8
ATOM      8  C   UNL     1       5.166   4.392  16.659  0.00  0.00    +0.000 A 
ATOM      9  C   UNL     1       6.011   5.483  16.897  0.00  0.00    +0.000 A 
ATOM     10  C   UNL     1       7.017   5.833  15.995  0.00  0.00    +0.000 A 
ATOM     11  C   UNL     1       7.219   5.084  14.841  0.00  0.00    +0.000 A 
ATOM     12  C   UNL     1       6.385   4.005  14.580  0.00  0.00    +0.000 A 
ATOM     13  C   UNL     1       5.372   3.665  15.479  0.00  0.00    +0.000 A 
BRANCH  11  14
ATOM     14  O   UNL     1       8.221   5.521  14.022  0.00  0.00    +0.000 OA
ATOM     15  C   UNL     1       7.931   5.476  12.630  0.00  0.00    +0.000 C 
ENDBRANCH  11  14
ENDBRANCH   5   8
ENDBRANCH   1   2
BRANCH   1  16
ATOM     16  C   UNL     1       2.429   3.441  21.013  0.00  0.00    +0.000 C 
BRANCH  16  17
ATOM     17  O   UNL     1       2.110   2.722  22.212  0.00  0.00    +0.000 OA
ATOM     18  H   UNL     1       2.449   3.230  22.970  0.00  0.00    +0.000 HD
ENDBRANCH  16  17
BRANCH  16  19
ATOM     19  C   UNL     1       1.964   4.901  21.075  0.00  0.00    +0.000 C 
BRANCH  19  20
ATOM     20  O   UNL     1       2.747   5.674  20.159  0.00  0.00    +0.000 OA
BRANCH  20  24
ATOM     21  C   UNL     1       1.273   9.412  19.041  0.00  0.00    +0.000 A 
ATOM     22  C   UNL     1       1.960   8.588  18.142  0.00  0.00    +0.000 A 
ATOM     23  C   UNL     1       2.430   7.338  18.550  0.00  0.00    +0.000 A 
ATOM     24  C   UNL     1       2.234   6.906  19.862  0.00  0.00    +0.000 A 
ATOM     25  C   UNL     1       1.513   7.705  20.749  0.00  0.00    +0.000 A 
ATOM     26  C   UNL     1       1.032   8.950  20.340  0.00  0.00    +0.000 A 
BRANCH  21  28
ATOM     27  C   UNL     1      -0.734  10.811  18.483  0.00  0.00    +0.000 C 
ATOM     28  C   UNL     1       0.779  10.771  18.620  0.00  0.00    +0.000 C 
ENDBRANCH  21  28
ENDBRANCH  20  24
ENDBRANCH  19  20
ENDBRANCH  16  19
ENDBRANCH   1  16
TORSDOF 9
ENDMDL
MODEL 3
REMARK VINA RESULT:      -7.2      0.794      1.539
REMARK  Name = 
REMARK  11 active torsions:
REMARK  status: ('A' for Active; 'I' for Inactive)
REMARK    1  A    between atoms: C_1  and  C_2
REMARK    2  A    between atoms: C_2  and  C_3
REMARK    3  A    between atoms: C_6  and  O_7
REMARK    4  A    between atoms: O_7  and  C_8
REMARK    5  A    between atoms: C_8  and  C_9
REMARK    6  A    between atoms: C_9  and  O_10
REMARK    7  A    between atoms: C_9  and  C_11
REMARK    8  A    between atoms: C_11  and  N_12
REMARK    9  A    between atoms: N_15  and  C_16
REMARK   10  A    between atoms: C_19  and  O_20
REMARK   11  A    between atoms: O_20  and  C_21
REMARK                            x       y       z     vdW  Elec       q    Type
REMARK                         _______ _______ _______ _____ _____    ______ ____
ROOT
ATOM      1  C   UNL     1       2.659   2.600  19.734  0.00  0.00    +0.000 C 
ENDROOT
BRANCH   1   2
ATOM      2  N   UNL     1       1.413   3.327  19.416  0.00  0.00    +0.000 NA
ATOM      3  C   UNL     1       1.048   4.289  20.486  0.00  0.00    +0.000 C 
ATOM      4  C   UNL     1       2.056   5.440  20.684  0.00  0.00    +0.000 C 
ATOM      5  N   UNL     1       2.363   6.115  19.413  0.00  0.00    +0.000 N 
ATOM      6  C   UNL     1       2.609   5.256  18.242  0.00  0.00    +0.000 C 
ATOM      7  C   UNL     1       1.564   4.113  18.163  0.00  0.00    +0.000 C 
BRANCH   5   8
ATOM      8  C   UNL     1       2.023   7.440  19.206  0.00  0.00    +0.000 A 
ATOM      9  C   UNL     1       1.369   8.165  20.211  0.00  0.00    +0.000 A 
ATOM     10  C   UNL     1       0.989   9.494  20.016  0.00  0.00    +0.000 A 
ATOM     11  C   UNL     1       1.276  10.140  18.819  0.00  0.00    +0.000 A 
ATOM     12  C   UNL     1       1.913   9.437  17.806  0.00  0.00    +0.000 A 
ATOM     13  C   UNL     1       2.282   8.104  17.999  0.00  0.00    +0.000 A 
BRANCH  11  14
ATOM     14  O   UNL     1       0.849  11.435  18.731  0.00  0.00    +0.000 OA
ATOM     15  C   UNL     1      -0.548  11.628  18.919  0.00  0.00    +0.000 C 
ENDBRANCH  11  14
ENDBRANCH   5   8
ENDBRANCH   1   2
BRANCH   1  16
ATOM     16  C   UNL     1       3.813   2.814  18.731  0.00  0.00    +0.000 C 
BRANCH  16  17
ATOM     17  O   UNL     1       4.274   1.535  18.273  0.00  0.00    +0.000 OA
ATOM     18  H   UNL     1       4.097   0.881  18.971  0.00  0.00    +0.000 HD
ENDBRANCH  16  17
BRANCH  16  19
ATOM     19  C   UNL     1       4.942   3.641  19.359  0.00  0.00    +0.000 C 
BRANCH  19  20
ATOM     20  O   UNL     1       6.026   3.725  18.427  0.00  0.00    +0.000 OA
BRANCH  20  24
ATOM     21  C   UNL     1       7.517   7.565  17.780  0.00  0.00    +0.000 A 
ATOM     22  C   UNL     1       8.135   6.671  18.661  0.00  0.00    +0.000 A 
ATOM     23  C   UNL     1       7.612   5.389  18.844  0.00  0.00    +0.000 A 
ATOM     24  C   UNL     1       6.460   4.994  18.164  0.00  0.00    +0.000 A 
ATOM     25  C   UNL     1       5.866   5.867  17.253  0.00  0.00    +0.000 A 
ATOM     26  C   UNL     1       6.393   7.145  17.060  0.00  0.00    +0.000 A 
BRANCH  21  28
ATOM     27  C   UNL     1       8.769   9.469  18.832  0.00  0.00    +0.000 C 
ATOM     28  C   UNL     1       8.058   8.958  17.589  0.00  0.00    +0.000 C 
ENDBRANCH  21  28
ENDBRANCH  20  24
ENDBRANCH  19  20
ENDBRANCH  16  19
ENDBRANCH   1  16
TORSDOF 9
ENDMDL
MODEL 4
REMARK VINA RESULT:      -7.1      2.707      6.594
REMARK  Name = 
REMARK  11 active torsions:
REMARK  status: ('A' for Active; 'I' for Inactive)
REMARK    1  A    between atoms: C_1  and  C_2
REMARK    2  A    between atoms: C_2  and  C_3
REMARK    3  A    between atoms: C_6  and  O_7
REMARK    4  A    between atoms: O_7  and  C_8
REMARK    5  A    between atoms: C_8  and  C_9
REMARK    6  A    between atoms: C_9  and  O_10
REMARK    7  A    between atoms: C_9  and  C_11
REMARK    8  A    between atoms: C_11  and  N_12
REMARK    9  A    between atoms: N_15  and  C_16
REMARK   10  A    between atoms: C_19  and  O_20
REMARK   11  A    between atoms: O_20  and  C_21
REMARK                            x       y       z     vdW  Elec       q    Type
REMARK                         _______ _______ _______ _____ _____    ______ ____
ROOT
ATOM      1  C   UNL     1       1.997   2.763  19.920  0.00  0.00    +0.000 C 
ENDROOT
BRANCH   1   2
ATOM      2  N   UNL     1       3.167   2.054  19.362  0.00  0.00    +0.000 NA
ATOM      3  C   UNL     1       3.051   1.872  17.893  0.00  0.00    +0.000 C 
ATOM      4  C   UNL     1       3.050   3.186  17.083  0.00  0.00    +0.000 C 
ATOM      5  N   UNL     1       4.185   4.048  17.448  0.00  0.00    +0.000 N 
ATOM      6  C   UNL     1       4.481   4.192  18.883  0.00  0.00    +0.000 C 
ATOM      7  C   UNL     1       4.417   2.821  19.605  0.00  0.00    +0.000 C 
BRANCH   5   8
ATOM      8  C   UNL     1       5.176   4.353  16.531  0.00  0.00    +0.000 A 
ATOM      9  C   UNL     1       6.239   5.188  16.894  0.00  0.00    +0.000 A 
ATOM     10  C   UNL     1       7.235   5.534  15.979  0.00  0.00    +0.000 A 
ATOM     11  C   UNL     1       7.205   5.032  14.683  0.00  0.00    +0.000 A 
ATOM     12  C   UNL     1       6.154   4.211  14.299  0.00  0.00    +0.000 A 
ATOM     13  C   UNL     1       5.152   3.877  15.212  0.00  0.00    +0.000 A 
BRANCH  11  14
ATOM     14  O   UNL     1       8.221   5.444  13.867  0.00  0.00    +0.000 OA
ATOM     15  C   UNL     1       7.898   5.514  12.483  0.00  0.00    +0.000 C 
ENDBRANCH  11  14
ENDBRANCH   5   8
ENDBRANCH   1   2
BRANCH   1  16
ATOM     16  C   UNL     1       2.286   3.604  21.182  0.00  0.00    +0.000 C 
BRANCH  16  17
ATOM     17  O   UNL     1       1.748   2.924  22.325  0.00  0.00    +0.000 OA
ATOM     18  H   UNL     1       0.877   2.565  22.083  0.00  0.00    +0.000 HD
ENDBRANCH  16  17
BRANCH  16  19
ATOM     19  C   UNL     1       1.724   5.023  21.039  0.00  0.00    +0.000 C 
BRANCH  19  20
ATOM     20  O   UNL     1       2.710   5.848  20.408  0.00  0.00    +0.000 OA
BRANCH  20  24
ATOM     21  C   UNL     1       1.148   9.427  18.943  0.00  0.00    +0.000 A 
ATOM     22  C   UNL     1       1.045   9.072  20.293  0.00  0.00    +0.000 A 
ATOM     23  C   UNL     1       1.589   7.869  20.748  0.00  0.00    +0.000 A 
ATOM     24  C   UNL     1       2.227   7.004  19.860  0.00  0.00    +0.000 A 
ATOM     25  C   UNL     1       2.369   7.373  18.522  0.00  0.00    +0.000 A 
ATOM     26  C   UNL     1       1.836   8.579  18.067  0.00  0.00    +0.000 A 
BRANCH  21  28
ATOM     27  C   UNL     1       1.139  11.930  19.122  0.00  0.00    +0.000 C 
ATOM     28  C   UNL     1       0.547  10.711  18.435  0.00  0.00    +0.000 C 
ENDBRANCH  21  28
ENDBRANCH  20  24
ENDBRANCH  19  20
ENDBRANCH  16  19
ENDBRANCH   1  16
TORSDOF 9
ENDMDL
MODEL 5
REMARK VINA RESULT:      -7.1      0.811      1.237
REMARK  Name = 
REMARK  11 active torsions:
REMARK  status: ('A' for Active; 'I' for Inactive)
REMARK    1  A    between atoms: C_1  and  C_2
REMARK    2  A    between atoms: C_2  and  C_3
REMARK    3  A    between atoms: C_6  and  O_7
REMARK    4  A    between atoms: O_7  and  C_8
REMARK    5  A    between atoms: C_8  and  C_9
REMARK    6  A    between atoms: C_9  and  O_10
REMARK    7  A    between atoms: C_9  and  C_11
REMARK    8  A    between atoms: C_11  and  N_12
REMARK    9  A    between atoms: N_15  and  C_16
REMARK   10  A    between atoms: C_19  and  O_20
REMARK   11  A    between atoms: O_20  and  C_21
REMARK                            x       y       z     vdW  Elec       q    Type
REMARK                         _______ _______ _______ _____ _____    ______ ____
ROOT
ATOM      1  C   UNL     1       3.070   3.143  19.187  0.00  0.00    +0.000 C 
ENDROOT
BRANCH   1   2
ATOM      2  N   UNL     1       1.782   3.790  18.864  0.00  0.00    +0.000 NA
ATOM      3  C   UNL     1       1.137   4.365  20.071  0.00  0.00    +0.000 C 
ATOM      4  C   UNL     1       1.924   5.517  20.731  0.00  0.00    +0.000 C 
ATOM      5  N   UNL     1       2.291   6.552  19.752  0.00  0.00    +0.000 N 
ATOM      6  C   UNL     1       2.817   6.090  18.456  0.00  0.00    +0.000 C 
ATOM      7  C   UNL     1       1.977   4.909  17.905  0.00  0.00    +0.000 C 
BRANCH   5   8
ATOM      8  C   UNL     1       1.785   7.836  19.845  0.00  0.00    +0.000 A 
ATOM      9  C   UNL     1       1.232   8.291  21.049  0.00  0.00    +0.000 A 
ATOM     10  C   UNL     1       0.689   9.571  21.160  0.00  0.00    +0.000 A 
ATOM     11  C   UNL     1       0.708  10.440  20.075  0.00  0.00    +0.000 A 
ATOM     12  C   UNL     1       1.241  10.007  18.869  0.00  0.00    +0.000 A 
ATOM     13  C   UNL     1       1.773   8.721  18.757  0.00  0.00    +0.000 A 
BRANCH  11  14
ATOM     14  O   UNL     1       0.139  11.664  20.290  0.00  0.00    +0.000 OA
ATOM     15  C   UNL     1      -1.072  11.904  19.583  0.00  0.00    +0.000 C 
ENDBRANCH  11  14
ENDBRANCH   5   8
ENDBRANCH   1   2
BRANCH   1  16
ATOM     16  C   UNL     1       4.242   3.524  18.256  0.00  0.00    +0.000 C 
BRANCH  16  17
ATOM     17  O   UNL     1       4.491   2.436  17.355  0.00  0.00    +0.000 OA
ATOM     18  H   UNL     1       4.182   2.697  16.470  0.00  0.00    +0.000 HD
ENDBRANCH  16  17
BRANCH  16  19
ATOM     19  C   UNL     1       5.489   3.897  19.067  0.00  0.00    +0.000 C 
BRANCH  19  20
ATOM     20  O   UNL     1       6.572   4.136  18.162  0.00  0.00    +0.000 OA
BRANCH  20  24
ATOM     21  C   UNL     1       7.877   8.092  17.951  0.00  0.00    +0.000 A 
ATOM     22  C   UNL     1       6.927   7.577  17.061  0.00  0.00    +0.000 A 
ATOM     23  C   UNL     1       6.507   6.250  17.169  0.00  0.00    +0.000 A 
ATOM     24  C   UNL     1       7.042   5.420  18.155  0.00  0.00    +0.000 A 
ATOM     25  C   UNL     1       7.957   5.940  19.070  0.00  0.00    +0.000 A 
ATOM     26  C   UNL     1       8.370   7.270  18.970  0.00  0.00    +0.000 A 
BRANCH  21  28
ATOM     27  C   UNL     1       9.146   9.955  19.053  0.00  0.00    +0.000 C 
ATOM     28  C   UNL     1       8.355   9.515  17.832  0.00  0.00    +0.000 C 
ENDBRANCH  21  28
ENDBRANCH  20  24
ENDBRANCH  19  20
ENDBRANCH  16  19
ENDBRANCH   1  16
TORSDOF 9
ENDMDL
MODEL 6
REMARK VINA RESULT:      -6.9      2.619      6.429
REMARK  Name = 
REMARK  11 active torsions:
REMARK  status: ('A' for Active; 'I' for Inactive)
REMARK    1  A    between atoms: C_1  and  C_2
REMARK    2  A    between atoms: C_2  and  C_3
REMARK    3  A    between atoms: C_6  and  O_7
REMARK    4  A    between atoms: O_7  and  C_8
REMARK    5  A    between atoms: C_8  and  C_9
REMARK    6  A    between atoms: C_9  and  O_10
REMARK    7  A    between atoms: C_9  and  C_11
REMARK    8  A    between atoms: C_11  and  N_12
REMARK    9  A    between atoms: N_15  and  C_16
REMARK   10  A    between atoms: C_19  and  O_20
REMARK   11  A    between atoms: O_20  and  C_21
REMARK                            x       y       z     vdW  Elec       q    Type
REMARK                         _______ _______ _______ _____ _____    ______ ____
ROOT
ATOM      1  C   UNL     1       1.842   2.449  19.984  0.00  0.00    +0.000 C 
ENDROOT
BRANCH   1   2
ATOM      2  N   UNL     1       2.983   1.806  19.302  0.00  0.00    +0.000 NA
ATOM      3  C   UNL     1       2.865   1.898  17.825  0.00  0.00    +0.000 C 
ATOM      4  C   UNL     1       2.921   3.336  17.268  0.00  0.00    +0.000 C 
ATOM      5  N   UNL     1       4.089   4.070  17.778  0.00  0.00    +0.000 N 
ATOM      6  C   UNL     1       4.386   3.939  19.215  0.00  0.00    +0.000 C 
ATOM      7  C   UNL     1       4.263   2.463  19.675  0.00  0.00    +0.000 C 
BRANCH   5   8
ATOM      8  C   UNL     1       5.094   4.496  16.927  0.00  0.00    +0.000 A 
ATOM      9  C   UNL     1       5.295   3.855  15.698  0.00  0.00    +0.000 A 
ATOM     10  C   UNL     1       6.320   4.247  14.835  0.00  0.00    +0.000 A 
ATOM     11  C   UNL     1       7.156   5.306  15.170  0.00  0.00    +0.000 A 
ATOM     12  C   UNL     1       6.982   5.947  16.388  0.00  0.00    +0.000 A 
ATOM     13  C   UNL     1       5.963   5.546  17.255  0.00  0.00    +0.000 A 
BRANCH  11  14
ATOM     14  O   UNL     1       8.132   5.597  14.260  0.00  0.00    +0.000 OA
ATOM     15  C   UNL     1       7.821   5.272  12.910  0.00  0.00    +0.000 C 
ENDBRANCH  11  14
ENDBRANCH   5   8
ENDBRANCH   1   2
BRANCH   1  16
ATOM     16  C   UNL     1       2.215   3.635  20.900  0.00  0.00    +0.000 C 
BRANCH  16  17
ATOM     17  O   UNL     1       2.068   3.229  22.268  0.00  0.00    +0.000 OA
ATOM     18  H   UNL     1       1.177   2.853  22.380  0.00  0.00    +0.000 HD
ENDBRANCH  16  17
BRANCH  16  19
ATOM     19  C   UNL     1       1.369   4.871  20.572  0.00  0.00    +0.000 C 
BRANCH  19  20
ATOM     20  O   UNL     1       1.998   6.025  21.139  0.00  0.00    +0.000 OA
BRANCH  20  24
ATOM     21  C   UNL     1       1.293   9.647  19.195  0.00  0.00    +0.000 A 
ATOM     22  C   UNL     1       0.882   9.423  20.513  0.00  0.00    +0.000 A 
ATOM     23  C   UNL     1       1.145   8.200  21.135  0.00  0.00    +0.000 A 
ATOM     24  C   UNL     1       1.805   7.185  20.442  0.00  0.00    +0.000 A 
ATOM     25  C   UNL     1       2.254   7.419  19.142  0.00  0.00    +0.000 A 
ATOM     26  C   UNL     1       2.002   8.645  18.523  0.00  0.00    +0.000 A 
BRANCH  21  28
ATOM     27  C   UNL     1       2.266  11.699  18.128  0.00  0.00    +0.000 C 
ATOM     28  C   UNL     1       0.997  10.953  18.506  0.00  0.00    +0.000 C 
ENDBRANCH  21  28
ENDBRANCH  20  24
ENDBRANCH  19  20
ENDBRANCH  16  19
ENDBRANCH   1  16
TORSDOF 9
ENDMDL
MODEL 7
REMARK VINA RESULT:      -6.7      0.745      1.211
REMARK  Name = 
REMARK  11 active torsions:
REMARK  status: ('A' for Active; 'I' for Inactive)
REMARK    1  A    between atoms: C_1  and  C_2
REMARK    2  A    between atoms: C_2  and  C_3
REMARK    3  A    between atoms: C_6  and  O_7
REMARK    4  A    between atoms: O_7  and  C_8
REMARK    5  A    between atoms: C_8  and  C_9
REMARK    6  A    between atoms: C_9  and  O_10
REMARK    7  A    between atoms: C_9  and  C_11
REMARK    8  A    between atoms: C_11  and  N_12
REMARK    9  A    between atoms: N_15  and  C_16
REMARK   10  A    between atoms: C_19  and  O_20
REMARK   11  A    between atoms: O_20  and  C_21
REMARK                            x       y       z     vdW  Elec       q    Type
REMARK                         _______ _______ _______ _____ _____    ______ ____
ROOT
ATOM      1  C   UNL     1       3.224   3.037  19.330  0.00  0.00    +0.000 C 
ENDROOT
BRANCH   1   2
ATOM      2  N   UNL     1       1.838   3.546  19.358  0.00  0.00    +0.000 NA
ATOM      3  C   UNL     1       1.530   4.236  20.636  0.00  0.00    +0.000 C 
ATOM      4  C   UNL     1       2.353   5.517  20.887  0.00  0.00    +0.000 C 
ATOM      5  N   UNL     1       2.296   6.431  19.736  0.00  0.00    +0.000 N 
ATOM      6  C   UNL     1       2.452   5.834  18.399  0.00  0.00    +0.000 C 
ATOM      7  C   UNL     1       1.615   4.534  18.270  0.00  0.00    +0.000 C 
BRANCH   5   8
ATOM      8  C   UNL     1       1.708   7.679  19.842  0.00  0.00    +0.000 A 
ATOM      9  C   UNL     1       1.680   8.541  18.739  0.00  0.00    +0.000 A 
ATOM     10  C   UNL     1       1.119   9.816  18.828  0.00  0.00    +0.000 A 
ATOM     11  C   UNL     1       0.549  10.252  20.019  0.00  0.00    +0.000 A 
ATOM     12  C   UNL     1       0.576   9.419  21.128  0.00  0.00    +0.000 A 
ATOM     13  C   UNL     1       1.149   8.148  21.039  0.00  0.00    +0.000 A 
BRANCH  11  14
ATOM     14  O   UNL     1       0.040  11.520  19.999  0.00  0.00    +0.000 OA
ATOM     15  C   UNL     1      -0.086  12.104  18.708  0.00  0.00    +0.000 C 
ENDBRANCH  11  14
ENDBRANCH   5   8
ENDBRANCH   1   2
BRANCH   1  16
ATOM     16  C   UNL     1       3.614   2.276  18.045  0.00  0.00    +0.000 C 
BRANCH  16  17
ATOM     17  O   UNL     1       3.708   0.876  18.345  0.00  0.00    +0.000 OA
ATOM     18  H   UNL     1       3.197   0.703  19.155  0.00  0.00    +0.000 HD
ENDBRANCH  16  17
BRANCH  16  19
ATOM     19  C   UNL     1       4.916   2.827  17.452  0.00  0.00    +0.000 C 
BRANCH  19  20
ATOM     20  O   UNL     1       4.657   4.119  16.892  0.00  0.00    +0.000 OA
BRANCH  20  24
ATOM     21  C   UNL     1       7.516   6.925  18.051  0.00  0.00    +0.000 A 
ATOM     22  C   UNL     1       7.275   5.763  18.794  0.00  0.00    +0.000 A 
ATOM     23  C   UNL     1       6.317   4.841  18.368  0.00  0.00    +0.000 A 
ATOM     24  C   UNL     1       5.579   5.077  17.208  0.00  0.00    +0.000 A 
ATOM     25  C   UNL     1       5.845   6.212  16.443  0.00  0.00    +0.000 A 
ATOM     26  C   UNL     1       6.811   7.129  16.860  0.00  0.00    +0.000 A 
BRANCH  21  28
ATOM     27  C   UNL     1       8.221   9.332  17.992  0.00  0.00    +0.000 C 
ATOM     28  C   UNL     1       8.532   7.937  18.510  0.00  0.00    +0.000 C 
ENDBRANCH  21  28
ENDBRANCH  20  24
ENDBRANCH  19  20
ENDBRANCH  16  19
ENDBRANCH   1  16
TORSDOF 9
ENDMDL
MODEL 8
REMARK VINA RESULT:      -6.7      2.083      3.082
REMARK  Name = 
REMARK  11 active torsions:
REMARK  status: ('A' for Active; 'I' for Inactive)
REMARK    1  A    between atoms: C_1  and  C_2
REMARK    2  A    between atoms: C_2  and  C_3
REMARK    3  A    between atoms: C_6  and  O_7
REMARK    4  A    between atoms: O_7  and  C_8
REMARK    5  A    between atoms: C_8  and  C_9
REMARK    6  A    between atoms: C_9  and  O_10
REMARK    7  A    between atoms: C_9  and  C_11
REMARK    8  A    between atoms: C_11  and  N_12
REMARK    9  A    between atoms: N_15  and  C_16
REMARK   10  A    between atoms: C_19  and  O_20
REMARK   11  A    between atoms: O_20  and  C_21
REMARK                            x       y       z     vdW  Elec       q    Type
REMARK                         _______ _______ _______ _____ _____    ______ ____
ROOT
ATOM      1  C   UNL     1       3.400   4.188  19.912  0.00  0.00    +0.000 C 
ENDROOT
BRANCH   1   2
ATOM      2  N   UNL     1       2.104   4.576  19.319  0.00  0.00    +0.000 NA
ATOM      3  C   UNL     1       1.154   5.070  20.347  0.00  0.00    +0.000 C 
ATOM      4  C   UNL     1       1.593   6.370  21.052  0.00  0.00    +0.000 C 
ATOM      5  N   UNL     1       1.954   7.416  20.083  0.00  0.00    +0.000 N 
ATOM      6  C   UNL     1       2.786   7.009  18.939  0.00  0.00    +0.000 C 
ATOM      7  C   UNL     1       2.281   5.674  18.332  0.00  0.00    +0.000 C 
BRANCH   5   8
ATOM      8  C   UNL     1       1.225   8.590  19.993  0.00  0.00    +0.000 A 
ATOM      9  C   UNL     1       1.332   9.399  18.855  0.00  0.00    +0.000 A 
ATOM     10  C   UNL     1       0.630  10.601  18.751  0.00  0.00    +0.000 A 
ATOM     11  C   UNL     1      -0.217  11.012  19.774  0.00  0.00    +0.000 A 
ATOM     12  C   UNL     1      -0.329  10.231  20.915  0.00  0.00    +0.000 A 
ATOM     13  C   UNL     1       0.384   9.034  21.022  0.00  0.00    +0.000 A 
BRANCH  11  14
ATOM     14  O   UNL     1      -0.845  12.209  19.574  0.00  0.00    +0.000 OA
ATOM     15  C   UNL     1      -0.835  12.684  18.233  0.00  0.00    +0.000 C 
ENDBRANCH  11  14
ENDBRANCH   5   8
ENDBRANCH   1   2
BRANCH   1  16
ATOM     16  C   UNL     1       4.531   3.928  18.893  0.00  0.00    +0.000 C 
BRANCH  16  17
ATOM     17  O   UNL     1       4.808   2.521  18.855  0.00  0.00    +0.000 OA
ATOM     18  H   UNL     1       4.888   2.251  17.924  0.00  0.00    +0.000 HD
ENDBRANCH  16  17
BRANCH  16  19
ATOM     19  C   UNL     1       5.779   4.751  19.234  0.00  0.00    +0.000 C 
BRANCH  19  20
ATOM     20  O   UNL     1       5.866   5.855  18.326  0.00  0.00    +0.000 OA
BRANCH  20  24
ATOM     21  C   UNL     1       6.446   4.672  14.369  0.00  0.00    +0.000 A 
ATOM     22  C   UNL     1       7.264   4.210  15.407  0.00  0.00    +0.000 A 
ATOM     23  C   UNL     1       7.032   4.620  16.722  0.00  0.00    +0.000 A 
ATOM     24  C   UNL     1       5.995   5.507  17.010  0.00  0.00    +0.000 A 
ATOM     25  C   UNL     1       5.152   5.937  15.986  0.00  0.00    +0.000 A 
ATOM     26  C   UNL     1       5.375   5.519  14.673  0.00  0.00    +0.000 A 
BRANCH  21  28
ATOM     27  C   UNL     1       5.624   3.311  12.428  0.00  0.00    +0.000 C 
ATOM     28  C   UNL     1       6.698   4.254  12.944  0.00  0.00    +0.000 C 
ENDBRANCH  21  28
ENDBRANCH  20  24
ENDBRANCH  19  20
ENDBRANCH  16  19
ENDBRANCH   1  16
TORSDOF 9
ENDMDL
MODEL 9
REMARK VINA RESULT:      -6.5      2.210      2.905
REMARK  Name = 
REMARK  11 active torsions:
REMARK  status: ('A' for Active; 'I' for Inactive)
REMARK    1  A    between atoms: C_1  and  C_2
REMARK    2  A    between atoms: C_2  and  C_3
REMARK    3  A    between atoms: C_6  and  O_7
REMARK    4  A    between atoms: O_7  and  C_8
REMARK    5  A    between atoms: C_8  and  C_9
REMARK    6  A    between atoms: C_9  and  O_10
REMARK    7  A    between atoms: C_9  and  C_11
REMARK    8  A    between atoms: C_11  and  N_12
REMARK    9  A    between atoms: N_15  and  C_16
REMARK   10  A    between atoms: C_19  and  O_20
REMARK   11  A    between atoms: O_20  and  C_21
REMARK                            x       y       z     vdW  Elec       q    Type
REMARK                         _______ _______ _______ _____ _____    ______ ____
ROOT
ATOM      1  C   UNL     1       3.346   3.868  19.809  0.00  0.00    +0.000 C 
ENDROOT
BRANCH   1   2
ATOM      2  N   UNL     1       2.034   4.318  19.302  0.00  0.00    +0.000 NA
ATOM      3  C   UNL     1       1.228   4.970  20.365  0.00  0.00    +0.000 C 
ATOM      4  C   UNL     1       1.832   6.279  20.915  0.00  0.00    +0.000 C 
ATOM      5  N   UNL     1       2.179   7.212  19.832  0.00  0.00    +0.000 N 
ATOM      6  C   UNL     1       2.864   6.647  18.657  0.00  0.00    +0.000 C 
ATOM      7  C   UNL     1       2.200   5.317  18.214  0.00  0.00    +0.000 C 
BRANCH   5   8
ATOM      8  C   UNL     1       1.539   8.433  19.706  0.00  0.00    +0.000 A 
ATOM      9  C   UNL     1       0.809   8.960  20.778  0.00  0.00    +0.000 A 
ATOM     10  C   UNL     1       0.131  10.174  20.667  0.00  0.00    +0.000 A 
ATOM     11  C   UNL     1       0.186  10.906  19.487  0.00  0.00    +0.000 A 
ATOM     12  C   UNL     1       0.895  10.397  18.407  0.00  0.00    +0.000 A 
ATOM     13  C   UNL     1       1.563   9.175  18.517  0.00  0.00    +0.000 A 
BRANCH  11  14
ATOM     14  O   UNL     1      -0.523  12.073  19.482  0.00  0.00    +0.000 OA
ATOM     15  C   UNL     1      -1.691  12.072  18.670  0.00  0.00    +0.000 C 
ENDBRANCH  11  14
ENDBRANCH   5   8
ENDBRANCH   1   2
BRANCH   1  16
ATOM     16  C   UNL     1       3.898   2.589  19.143  0.00  0.00    +0.000 C 
BRANCH  16  17
ATOM     17  O   UNL     1       4.956   2.062  19.955  0.00  0.00    +0.000 OA
ATOM     18  H   UNL     1       5.341   2.795  20.467  0.00  0.00    +0.000 HD
ENDBRANCH  16  17
BRANCH  16  19
ATOM     19  C   UNL     1       4.358   2.871  17.708  0.00  0.00    +0.000 C 
BRANCH  19  20
ATOM     20  O   UNL     1       5.300   3.949  17.729  0.00  0.00    +0.000 OA
BRANCH  20  24
ATOM     21  C   UNL     1       6.880   4.706  13.944  0.00  0.00    +0.000 A 
ATOM     22  C   UNL     1       5.652   4.058  14.117  0.00  0.00    +0.000 A 
ATOM     23  C   UNL     1       5.150   3.832  15.401  0.00  0.00    +0.000 A 
ATOM     24  C   UNL     1       5.876   4.233  16.522  0.00  0.00    +0.000 A 
ATOM     25  C   UNL     1       7.080   4.916  16.354  0.00  0.00    +0.000 A 
ATOM     26  C   UNL     1       7.578   5.154  15.072  0.00  0.00    +0.000 A 
BRANCH  21  28
ATOM     27  C   UNL     1       8.569   5.958  12.575  0.00  0.00    +0.000 C 
ATOM     28  C   UNL     1       7.443   4.937  12.567  0.00  0.00    +0.000 C 
ENDBRANCH  21  28
ENDBRANCH  20  24
ENDBRANCH  19  20
ENDBRANCH  16  19
ENDBRANCH   1  16
TORSDOF 9
ENDMDL
