MODEL 1
REMARK VINA RESULT:      -7.0      0.000      0.000
REMARK  Name = 
REMARK  10 active torsions:
REMARK  status: ('A' for Active; 'I' for Inactive)
REMARK    1  A    between atoms: C_1  and  C_2
REMARK    2  A    between atoms: C_2  and  C_3
REMARK    3  A    between atoms: C_7  and  N_8
REMARK    4  A    between atoms: C_9  and  C_11
REMARK    5  A    between atoms: C_13  and  O_14
REMARK    6  A    between atoms: O_14  and  C_15
REMARK    7  A    between atoms: C_16  and  O_17
REMARK    8  A    between atoms: O_17  and  C_18
REMARK    9  A    between atoms: C_19  and  O_20
REMARK   10  A    between atoms: O_20  and  C_21
REMARK                            x       y       z     vdW  Elec       q    Type
REMARK                         _______ _______ _______ _____ _____    ______ ____
ROOT
ATOM      1  N   UNL     1       1.834   8.567  17.715  0.00  0.00    +0.000 N 
ATOM      2  C   UNL     1       2.339   7.641  18.610  0.00  0.00    +0.000 C 
ATOM      3  O   UNL     1       2.063   7.566  19.802  0.00  0.00    +0.000 OA
ATOM      4  H   UNL     1       2.050   8.470  16.734  0.00  0.00    +0.000 HD
ENDROOT
BRANCH   1   9
ATOM      5  C   UNL     1      -1.238  10.623  18.114  0.00  0.00    +0.000 A 
ATOM      6  C   UNL     1      -0.708  11.788  18.678  0.00  0.00    +0.000 A 
ATOM      7  C   UNL     1       0.660  11.904  18.912  0.00  0.00    +0.000 A 
ATOM      8  C   UNL     1       1.517  10.849  18.602  0.00  0.00    +0.000 A 
ATOM      9  C   UNL     1       1.017   9.670  18.053  0.00  0.00    +0.000 A 
ATOM     10  C   UNL     1      -0.355   9.571  17.793  0.00  0.00    +0.000 A 
BRANCH   5  12
ATOM     11  C   UNL     1      -3.128  10.388  16.371  0.00  0.00    +0.000 C 
ATOM     12  C   UNL     1      -2.711  10.433  17.835  0.00  0.00    +0.000 C 
ENDBRANCH   5  12
ENDBRANCH   1   9
BRANCH   2  13
ATOM     13  C   UNL     1       3.315   6.650  18.077  0.00  0.00    +0.000 A 
ATOM     14  C   UNL     1       4.493   7.170  17.533  0.00  0.00    +0.000 A 
ATOM     15  C   UNL     1       5.472   6.327  17.017  0.00  0.00    +0.000 A 
ATOM     16  C   UNL     1       5.260   4.930  17.005  0.00  0.00    +0.000 A 
ATOM     17  C   UNL     1       4.068   4.400  17.552  0.00  0.00    +0.000 A 
ATOM     18  C   UNL     1       3.116   5.267  18.109  0.00  0.00    +0.000 A 
BRANCH  15  19
ATOM     19  O   UNL     1       6.655   6.796  16.488  0.00  0.00    +0.000 OA
ATOM     20  C   UNL     1       7.610   7.280  17.432  0.00  0.00    +0.000 C 
ENDBRANCH  15  19
BRANCH  16  21
ATOM     21  O   UNL     1       6.243   4.200  16.381  0.00  0.00    +0.000 OA
ATOM     22  C   UNL     1       6.060   3.908  15.002  0.00  0.00    +0.000 C 
ENDBRANCH  16  21
BRANCH  17  23
ATOM     23  O   UNL     1       3.881   3.043  17.486  0.00  0.00    +0.000 OA
ATOM     24  C   UNL     1       2.561   2.529  17.606  0.00  0.00    +0.000 C 
ENDBRANCH  17  23
ENDBRANCH   2  13
TORSDOF 6
ENDMDL
MODEL 2
REMARK VINA RESULT:      -7.0      1.668      2.292
REMARK  Name = 
REMARK  10 active torsions:
REMARK  status: ('A' for Active; 'I' for Inactive)
REMARK    1  A    between atoms: C_1  and  C_2
REMARK    2  A    between atoms: C_2  and  C_3
REMARK    3  A    between atoms: C_7  and  N_8
REMARK    4  A    between atoms: C_9  and  C_11
REMARK    5  A    between atoms: C_13  and  O_14
REMARK    6  A    between atoms: O_14  and  C_15
REMARK    7  A    between atoms: C_16  and  O_17
REMARK    8  A    between atoms: O_17  and  C_18
REMARK    9  A    between atoms: C_19  and  O_20
REMARK   10  A    between atoms: O_20  and  C_21
REMARK                            x       y       z     vdW  Elec       q    Type
REMARK                         _______ _______ _______ _____ _____    ______ ____
ROOT
ATOM      1  N   UNL     1       1.246   9.161  19.234  0.00  0.00    +0.000 N 
ATOM      2  C   UNL     1       2.069   8.587  18.282  0.00  0.00    +0.000 C 
ATOM      3  O   UNL     1       2.349   9.064  17.188  0.00  0.00    +0.000 OA
ATOM      4  H   UNL     1       1.170   8.728  20.142  0.00  0.00    +0.000 HD
ENDROOT
BRANCH   1   9
ATOM      5  C   UNL     1      -1.511  11.366  18.067  0.00  0.00    +0.000 A 
ATOM      6  C   UNL     1      -1.125  12.591  18.620  0.00  0.00    +0.000 A 
ATOM      7  C   UNL     1       0.049  12.697  19.362  0.00  0.00    +0.000 A 
ATOM      8  C   UNL     1       0.846  11.573  19.577  0.00  0.00    +0.000 A 
ATOM      9  C   UNL     1       0.480  10.335  19.052  0.00  0.00    +0.000 A 
ATOM     10  C   UNL     1      -0.685  10.242  18.283  0.00  0.00    +0.000 A 
BRANCH   5  12
ATOM     11  C   UNL     1      -2.841   9.945  16.371  0.00  0.00    +0.000 C 
ATOM     12  C   UNL     1      -2.772  11.184  17.254  0.00  0.00    +0.000 C 
ENDBRANCH   5  12
ENDBRANCH   1   9
BRANCH   2  13
ATOM     13  C   UNL     1       2.661   7.261  18.613  0.00  0.00    +0.000 A 
ATOM     14  C   UNL     1       3.657   6.793  17.752  0.00  0.00    +0.000 A 
ATOM     15  C   UNL     1       4.279   5.570  17.979  0.00  0.00    +0.000 A 
ATOM     16  C   UNL     1       3.875   4.769  19.070  0.00  0.00    +0.000 A 
ATOM     17  C   UNL     1       2.864   5.237  19.942  0.00  0.00    +0.000 A 
ATOM     18  C   UNL     1       2.284   6.495  19.719  0.00  0.00    +0.000 A 
BRANCH  15  19
ATOM     19  O   UNL     1       5.278   5.080  17.166  0.00  0.00    +0.000 OA
ATOM     20  C   UNL     1       5.397   5.698  15.884  0.00  0.00    +0.000 C 
ENDBRANCH  15  19
BRANCH  16  21
ATOM     21  O   UNL     1       4.481   3.537  19.142  0.00  0.00    +0.000 OA
ATOM     22  C   UNL     1       3.805   2.444  18.536  0.00  0.00    +0.000 C 
ENDBRANCH  16  21
BRANCH  17  23
ATOM     23  O   UNL     1       2.471   4.413  20.967  0.00  0.00    +0.000 OA
ATOM     24  C   UNL     1       1.240   3.713  20.844  0.00  0.00    +0.000 C 
ENDBRANCH  17  23
ENDBRANCH   2  13
TORSDOF 6
ENDMDL
MODEL 3
REMARK VINA RESULT:      -7.0      0.310      2.699
REMARK  Name = 
REMARK  10 active torsions:
REMARK  status: ('A' for Active; 'I' for Inactive)
REMARK    1  A    between atoms: C_1  and  C_2
REMARK    2  A    between atoms: C_2  and  C_3
REMARK    3  A    between atoms: C_7  and  N_8
REMARK    4  A    between atoms: C_9  and  C_11
REMARK    5  A    between atoms: C_13  and  O_14
REMARK    6  A    between atoms: O_14  and  C_15
REMARK    7  A    between atoms: C_16  and  O_17
REMARK    8  A    between atoms: O_17  and  C_18
REMARK    9  A    between atoms: C_19  and  O_20
REMARK   10  A    between atoms: O_20  and  C_21
REMARK                            x       y       z     vdW  Elec       q    Type
REMARK                         _______ _______ _______ _____ _____    ______ ____
ROOT
ATOM      1  N   UNL     1       1.756   8.677  17.835  0.00  0.00    +0.000 N 
ATOM      2  C   UNL     1       2.293   7.675  18.623  0.00  0.00    +0.000 C 
ATOM      3  O   UNL     1       2.008   7.447  19.793  0.00  0.00    +0.000 OA
ATOM      4  H   UNL     1       1.989   8.706  16.853  0.00  0.00    +0.000 HD
ENDROOT
BRANCH   1   9
ATOM      5  C   UNL     1      -1.376  10.635  18.256  0.00  0.00    +0.000 A 
ATOM      6  C   UNL     1      -0.940  11.655  19.109  0.00  0.00    +0.000 A 
ATOM      7  C   UNL     1       0.386  11.708  19.532  0.00  0.00    +0.000 A 
ATOM      8  C   UNL     1       1.293  10.731  19.123  0.00  0.00    +0.000 A 
ATOM      9  C   UNL     1       0.885   9.694  18.286  0.00  0.00    +0.000 A 
ATOM     10  C   UNL     1      -0.441   9.664  17.840  0.00  0.00    +0.000 A 
BRANCH   5  12
ATOM     11  C   UNL     1      -2.998   9.855  16.406  0.00  0.00    +0.000 C 
ATOM     12  C   UNL     1      -2.799  10.521  17.762  0.00  0.00    +0.000 C 
ENDBRANCH   5  12
ENDBRANCH   1   9
BRANCH   2  13
ATOM     13  C   UNL     1       3.321   6.799  17.994  0.00  0.00    +0.000 A 
ATOM     14  C   UNL     1       3.015   5.438  17.922  0.00  0.00    +0.000 A 
ATOM     15  C   UNL     1       3.905   4.537  17.345  0.00  0.00    +0.000 A 
ATOM     16  C   UNL     1       5.150   4.995  16.860  0.00  0.00    +0.000 A 
ATOM     17  C   UNL     1       5.465   6.372  16.933  0.00  0.00    +0.000 A 
ATOM     18  C   UNL     1       4.532   7.268  17.478  0.00  0.00    +0.000 A 
BRANCH  15  19
ATOM     19  O   UNL     1       3.636   3.190  17.237  0.00  0.00    +0.000 OA
ATOM     20  C   UNL     1       2.374   2.764  17.751  0.00  0.00    +0.000 C 
ENDBRANCH  15  19
BRANCH  16  21
ATOM     21  O   UNL     1       5.993   4.009  16.405  0.00  0.00    +0.000 OA
ATOM     22  C   UNL     1       6.139   3.876  14.998  0.00  0.00    +0.000 C 
ENDBRANCH  16  21
BRANCH  17  23
ATOM     23  O   UNL     1       6.700   6.771  16.488  0.00  0.00    +0.000 OA
ATOM     24  C   UNL     1       7.617   7.321  17.425  0.00  0.00    +0.000 C 
ENDBRANCH  17  23
ENDBRANCH   2  13
TORSDOF 6
ENDMDL
MODEL 4
REMARK VINA RESULT:      -6.9      3.149      8.039
REMARK  Name = 
REMARK  10 active torsions:
REMARK  status: ('A' for Active; 'I' for Inactive)
REMARK    1  A    between atoms: C_1  and  C_2
REMARK    2  A    between atoms: C_2  and  C_3
REMARK    3  A    between atoms: C_7  and  N_8
REMARK    4  A    between atoms: C_9  and  C_11
REMARK    5  A    between atoms: C_13  and  O_14
REMARK    6  A    between atoms: O_14  and  C_15
REMARK    7  A    between atoms: C_16  and  O_17
REMARK    8  A    between atoms: O_17  and  C_18
REMARK    9  A    between atoms: C_19  and  O_20
REMARK   10  A    between atoms: O_20  and  C_21
REMARK                            x       y       z     vdW  Elec       q    Type
REMARK                         _______ _______ _______ _____ _____    ______ ____
ROOT
ATOM      1  N   UNL     1       5.321   4.806  15.438  0.00  0.00    +0.000 N 
ATOM      2  C   UNL     1       5.847   4.678  16.711  0.00  0.00    +0.000 C 
ATOM      3  O   UNL     1       7.023   4.471  16.987  0.00  0.00    +0.000 OA
ATOM      4  H   UNL     1       4.355   5.080  15.331  0.00  0.00    +0.000 HD
ENDROOT
BRANCH   1   9
ATOM      5  C   UNL     1       6.220   3.297  12.161  0.00  0.00    +0.000 A 
ATOM      6  C   UNL     1       7.347   4.053  11.819  0.00  0.00    +0.000 A 
ATOM      7  C   UNL     1       7.820   5.046  12.672  0.00  0.00    +0.000 A 
ATOM      8  C   UNL     1       7.163   5.312  13.873  0.00  0.00    +0.000 A 
ATOM      9  C   UNL     1       6.029   4.586  14.234  0.00  0.00    +0.000 A 
ATOM     10  C   UNL     1       5.576   3.569  13.387  0.00  0.00    +0.000 A 
BRANCH   5  12
ATOM     11  C   UNL     1       6.527   0.972  11.082  0.00  0.00    +0.000 C 
ATOM     12  C   UNL     1       5.656   2.206  11.281  0.00  0.00    +0.000 C 
ENDBRANCH   5  12
ENDBRANCH   1   9
BRANCH   2  13
ATOM     13  C   UNL     1       4.894   4.792  17.849  0.00  0.00    +0.000 A 
ATOM     14  C   UNL     1       4.687   3.634  18.604  0.00  0.00    +0.000 A 
ATOM     15  C   UNL     1       3.822   3.638  19.693  0.00  0.00    +0.000 A 
ATOM     16  C   UNL     1       3.113   4.815  20.021  0.00  0.00    +0.000 A 
ATOM     17  C   UNL     1       3.317   5.989  19.259  0.00  0.00    +0.000 A 
ATOM     18  C   UNL     1       4.229   5.972  18.193  0.00  0.00    +0.000 A 
BRANCH  15  19
ATOM     19  O   UNL     1       3.602   2.525  20.475  0.00  0.00    +0.000 OA
ATOM     20  C   UNL     1       4.746   1.708  20.730  0.00  0.00    +0.000 C 
ENDBRANCH  15  19
BRANCH  16  21
ATOM     21  O   UNL     1       2.210   4.681  21.050  0.00  0.00    +0.000 OA
ATOM     22  C   UNL     1       0.922   4.179  20.722  0.00  0.00    +0.000 C 
ENDBRANCH  16  21
BRANCH  17  23
ATOM     23  O   UNL     1       2.581   7.100  19.583  0.00  0.00    +0.000 OA
ATOM     24  C   UNL     1       2.228   8.010  18.550  0.00  0.00    +0.000 C 
ENDBRANCH  17  23
ENDBRANCH   2  13
TORSDOF 6
ENDMDL
MODEL 5
REMARK VINA RESULT:      -6.8      1.685      3.184
REMARK  Name = 
REMARK  10 active torsions:
REMARK  status: ('A' for Active; 'I' for Inactive)
REMARK    1  A    between atoms: C_1  and  C_2
REMARK    2  A    between atoms: C_2  and  C_3
REMARK    3  A    between atoms: C_7  and  N_8
REMARK    4  A    between atoms: C_9  and  C_11
REMARK    5  A    between atoms: C_13  and  O_14
REMARK    6  A    between atoms: O_14  and  C_15
REMARK    7  A    between atoms: C_16  and  O_17
REMARK    8  A    between atoms: O_17  and  C_18
REMARK    9  A    between atoms: C_19  and  O_20
REMARK   10  A    between atoms: O_20  and  C_21
REMARK                            x       y       z     vdW  Elec       q    Type
REMARK                         _______ _______ _______ _____ _____    ______ ____
ROOT
ATOM      1  N   UNL     1       1.358   9.034  19.205  0.00  0.00    +0.000 N 
ATOM      2  C   UNL     1       2.196   8.543  18.221  0.00  0.00    +0.000 C 
ATOM      3  O   UNL     1       2.461   9.095  17.159  0.00  0.00    +0.000 OA
ATOM      4  H   UNL     1       1.294   8.544  20.085  0.00  0.00    +0.000 HD
ENDROOT
BRANCH   1   9
ATOM      5  C   UNL     1      -1.447  11.234  18.147  0.00  0.00    +0.000 A 
ATOM      6  C   UNL     1      -1.110  12.427  18.797  0.00  0.00    +0.000 A 
ATOM      7  C   UNL     1       0.046  12.512  19.569  0.00  0.00    +0.000 A 
ATOM      8  C   UNL     1       0.874  11.401  19.717  0.00  0.00    +0.000 A 
ATOM      9  C   UNL     1       0.558  10.194  19.095  0.00  0.00    +0.000 A 
ATOM     10  C   UNL     1      -0.589  10.124  18.296  0.00  0.00    +0.000 A 
BRANCH   5  12
ATOM     11  C   UNL     1      -2.658   9.966  16.253  0.00  0.00    +0.000 C 
ATOM     12  C   UNL     1      -2.685  11.076  17.296  0.00  0.00    +0.000 C 
ENDBRANCH   5  12
ENDBRANCH   1   9
BRANCH   2  13
ATOM     13  C   UNL     1       2.826   7.217  18.471  0.00  0.00    +0.000 A 
ATOM     14  C   UNL     1       2.364   6.510  19.583  0.00  0.00    +0.000 A 
ATOM     15  C   UNL     1       2.882   5.258  19.899  0.00  0.00    +0.000 A 
ATOM     16  C   UNL     1       3.916   4.708  19.108  0.00  0.00    +0.000 A 
ATOM     17  C   UNL     1       4.389   5.422  17.982  0.00  0.00    +0.000 A 
ATOM     18  C   UNL     1       3.818   6.662  17.658  0.00  0.00    +0.000 A 
BRANCH  15  19
ATOM     19  O   UNL     1       2.443   4.519  20.975  0.00  0.00    +0.000 OA
ATOM     20  C   UNL     1       1.207   3.827  20.793  0.00  0.00    +0.000 C 
ENDBRANCH  15  19
BRANCH  16  21
ATOM     21  O   UNL     1       4.425   3.516  19.567  0.00  0.00    +0.000 OA
ATOM     22  C   UNL     1       3.908   2.324  18.992  0.00  0.00    +0.000 C 
ENDBRANCH  16  21
BRANCH  17  23
ATOM     23  O   UNL     1       5.421   4.873  17.264  0.00  0.00    +0.000 OA
ATOM     24  C   UNL     1       6.631   5.608  17.138  0.00  0.00    +0.000 C 
ENDBRANCH  17  23
ENDBRANCH   2  13
TORSDOF 6
ENDMDL
MODEL 6
REMARK VINA RESULT:      -6.8      3.404      7.623
REMARK  Name = 
REMARK  10 active torsions:
REMARK  status: ('A' for Active; 'I' for Inactive)
REMARK    1  A    between atoms: C_1  and  C_2
REMARK    2  A    between atoms: C_2  and  C_3
REMARK    3  A    between atoms: C_7  and  N_8
REMARK    4  A    between atoms: C_9  and  C_11
REMARK    5  A    between atoms: C_13  and  O_14
REMARK    6  A    between atoms: O_14  and  C_15
REMARK    7  A    between atoms: C_16  and  O_17
REMARK    8  A    between atoms: O_17  and  C_18
REMARK    9  A    between atoms: C_19  and  O_20
REMARK   10  A    between atoms: O_20  and  C_21
REMARK                            x       y       z     vdW  Elec       q    Type
REMARK                         _______ _______ _______ _____ _____    ______ ____
ROOT
ATOM      1  N   UNL     1       5.012   4.217  15.876  0.00  0.00    +0.000 N 
ATOM      2  C   UNL     1       4.637   5.322  16.619  0.00  0.00    +0.000 C 
ATOM      3  O   UNL     1       4.769   6.494  16.285  0.00  0.00    +0.000 OA
ATOM      4  H   UNL     1       4.760   3.297  16.204  0.00  0.00    +0.000 HD
ENDROOT
BRANCH   1   9
ATOM      5  C   UNL     1       5.864   3.574  12.315  0.00  0.00    +0.000 A 
ATOM      6  C   UNL     1       7.081   4.255  12.204  0.00  0.00    +0.000 A 
ATOM      7  C   UNL     1       7.629   4.910  13.303  0.00  0.00    +0.000 A 
ATOM      8  C   UNL     1       6.960   4.911  14.526  0.00  0.00    +0.000 A 
ATOM      9  C   UNL     1       5.737   4.255  14.664  0.00  0.00    +0.000 A 
ATOM     10  C   UNL     1       5.206   3.573  13.563  0.00  0.00    +0.000 A 
BRANCH   5  12
ATOM     11  C   UNL     1       3.754   3.172  10.883  0.00  0.00    +0.000 C 
ATOM     12  C   UNL     1       5.215   2.844  11.161  0.00  0.00    +0.000 C 
ENDBRANCH   5  12
ENDBRANCH   1   9
BRANCH   2  13
ATOM     13  C   UNL     1       4.023   5.063  17.951  0.00  0.00    +0.000 A 
ATOM     14  C   UNL     1       4.353   3.850  18.561  0.00  0.00    +0.000 A 
ATOM     15  C   UNL     1       3.839   3.517  19.810  0.00  0.00    +0.000 A 
ATOM     16  C   UNL     1       2.941   4.397  20.456  0.00  0.00    +0.000 A 
ATOM     17  C   UNL     1       2.602   5.624  19.840  0.00  0.00    +0.000 A 
ATOM     18  C   UNL     1       3.170   5.958  18.602  0.00  0.00    +0.000 A 
BRANCH  15  19
ATOM     19  O   UNL     1       4.152   2.341  20.455  0.00  0.00    +0.000 OA
ATOM     20  C   UNL     1       4.515   1.246  19.613  0.00  0.00    +0.000 C 
ENDBRANCH  15  19
BRANCH  16  21
ATOM     21  O   UNL     1       2.415   3.925  21.635  0.00  0.00    +0.000 OA
ATOM     22  C   UNL     1       1.330   3.011  21.543  0.00  0.00    +0.000 C 
ENDBRANCH  16  21
BRANCH  17  23
ATOM     23  O   UNL     1       1.697   6.432  20.480  0.00  0.00    +0.000 OA
ATOM     24  C   UNL     1       1.791   7.840  20.300  0.00  0.00    +0.000 C 
ENDBRANCH  17  23
ENDBRANCH   2  13
TORSDOF 6
ENDMDL
MODEL 7
REMARK VINA RESULT:      -6.8      0.780      2.170
REMARK  Name = 
REMARK  10 active torsions:
REMARK  status: ('A' for Active; 'I' for Inactive)
REMARK    1  A    between atoms: C_1  and  C_2
REMARK    2  A    between atoms: C_2  and  C_3
REMARK    3  A    between atoms: C_7  and  N_8
REMARK    4  A    between atoms: C_9  and  C_11
REMARK    5  A    between atoms: C_13  and  O_14
REMARK    6  A    between atoms: O_14  and  C_15
REMARK    7  A    between atoms: C_16  and  O_17
REMARK    8  A    between atoms: O_17  and  C_18
REMARK    9  A    between atoms: C_19  and  O_20
REMARK   10  A    between atoms: O_20  and  C_21
REMARK                            x       y       z     vdW  Elec       q    Type
REMARK                         _______ _______ _______ _____ _____    ______ ____
ROOT
ATOM      1  N   UNL     1       1.988   8.608  17.687  0.00  0.00    +0.000 N 
ATOM      2  C   UNL     1       2.409   7.616  18.554  0.00  0.00    +0.000 C 
ATOM      3  O   UNL     1       2.070   7.490  19.725  0.00  0.00    +0.000 OA
ATOM      4  H   UNL     1       2.251   8.553  16.714  0.00  0.00    +0.000 HD
ENDROOT
BRANCH   1   9
ATOM      5  C   UNL     1       1.142  12.041  18.835  0.00  0.00    +0.000 A 
ATOM      6  C   UNL     1      -0.256  12.005  18.777  0.00  0.00    +0.000 A 
ATOM      7  C   UNL     1      -0.920  10.848  18.377  0.00  0.00    +0.000 A 
ATOM      8  C   UNL     1      -0.195   9.714  18.011  0.00  0.00    +0.000 A 
ATOM      9  C   UNL     1       1.198   9.724  18.044  0.00  0.00    +0.000 A 
ATOM     10  C   UNL     1       1.858  10.881  18.475  0.00  0.00    +0.000 A 
BRANCH   5  12
ATOM     11  C   UNL     1       3.003  13.749  18.303  0.00  0.00    +0.000 C 
ATOM     12  C   UNL     1       1.922  13.264  19.260  0.00  0.00    +0.000 C 
ENDBRANCH   5  12
ENDBRANCH   1   9
BRANCH   2  13
ATOM     13  C   UNL     1       3.372   6.614  18.017  0.00  0.00    +0.000 A 
ATOM     14  C   UNL     1       4.572   7.117  17.508  0.00  0.00    +0.000 A 
ATOM     15  C   UNL     1       5.541   6.264  16.991  0.00  0.00    +0.000 A 
ATOM     16  C   UNL     1       5.296   4.873  16.942  0.00  0.00    +0.000 A 
ATOM     17  C   UNL     1       4.082   4.360  17.454  0.00  0.00    +0.000 A 
ATOM     18  C   UNL     1       3.139   5.236  18.013  0.00  0.00    +0.000 A 
BRANCH  15  19
ATOM     19  O   UNL     1       6.744   6.716  16.495  0.00  0.00    +0.000 OA
ATOM     20  C   UNL     1       7.583   7.402  17.426  0.00  0.00    +0.000 C 
ENDBRANCH  15  19
BRANCH  16  21
ATOM     21  O   UNL     1       6.274   4.134  16.320  0.00  0.00    +0.000 OA
ATOM     22  C   UNL     1       6.100   3.859  14.937  0.00  0.00    +0.000 C 
ENDBRANCH  16  21
BRANCH  17  23
ATOM     23  O   UNL     1       3.865   3.009  17.353  0.00  0.00    +0.000 OA
ATOM     24  C   UNL     1       2.559   2.507  17.607  0.00  0.00    +0.000 C 
ENDBRANCH  17  23
ENDBRANCH   2  13
TORSDOF 6
ENDMDL
MODEL 8
REMARK VINA RESULT:      -6.7      1.758      3.304
REMARK  Name = 
REMARK  10 active torsions:
REMARK  status: ('A' for Active; 'I' for Inactive)
REMARK    1  A    between atoms: C_1  and  C_2
REMARK    2  A    between atoms: C_2  and  C_3
REMARK    3  A    between atoms: C_7  and  N_8
REMARK    4  A    between atoms: C_9  and  C_11
REMARK    5  A    between atoms: C_13  and  O_14
REMARK    6  A    between atoms: O_14  and  C_15
REMARK    7  A    between atoms: C_16  and  O_17
REMARK    8  A    between atoms: O_17  and  C_18
REMARK    9  A    between atoms: C_19  and  O_20
REMARK   10  A    between atoms: O_20  and  C_21
REMARK                            x       y       z     vdW  Elec       q    Type
REMARK                         _______ _______ _______ _____ _____    ______ ____
ROOT
ATOM      1  N   UNL     1       2.046   7.979  19.431  0.00  0.00    +0.000 N 
ATOM      2  C   UNL     1       2.313   6.630  19.579  0.00  0.00    +0.000 C 
ATOM      3  O   UNL     1       1.810   5.882  20.409  0.00  0.00    +0.000 OA
ATOM      4  H   UNL     1       2.441   8.474  18.645  0.00  0.00    +0.000 HD
ENDROOT
BRANCH   1   9
ATOM      5  C   UNL     1      -0.439  10.516  20.531  0.00  0.00    +0.000 A 
ATOM      6  C   UNL     1      -0.388  10.354  21.920  0.00  0.00    +0.000 A 
ATOM      7  C   UNL     1       0.474   9.424  22.495  0.00  0.00    +0.000 A 
ATOM      8  C   UNL     1       1.286   8.628  21.688  0.00  0.00    +0.000 A 
ATOM      9  C   UNL     1       1.247   8.754  20.301  0.00  0.00    +0.000 A 
ATOM     10  C   UNL     1       0.400   9.712  19.731  0.00  0.00    +0.000 A 
BRANCH   5  12
ATOM     11  C   UNL     1      -1.301  11.539  18.323  0.00  0.00    +0.000 C 
ATOM     12  C   UNL     1      -1.352  11.505  19.845  0.00  0.00    +0.000 C 
ENDBRANCH   5  12
ENDBRANCH   1   9
BRANCH   2  13
ATOM     13  C   UNL     1       3.313   6.034  18.649  0.00  0.00    +0.000 A 
ATOM     14  C   UNL     1       3.224   4.655  18.442  0.00  0.00    +0.000 A 
ATOM     15  C   UNL     1       4.105   4.004  17.586  0.00  0.00    +0.000 A 
ATOM     16  C   UNL     1       5.129   4.736  16.944  0.00  0.00    +0.000 A 
ATOM     17  C   UNL     1       5.224   6.132  17.152  0.00  0.00    +0.000 A 
ATOM     18  C   UNL     1       4.295   6.773  17.985  0.00  0.00    +0.000 A 
BRANCH  15  19
ATOM     19  O   UNL     1       4.042   2.649  17.340  0.00  0.00    +0.000 OA
ATOM     20  C   UNL     1       3.344   1.872  18.314  0.00  0.00    +0.000 C 
ENDBRANCH  15  19
BRANCH  16  21
ATOM     21  O   UNL     1       6.005   3.979  16.202  0.00  0.00    +0.000 OA
ATOM     22  C   UNL     1       5.899   4.062  14.788  0.00  0.00    +0.000 C 
ENDBRANCH  16  21
BRANCH  17  23
ATOM     23  O   UNL     1       6.256   6.801  16.543  0.00  0.00    +0.000 OA
ATOM     24  C   UNL     1       7.380   7.179  17.326  0.00  0.00    +0.000 C 
ENDBRANCH  17  23
ENDBRANCH   2  13
TORSDOF 6
ENDMDL
MODEL 9
REMARK VINA RESULT:      -6.7      1.853      3.194
REMARK  Name = 
REMARK  10 active torsions:
REMARK  status: ('A' for Active; 'I' for Inactive)
REMARK    1  A    between atoms: C_1  and  C_2
REMARK    2  A    between atoms: C_2  and  C_3
REMARK    3  A    between atoms: C_7  and  N_8
REMARK    4  A    between atoms: C_9  and  C_11
REMARK    5  A    between atoms: C_13  and  O_14
REMARK    6  A    between atoms: O_14  and  C_15
REMARK    7  A    between atoms: C_16  and  O_17
REMARK    8  A    between atoms: O_17  and  C_18
REMARK    9  A    between atoms: C_19  and  O_20
REMARK   10  A    between atoms: O_20  and  C_21
REMARK                            x       y       z     vdW  Elec       q    Type
REMARK                         _______ _______ _______ _____ _____    ______ ____
ROOT
ATOM      1  N   UNL     1       1.337   9.116  19.128  0.00  0.00    +0.000 N 
ATOM      2  C   UNL     1       2.140   8.463  18.211  0.00  0.00    +0.000 C 
ATOM      3  O   UNL     1       2.418   8.859  17.084  0.00  0.00    +0.000 OA
ATOM      4  H   UNL     1       1.262   8.748  20.065  0.00  0.00    +0.000 HD
ENDROOT
BRANCH   1   9
ATOM      5  C   UNL     1       0.573  12.730  18.707  0.00  0.00    +0.000 A 
ATOM      6  C   UNL     1      -0.787  12.680  18.385  0.00  0.00    +0.000 A 
ATOM      7  C   UNL     1      -1.457  11.460  18.323  0.00  0.00    +0.000 A 
ATOM      8  C   UNL     1      -0.772  10.270  18.564  0.00  0.00    +0.000 A 
ATOM      9  C   UNL     1       0.588  10.287  18.871  0.00  0.00    +0.000 A 
ATOM     10  C   UNL     1       1.248  11.518  18.962  0.00  0.00    +0.000 A 
BRANCH   5  12
ATOM     11  C   UNL     1       2.782  13.986  18.253  0.00  0.00    +0.000 C 
ATOM     12  C   UNL     1       1.358  14.019  18.790  0.00  0.00    +0.000 C 
ENDBRANCH   5  12
ENDBRANCH   1   9
BRANCH   2  13
ATOM     13  C   UNL     1       2.714   7.154  18.628  0.00  0.00    +0.000 A 
ATOM     14  C   UNL     1       3.763   6.658  17.849  0.00  0.00    +0.000 A 
ATOM     15  C   UNL     1       4.373   5.447  18.160  0.00  0.00    +0.000 A 
ATOM     16  C   UNL     1       3.903   4.687  19.254  0.00  0.00    +0.000 A 
ATOM     17  C   UNL     1       2.841   5.183  20.045  0.00  0.00    +0.000 A 
ATOM     18  C   UNL     1       2.272   6.429  19.738  0.00  0.00    +0.000 A 
BRANCH  15  19
ATOM     19  O   UNL     1       5.420   4.931  17.429  0.00  0.00    +0.000 OA
ATOM     20  C   UNL     1       5.122   4.576  16.078  0.00  0.00    +0.000 C 
ENDBRANCH  15  19
BRANCH  16  21
ATOM     21  O   UNL     1       4.507   3.462  19.410  0.00  0.00    +0.000 OA
ATOM     22  C   UNL     1       3.856   2.338  18.835  0.00  0.00    +0.000 C 
ENDBRANCH  16  21
BRANCH  17  23
ATOM     23  O   UNL     1       2.387   4.397  21.074  0.00  0.00    +0.000 OA
ATOM     24  C   UNL     1       1.199   3.641  20.882  0.00  0.00    +0.000 C 
ENDBRANCH  17  23
ENDBRANCH   2  13
TORSDOF 6
ENDMDL
