MODEL 1
REMARK VINA RESULT:      -8.3      0.000      0.000
REMARK  Name = 
REMARK  6 active torsions:
REMARK  status: ('A' for Active; 'I' for Inactive)
REMARK    1  A    between atoms: C_1  and  C_2
REMARK    2  A    between atoms: C_2  and  N_3
REMARK    3  A    between atoms: C_2  and  C_4
REMARK    4  A    between atoms: C_16  and  C_17
REMARK    5  A    between atoms: N_19  and  C_20
REMARK    6  A    between atoms: C_20  and  C_21
REMARK                            x       y       z     vdW  Elec       q    Type
REMARK                         _______ _______ _______ _____ _____    ______ ____
ROOT
ATOM      1  C   UNL     1       2.107   8.923  18.391  0.00  0.00    +0.000 C 
ATOM      2  O   UNL     1       2.625   8.557  17.336  0.00  0.00    +0.000 OA
ATOM      3  N   UNL     1       1.869   8.121  19.482  0.00  0.00    +0.000 N 
ATOM      4  C   UNL     1       2.231   6.803  19.501  0.00  0.00    +0.000 A 
ATOM      5  N   UNL     1       3.012   6.135  18.694  0.00  0.00    +0.000 NA
ATOM      6  C   UNL     1       3.071   4.795  19.081  0.00  0.00    +0.000 A 
ATOM      7  C   UNL     1       2.223   4.486  20.139  0.00  0.00    +0.000 A 
ATOM      8  S   UNL     1       1.526   5.920  20.774  0.00  0.00    +0.000 S 
ATOM      9  C   UNL     1       1.859   3.152  20.718  0.00  0.00    +0.000 C 
ATOM     10  C   UNL     1       1.688   2.106  19.617  0.00  0.00    +0.000 C 
ATOM     11  C   UNL     1       3.006   1.531  19.099  0.00  0.00    +0.000 C 
ATOM     12  C   UNL     1       4.188   2.501  19.011  0.00  0.00    +0.000 C 
ATOM     13  C   UNL     1       3.901   3.822  18.264  0.00  0.00    +0.000 C 
ATOM     14  H   UNL     1       1.312   8.442  20.260  0.00  0.00    +0.000 HD
ENDROOT
BRANCH  13  15
ATOM     15  C   UNL     1       5.245   4.426  17.811  0.00  0.00    +0.000 C 
ATOM     16  O   UNL     1       6.239   4.478  18.536  0.00  0.00    +0.000 OA
ATOM     17  N   UNL     1       5.289   4.809  16.488  0.00  0.00    +0.000 N 
ATOM     18  H   UNL     1       4.399   5.115  16.092  0.00  0.00    +0.000 HD
BRANCH  17  19
ATOM     19  C   UNL     1       6.502   5.328  15.897  0.00  0.00    +0.000 C 
BRANCH  19  20
ATOM     20  C   UNL     1       6.650   4.874  14.468  0.00  0.00    +0.000 A 
ATOM     21  C   UNL     1       5.808   3.885  13.945  0.00  0.00    +0.000 A 
ATOM     22  C   UNL     1       5.967   3.430  12.636  0.00  0.00    +0.000 A 
ATOM     23  C   UNL     1       6.963   3.971  11.827  0.00  0.00    +0.000 A 
ATOM     24  C   UNL     1       7.796   4.972  12.326  0.00  0.00    +0.000 A 
ATOM     25  C   UNL     1       7.643   5.421  13.639  0.00  0.00    +0.000 A 
ENDBRANCH  19  20
ENDBRANCH  17  19
ENDBRANCH  13  15
BRANCH   1  27
ATOM     26  C   UNL     1       0.183  10.628  18.545  0.00  0.00    +0.000 C 
ATOM     27  C   UNL     1       1.691  10.406  18.590  0.00  0.00    +0.000 C 
BRANCH  27  28
ATOM     28  N   UNL     1       2.312  11.233  17.533  0.00  0.00    +0.000 NA
ATOM     29  H   UNL     1       1.574  11.518  16.884  0.00  0.00    +0.000 HD
ATOM     30  H   UNL     1       2.888  10.609  16.959  0.00  0.00    +0.000 HD
ENDBRANCH  27  28
ENDBRANCH   1  27
TORSDOF 5
ENDMDL
MODEL 2
REMARK VINA RESULT:      -8.2      2.474      7.818
REMARK  Name = 
REMARK  6 active torsions:
REMARK  status: ('A' for Active; 'I' for Inactive)
REMARK    1  A    between atoms: C_1  and  C_2
REMARK    2  A    between atoms: C_2  and  N_3
REMARK    3  A    between atoms: C_2  and  C_4
REMARK    4  A    between atoms: C_16  and  C_17
REMARK    5  A    between atoms: N_19  and  C_20
REMARK    6  A    between atoms: C_20  and  C_21
REMARK                            x       y       z     vdW  Elec       q    Type
REMARK                         _______ _______ _______ _____ _____    ______ ____
ROOT
ATOM      1  C   UNL     1       5.827   5.265  15.346  0.00  0.00    +0.000 C 
ATOM      2  O   UNL     1       5.967   6.278  16.031  0.00  0.00    +0.000 OA
ATOM      3  N   UNL     1       5.044   4.183  15.675  0.00  0.00    +0.000 N 
ATOM      4  C   UNL     1       4.300   4.152  16.822  0.00  0.00    +0.000 A 
ATOM      5  N   UNL     1       3.994   5.116  17.650  0.00  0.00    +0.000 NA
ATOM      6  C   UNL     1       3.234   4.617  18.709  0.00  0.00    +0.000 A 
ATOM      7  C   UNL     1       3.082   3.235  18.678  0.00  0.00    +0.000 A 
ATOM      8  S   UNL     1       3.708   2.605  17.210  0.00  0.00    +0.000 S 
ATOM      9  C   UNL     1       2.507   2.311  19.709  0.00  0.00    +0.000 C 
ATOM     10  C   UNL     1       2.918   2.739  21.118  0.00  0.00    +0.000 C 
ATOM     11  C   UNL     1       2.089   3.895  21.679  0.00  0.00    +0.000 C 
ATOM     12  C   UNL     1       1.656   4.974  20.684  0.00  0.00    +0.000 C 
ATOM     13  C   UNL     1       2.789   5.559  19.812  0.00  0.00    +0.000 C 
ATOM     14  H   UNL     1       5.083   3.324  15.146  0.00  0.00    +0.000 HD
ENDROOT
BRANCH  13  15
ATOM     15  C   UNL     1       2.330   6.929  19.272  0.00  0.00    +0.000 C 
ATOM     16  O   UNL     1       2.268   7.192  18.071  0.00  0.00    +0.000 OA
ATOM     17  N   UNL     1       1.886   7.809  20.234  0.00  0.00    +0.000 N 
ATOM     18  H   UNL     1       2.322   7.709  21.152  0.00  0.00    +0.000 HD
BRANCH  17  19
ATOM     19  C   UNL     1       1.358   9.106  19.877  0.00  0.00    +0.000 C 
BRANCH  19  20
ATOM     20  C   UNL     1       0.557   9.700  21.007  0.00  0.00    +0.000 A 
ATOM     21  C   UNL     1       0.412   9.007  22.216  0.00  0.00    +0.000 A 
ATOM     22  C   UNL     1      -0.364   9.531  23.250  0.00  0.00    +0.000 A 
ATOM     23  C   UNL     1      -0.992  10.764  23.094  0.00  0.00    +0.000 A 
ATOM     24  C   UNL     1      -0.839  11.476  21.905  0.00  0.00    +0.000 A 
ATOM     25  C   UNL     1      -0.071  10.947  20.865  0.00  0.00    +0.000 A 
ENDBRANCH  19  20
ENDBRANCH  17  19
ENDBRANCH  13  15
BRANCH   1  27
ATOM     26  C   UNL     1       6.323   3.791  13.294  0.00  0.00    +0.000 C 
ATOM     27  C   UNL     1       6.536   5.140  13.971  0.00  0.00    +0.000 C 
BRANCH  27  28
ATOM     28  N   UNL     1       7.991   5.342  14.152  0.00  0.00    +0.000 NA
ATOM     29  H   UNL     1       8.122   6.176  14.731  0.00  0.00    +0.000 HD
ATOM     30  H   UNL     1       8.371   5.634  13.247  0.00  0.00    +0.000 HD
ENDBRANCH  27  28
ENDBRANCH   1  27
TORSDOF 5
ENDMDL
MODEL 3
REMARK VINA RESULT:      -7.9      0.989      1.381
REMARK  Name = 
REMARK  6 active torsions:
REMARK  status: ('A' for Active; 'I' for Inactive)
REMARK    1  A    between atoms: C_1  and  C_2
REMARK    2  A    between atoms: C_2  and  N_3
REMARK    3  A    between atoms: C_2  and  C_4
REMARK    4  A    between atoms: C_16  and  C_17
REMARK    5  A    between atoms: N_19  and  C_20
REMARK    6  A    between atoms: C_20  and  C_21
REMARK                            x       y       z     vdW  Elec       q    Type
REMARK                         _______ _______ _______ _____ _____    ______ ____
ROOT
ATOM      1  C   UNL     1       1.611   9.570  18.642  0.00  0.00    +0.000 C 
ATOM      2  O   UNL     1       1.887   9.333  17.466  0.00  0.00    +0.000 OA
ATOM      3  N   UNL     1       1.601   8.646  19.660  0.00  0.00    +0.000 N 
ATOM      4  C   UNL     1       1.939   7.338  19.450  0.00  0.00    +0.000 A 
ATOM      5  N   UNL     1       2.521   6.776  18.423  0.00  0.00    +0.000 NA
ATOM      6  C   UNL     1       2.643   5.401  18.633  0.00  0.00    +0.000 A 
ATOM      7  C   UNL     1       2.036   4.963  19.806  0.00  0.00    +0.000 A 
ATOM      8  S   UNL     1       1.511   6.307  20.735  0.00  0.00    +0.000 S 
ATOM      9  C   UNL     1       1.785   3.568  20.292  0.00  0.00    +0.000 C 
ATOM     10  C   UNL     1       1.368   2.653  19.141  0.00  0.00    +0.000 C 
ATOM     11  C   UNL     1       2.538   2.156  18.291  0.00  0.00    +0.000 C 
ATOM     12  C   UNL     1       3.686   3.142  18.064  0.00  0.00    +0.000 C 
ATOM     13  C   UNL     1       3.266   4.537  17.552  0.00  0.00    +0.000 C 
ATOM     14  H   UNL     1       1.227   8.869  20.570  0.00  0.00    +0.000 HD
ENDROOT
BRANCH  13  15
ATOM     15  C   UNL     1       4.490   5.204  16.894  0.00  0.00    +0.000 C 
ATOM     16  O   UNL     1       4.576   6.418  16.707  0.00  0.00    +0.000 OA
ATOM     17  N   UNL     1       5.538   4.351  16.627  0.00  0.00    +0.000 N 
ATOM     18  H   UNL     1       5.274   3.386  16.422  0.00  0.00    +0.000 HD
BRANCH  17  19
ATOM     19  C   UNL     1       6.781   4.840  16.075  0.00  0.00    +0.000 C 
BRANCH  19  20
ATOM     20  C   UNL     1       6.848   4.605  14.588  0.00  0.00    +0.000 A 
ATOM     21  C   UNL     1       7.752   5.323  13.794  0.00  0.00    +0.000 A 
ATOM     22  C   UNL     1       7.791   5.141  12.412  0.00  0.00    +0.000 A 
ATOM     23  C   UNL     1       6.935   4.224  11.806  0.00  0.00    +0.000 A 
ATOM     24  C   UNL     1       6.044   3.486  12.585  0.00  0.00    +0.000 A 
ATOM     25  C   UNL     1       5.999   3.675  13.968  0.00  0.00    +0.000 A 
ENDBRANCH  19  20
ENDBRANCH  17  19
ENDBRANCH  13  15
BRANCH   1  27
ATOM     26  C   UNL     1      -0.173  11.183  19.562  0.00  0.00    +0.000 C 
ATOM     27  C   UNL     1       1.268  11.015  19.094  0.00  0.00    +0.000 C 
BRANCH  27  28
ATOM     28  N   UNL     1       1.500  11.947  17.968  0.00  0.00    +0.000 NA
ATOM     29  H   UNL     1       1.005  11.579  17.150  0.00  0.00    +0.000 HD
ATOM     30  H   UNL     1       2.483  11.854  17.696  0.00  0.00    +0.000 HD
ENDBRANCH  27  28
ENDBRANCH   1  27
TORSDOF 5
ENDMDL
MODEL 4
REMARK VINA RESULT:      -7.8      2.104      3.034
REMARK  Name = 
REMARK  6 active torsions:
REMARK  status: ('A' for Active; 'I' for Inactive)
REMARK    1  A    between atoms: C_1  and  C_2
REMARK    2  A    between atoms: C_2  and  N_3
REMARK    3  A    between atoms: C_2  and  C_4
REMARK    4  A    between atoms: C_16  and  C_17
REMARK    5  A    between atoms: N_19  and  C_20
REMARK    6  A    between atoms: C_20  and  C_21
REMARK                            x       y       z     vdW  Elec       q    Type
REMARK                         _______ _______ _______ _____ _____    ______ ____
ROOT
ATOM      1  C   UNL     1       2.045   9.032  18.220  0.00  0.00    +0.000 C 
ATOM      2  O   UNL     1       2.269   8.669  17.065  0.00  0.00    +0.000 OA
ATOM      3  N   UNL     1       1.977   8.205  19.316  0.00  0.00    +0.000 N 
ATOM      4  C   UNL     1       2.190   6.858  19.218  0.00  0.00    +0.000 A 
ATOM      5  N   UNL     1       2.692   6.157  18.236  0.00  0.00    +0.000 NA
ATOM      6  C   UNL     1       2.694   4.800  18.565  0.00  0.00    +0.000 A 
ATOM      7  C   UNL     1       2.079   4.525  19.782  0.00  0.00    +0.000 A 
ATOM      8  S   UNL     1       1.701   5.987  20.596  0.00  0.00    +0.000 S 
ATOM      9  C   UNL     1       1.715   3.207  20.395  0.00  0.00    +0.000 C 
ATOM     10  C   UNL     1       1.188   2.237  19.337  0.00  0.00    +0.000 C 
ATOM     11  C   UNL     1       2.286   1.562  18.516  0.00  0.00    +0.000 C 
ATOM     12  C   UNL     1       3.513   2.413  18.182  0.00  0.00    +0.000 C 
ATOM     13  C   UNL     1       3.208   3.791  17.555  0.00  0.00    +0.000 C 
ATOM     14  H   UNL     1       1.647   8.540  20.209  0.00  0.00    +0.000 HD
ENDROOT
BRANCH  13  15
ATOM     15  C   UNL     1       4.471   4.282  16.819  0.00  0.00    +0.000 C 
ATOM     16  O   UNL     1       4.435   5.066  15.871  0.00  0.00    +0.000 OA
ATOM     17  N   UNL     1       5.661   3.864  17.373  0.00  0.00    +0.000 N 
ATOM     18  H   UNL     1       5.629   2.959  17.845  0.00  0.00    +0.000 HD
BRANCH  17  19
ATOM     19  C   UNL     1       6.931   4.299  16.838  0.00  0.00    +0.000 C 
BRANCH  19  20
ATOM     20  C   UNL     1       7.378   5.590  17.473  0.00  0.00    +0.000 A 
ATOM     21  C   UNL     1       7.267   6.801  16.777  0.00  0.00    +0.000 A 
ATOM     22  C   UNL     1       7.718   7.994  17.342  0.00  0.00    +0.000 A 
ATOM     23  C   UNL     1       8.271   7.994  18.620  0.00  0.00    +0.000 A 
ATOM     24  C   UNL     1       8.368   6.800  19.335  0.00  0.00    +0.000 A 
ATOM     25  C   UNL     1       7.926   5.604  18.765  0.00  0.00    +0.000 A 
ENDBRANCH  19  20
ENDBRANCH  17  19
ENDBRANCH  13  15
BRANCH   1  27
ATOM     26  C   UNL     1       0.384  10.938  18.709  0.00  0.00    +0.000 C 
ATOM     27  C   UNL     1       1.846  10.537  18.547  0.00  0.00    +0.000 C 
BRANCH  27  28
ATOM     28  N   UNL     1       2.432  11.354  17.462  0.00  0.00    +0.000 NA
ATOM     29  H   UNL     1       2.306  12.339  17.708  0.00  0.00    +0.000 HD
ATOM     30  H   UNL     1       1.827  11.248  16.642  0.00  0.00    +0.000 HD
ENDBRANCH  27  28
ENDBRANCH   1  27
TORSDOF 5
ENDMDL
MODEL 5
REMARK VINA RESULT:      -7.8      2.097      2.975
REMARK  Name = 
REMARK  6 active torsions:
REMARK  status: ('A' for Active; 'I' for Inactive)
REMARK    1  A    between atoms: C_1  and  C_2
REMARK    2  A    between atoms: C_2  and  N_3
REMARK    3  A    between atoms: C_2  and  C_4
REMARK    4  A    between atoms: C_16  and  C_17
REMARK    5  A    between atoms: N_19  and  C_20
REMARK    6  A    between atoms: C_20  and  C_21
REMARK                            x       y       z     vdW  Elec       q    Type
REMARK                         _______ _______ _______ _____ _____    ______ ____
ROOT
ATOM      1  C   UNL     1       1.800   9.532  18.390  0.00  0.00    +0.000 C 
ATOM      2  O   UNL     1       1.988   9.117  17.247  0.00  0.00    +0.000 OA
ATOM      3  N   UNL     1       1.755   8.755  19.523  0.00  0.00    +0.000 N 
ATOM      4  C   UNL     1       1.955   7.403  19.479  0.00  0.00    +0.000 A 
ATOM      5  N   UNL     1       2.425   6.655  18.515  0.00  0.00    +0.000 NA
ATOM      6  C   UNL     1       2.426   5.314  18.903  0.00  0.00    +0.000 A 
ATOM      7  C   UNL     1       1.843   5.098  20.148  0.00  0.00    +0.000 A 
ATOM      8  S   UNL     1       1.499   6.598  20.907  0.00  0.00    +0.000 S 
ATOM      9  C   UNL     1       1.486   3.811  20.828  0.00  0.00    +0.000 C 
ATOM     10  C   UNL     1       0.922   2.801  19.829  0.00  0.00    +0.000 C 
ATOM     11  C   UNL     1       1.992   2.080  19.008  0.00  0.00    +0.000 C 
ATOM     12  C   UNL     1       3.216   2.906  18.603  0.00  0.00    +0.000 C 
ATOM     13  C   UNL     1       2.904   4.258  17.925  0.00  0.00    +0.000 C 
ATOM     14  H   UNL     1       1.453   9.131  20.409  0.00  0.00    +0.000 HD
ENDROOT
BRANCH  13  15
ATOM     15  C   UNL     1       4.150   4.705  17.134  0.00  0.00    +0.000 C 
ATOM     16  O   UNL     1       4.184   5.732  16.457  0.00  0.00    +0.000 OA
ATOM     17  N   UNL     1       5.268   3.924  17.328  0.00  0.00    +0.000 N 
ATOM     18  H   UNL     1       5.084   2.941  17.533  0.00  0.00    +0.000 HD
BRANCH  17  19
ATOM     19  C   UNL     1       6.531   4.256  16.710  0.00  0.00    +0.000 C 
BRANCH  19  20
ATOM     20  C   UNL     1       7.174   5.441  17.384  0.00  0.00    +0.000 A 
ATOM     21  C   UNL     1       7.723   5.318  18.667  0.00  0.00    +0.000 A 
ATOM     22  C   UNL     1       8.280   6.421  19.314  0.00  0.00    +0.000 A 
ATOM     23  C   UNL     1       8.312   7.659  18.678  0.00  0.00    +0.000 A 
ATOM     24  C   UNL     1       7.789   7.793  17.392  0.00  0.00    +0.000 A 
ATOM     25  C   UNL     1       7.221   6.692  16.748  0.00  0.00    +0.000 A 
ENDBRANCH  19  20
ENDBRANCH  17  19
ENDBRANCH  13  15
BRANCH   1  27
ATOM     26  C   UNL     1       0.166  11.506  18.650  0.00  0.00    +0.000 C 
ATOM     27  C   UNL     1       1.621  11.052  18.656  0.00  0.00    +0.000 C 
BRANCH  27  28
ATOM     28  N   UNL     1       2.349  11.817  17.620  0.00  0.00    +0.000 NA
ATOM     29  H   UNL     1       3.333  11.535  17.655  0.00  0.00    +0.000 HD
ATOM     30  H   UNL     1       2.384  12.792  17.933  0.00  0.00    +0.000 HD
ENDBRANCH  27  28
ENDBRANCH   1  27
TORSDOF 5
ENDMDL
MODEL 6
REMARK VINA RESULT:      -7.5      4.206      6.970
REMARK  Name = 
REMARK  6 active torsions:
REMARK  status: ('A' for Active; 'I' for Inactive)
REMARK    1  A    between atoms: C_1  and  C_2
REMARK    2  A    between atoms: C_2  and  N_3
REMARK    3  A    between atoms: C_2  and  C_4
REMARK    4  A    between atoms: C_16  and  C_17
REMARK    5  A    between atoms: N_19  and  C_20
REMARK    6  A    between atoms: C_20  and  C_21
REMARK                            x       y       z     vdW  Elec       q    Type
REMARK                         _______ _______ _______ _____ _____    ______ ____
ROOT
ATOM      1  C   UNL     1      -2.322  10.416  16.596  0.00  0.00    +0.000 C 
ATOM      2  O   UNL     1      -2.070   9.215  16.692  0.00  0.00    +0.000 OA
ATOM      3  N   UNL     1      -2.062  11.365  17.557  0.00  0.00    +0.000 N 
ATOM      4  C   UNL     1      -1.446  11.047  18.736  0.00  0.00    +0.000 A 
ATOM      5  N   UNL     1      -0.813   9.959  19.086  0.00  0.00    +0.000 NA
ATOM      6  C   UNL     1      -0.368  10.064  20.405  0.00  0.00    +0.000 A 
ATOM      7  C   UNL     1      -0.789  11.228  21.040  0.00  0.00    +0.000 A 
ATOM      8  S   UNL     1      -1.552  12.273  19.912  0.00  0.00    +0.000 S 
ATOM      9  C   UNL     1      -0.686  11.624  22.482  0.00  0.00    +0.000 C 
ATOM     10  C   UNL     1      -0.949  10.429  23.398  0.00  0.00    +0.000 C 
ATOM     11  C   UNL     1       0.251   9.496  23.559  0.00  0.00    +0.000 C 
ATOM     12  C   UNL     1       1.128   9.290  22.322  0.00  0.00    +0.000 C 
ATOM     13  C   UNL     1       0.371   8.898  21.035  0.00  0.00    +0.000 C 
ATOM     14  H   UNL     1      -2.423  12.304  17.481  0.00  0.00    +0.000 HD
ENDROOT
BRANCH  13  15
ATOM     15  C   UNL     1       1.369   8.236  20.064  0.00  0.00    +0.000 C 
ATOM     16  O   UNL     1       1.834   8.813  19.081  0.00  0.00    +0.000 OA
ATOM     17  N   UNL     1       1.793   6.981  20.439  0.00  0.00    +0.000 N 
ATOM     18  H   UNL     1       1.118   6.433  20.973  0.00  0.00    +0.000 HD
BRANCH  17  19
ATOM     19  C   UNL     1       2.782   6.262  19.668  0.00  0.00    +0.000 C 
BRANCH  19  20
ATOM     20  C   UNL     1       2.280   4.897  19.273  0.00  0.00    +0.000 A 
ATOM     21  C   UNL     1       1.345   4.225  20.070  0.00  0.00    +0.000 A 
ATOM     22  C   UNL     1       0.907   2.944  19.733  0.00  0.00    +0.000 A 
ATOM     23  C   UNL     1       1.388   2.325  18.582  0.00  0.00    +0.000 A 
ATOM     24  C   UNL     1       2.304   2.989  17.766  0.00  0.00    +0.000 A 
ATOM     25  C   UNL     1       2.749   4.267  18.109  0.00  0.00    +0.000 A 
ENDBRANCH  19  20
ENDBRANCH  17  19
ENDBRANCH  13  15
BRANCH   1  27
ATOM     26  C   UNL     1      -4.452  11.270  15.426  0.00  0.00    +0.000 C 
ATOM     27  C   UNL     1      -2.959  10.985  15.299  0.00  0.00    +0.000 C 
BRANCH  27  28
ATOM     28  N   UNL     1      -2.765  10.019  14.196  0.00  0.00    +0.000 NA
ATOM     29  H   UNL     1      -3.682   9.634  13.952  0.00  0.00    +0.000 HD
ATOM     30  H   UNL     1      -2.277   9.207  14.587  0.00  0.00    +0.000 HD
ENDBRANCH  27  28
ENDBRANCH   1  27
TORSDOF 5
ENDMDL
MODEL 7
REMARK VINA RESULT:      -7.4      2.354      7.777
REMARK  Name = 
REMARK  6 active torsions:
REMARK  status: ('A' for Active; 'I' for Inactive)
REMARK    1  A    between atoms: C_1  and  C_2
REMARK    2  A    between atoms: C_2  and  N_3
REMARK    3  A    between atoms: C_2  and  C_4
REMARK    4  A    between atoms: C_16  and  C_17
REMARK    5  A    between atoms: N_19  and  C_20
REMARK    6  A    between atoms: C_20  and  C_21
REMARK                            x       y       z     vdW  Elec       q    Type
REMARK                         _______ _______ _______ _____ _____    ______ ____
ROOT
ATOM      1  C   UNL     1       6.229   4.478  15.815  0.00  0.00    +0.000 C 
ATOM      2  O   UNL     1       6.461   5.463  16.515  0.00  0.00    +0.000 OA
ATOM      3  N   UNL     1       5.273   3.524  16.073  0.00  0.00    +0.000 N 
ATOM      4  C   UNL     1       4.443   3.609  17.157  0.00  0.00    +0.000 A 
ATOM      5  N   UNL     1       4.217   4.612  17.965  0.00  0.00    +0.000 NA
ATOM      6  C   UNL     1       3.310   4.235  18.956  0.00  0.00    +0.000 A 
ATOM      7  C   UNL     1       2.960   2.890  18.905  0.00  0.00    +0.000 A 
ATOM      8  S   UNL     1       3.603   2.167  17.488  0.00  0.00    +0.000 S 
ATOM      9  C   UNL     1       2.176   2.066  19.881  0.00  0.00    +0.000 C 
ATOM     10  C   UNL     1       2.531   2.436  21.321  0.00  0.00    +0.000 C 
ATOM     11  C   UNL     1       1.839   3.704  21.822  0.00  0.00    +0.000 C 
ATOM     12  C   UNL     1       1.649   4.829  20.802  0.00  0.00    +0.000 C 
ATOM     13  C   UNL     1       2.921   5.238  20.027  0.00  0.00    +0.000 C 
ATOM     14  H   UNL     1       5.228   2.666  15.544  0.00  0.00    +0.000 HD
ENDROOT
BRANCH  13  15
ATOM     15  C   UNL     1       2.712   6.657  19.461  0.00  0.00    +0.000 C 
ATOM     16  O   UNL     1       3.142   7.013  18.364  0.00  0.00    +0.000 OA
ATOM     17  N   UNL     1       1.910   7.472  20.228  0.00  0.00    +0.000 N 
ATOM     18  H   UNL     1       1.935   7.290  21.232  0.00  0.00    +0.000 HD
BRANCH  17  19
ATOM     19  C   UNL     1       1.564   8.807  19.795  0.00  0.00    +0.000 C 
BRANCH  19  20
ATOM     20  C   UNL     1       0.739   9.522  20.834  0.00  0.00    +0.000 A 
ATOM     21  C   UNL     1       0.333  10.847  20.631  0.00  0.00    +0.000 A 
ATOM     22  C   UNL     1      -0.394  11.528  21.606  0.00  0.00    +0.000 A 
ATOM     23  C   UNL     1      -0.741  10.886  22.792  0.00  0.00    +0.000 A 
ATOM     24  C   UNL     1      -0.363   9.560  23.000  0.00  0.00    +0.000 A 
ATOM     25  C   UNL     1       0.374   8.881  22.028  0.00  0.00    +0.000 A 
ENDBRANCH  19  20
ENDBRANCH  17  19
ENDBRANCH  13  15
BRANCH   1  27
ATOM     26  C   UNL     1       7.508   5.530  13.843  0.00  0.00    +0.000 C 
ATOM     27  C   UNL     1       7.020   4.243  14.500  0.00  0.00    +0.000 C 
BRANCH  27  28
ATOM     28  N   UNL     1       6.158   3.529  13.533  0.00  0.00    +0.000 NA
ATOM     29  H   UNL     1       5.469   4.196  13.175  0.00  0.00    +0.000 HD
ATOM     30  H   UNL     1       5.580   2.874  14.069  0.00  0.00    +0.000 HD
ENDBRANCH  27  28
ENDBRANCH   1  27
TORSDOF 5
ENDMDL
MODEL 8
REMARK VINA RESULT:      -7.3      1.479      1.526
REMARK  Name = 
REMARK  6 active torsions:
REMARK  status: ('A' for Active; 'I' for Inactive)
REMARK    1  A    between atoms: C_1  and  C_2
REMARK    2  A    between atoms: C_2  and  N_3
REMARK    3  A    between atoms: C_2  and  C_4
REMARK    4  A    between atoms: C_16  and  C_17
REMARK    5  A    between atoms: N_19  and  C_20
REMARK    6  A    between atoms: C_20  and  C_21
REMARK                            x       y       z     vdW  Elec       q    Type
REMARK                         _______ _______ _______ _____ _____    ______ ____
ROOT
ATOM      1  C   UNL     1       1.433   8.733  20.118  0.00  0.00    +0.000 C 
ATOM      2  O   UNL     1       1.540   8.810  18.894  0.00  0.00    +0.000 OA
ATOM      3  N   UNL     1       1.630   7.596  20.865  0.00  0.00    +0.000 N 
ATOM      4  C   UNL     1       2.006   6.413  20.293  0.00  0.00    +0.000 A 
ATOM      5  N   UNL     1       2.456   6.167  19.091  0.00  0.00    +0.000 NA
ATOM      6  C   UNL     1       2.686   4.799  18.933  0.00  0.00    +0.000 A 
ATOM      7  C   UNL     1       2.289   4.041  20.030  0.00  0.00    +0.000 A 
ATOM      8  S   UNL     1       1.836   5.071  21.326  0.00  0.00    +0.000 S 
ATOM      9  C   UNL     1       2.194   2.553  20.182  0.00  0.00    +0.000 C 
ATOM     10  C   UNL     1       1.660   1.904  18.905  0.00  0.00    +0.000 C 
ATOM     11  C   UNL     1       2.714   1.734  17.811  0.00  0.00    +0.000 C 
ATOM     12  C   UNL     1       3.757   2.847  17.685  0.00  0.00    +0.000 C 
ATOM     13  C   UNL     1       3.185   4.279  17.598  0.00  0.00    +0.000 C 
ATOM     14  H   UNL     1       1.386   7.560  21.844  0.00  0.00    +0.000 HD
ENDROOT
BRANCH  13  15
ATOM     15  C   UNL     1       4.256   5.194  16.970  0.00  0.00    +0.000 C 
ATOM     16  O   UNL     1       4.218   6.422  17.042  0.00  0.00    +0.000 OA
ATOM     17  N   UNL     1       5.327   4.530  16.412  0.00  0.00    +0.000 N 
ATOM     18  H   UNL     1       5.118   3.605  16.034  0.00  0.00    +0.000 HD
BRANCH  17  19
ATOM     19  C   UNL     1       6.444   5.252  15.847  0.00  0.00    +0.000 C 
BRANCH  19  20
ATOM     20  C   UNL     1       6.674   4.864  14.409  0.00  0.00    +0.000 A 
ATOM     21  C   UNL     1       5.891   3.869  13.807  0.00  0.00    +0.000 A 
ATOM     22  C   UNL     1       6.126   3.475  12.490  0.00  0.00    +0.000 A 
ATOM     23  C   UNL     1       7.138   4.083  11.751  0.00  0.00    +0.000 A 
ATOM     24  C   UNL     1       7.911   5.090  12.328  0.00  0.00    +0.000 A 
ATOM     25  C   UNL     1       7.683   5.477  13.650  0.00  0.00    +0.000 A 
ENDBRANCH  19  20
ENDBRANCH  17  19
ENDBRANCH  13  15
BRANCH   1  27
ATOM     26  C   UNL     1       0.100   9.714  22.090  0.00  0.00    +0.000 C 
ATOM     27  C   UNL     1       1.082   9.991  20.957  0.00  0.00    +0.000 C 
BRANCH  27  28
ATOM     28  N   UNL     1       0.488  11.018  20.072  0.00  0.00    +0.000 NA
ATOM     29  H   UNL     1       0.690  11.936  20.478  0.00  0.00    +0.000 HD
ATOM     30  H   UNL     1      -0.529  10.948  20.168  0.00  0.00    +0.000 HD
ENDBRANCH  27  28
ENDBRANCH   1  27
TORSDOF 5
ENDMDL
MODEL 9
REMARK VINA RESULT:      -7.2      2.330      3.110
REMARK  Name = 
REMARK  6 active torsions:
REMARK  status: ('A' for Active; 'I' for Inactive)
REMARK    1  A    between atoms: C_1  and  C_2
REMARK    2  A    between atoms: C_2  and  N_3
REMARK    3  A    between atoms: C_2  and  C_4
REMARK    4  A    between atoms: C_16  and  C_17
REMARK    5  A    between atoms: N_19  and  C_20
REMARK    6  A    between atoms: C_20  and  C_21
REMARK                            x       y       z     vdW  Elec       q    Type
REMARK                         _______ _______ _______ _____ _____    ______ ____
ROOT
ATOM      1  C   UNL     1       1.672   9.264  18.553  0.00  0.00    +0.000 C 
ATOM      2  O   UNL     1       1.841   8.919  17.384  0.00  0.00    +0.000 OA
ATOM      3  N   UNL     1       1.662   8.422  19.640  0.00  0.00    +0.000 N 
ATOM      4  C   UNL     1       1.880   7.078  19.513  0.00  0.00    +0.000 A 
ATOM      5  N   UNL     1       2.340   6.394  18.498  0.00  0.00    +0.000 NA
ATOM      6  C   UNL     1       2.367   5.034  18.808  0.00  0.00    +0.000 A 
ATOM      7  C   UNL     1       1.814   4.737  20.050  0.00  0.00    +0.000 A 
ATOM      8  S   UNL     1       1.466   6.186  20.901  0.00  0.00    +0.000 S 
ATOM      9  C   UNL     1       1.490   3.408  20.662  0.00  0.00    +0.000 C 
ATOM     10  C   UNL     1       0.920   2.448  19.617  0.00  0.00    +0.000 C 
ATOM     11  C   UNL     1       1.982   1.793  18.734  0.00  0.00    +0.000 C 
ATOM     12  C   UNL     1       3.185   2.659  18.353  0.00  0.00    +0.000 C 
ATOM     13  C   UNL     1       2.839   4.043  17.761  0.00  0.00    +0.000 C 
ATOM     14  H   UNL     1       1.374   8.743  20.552  0.00  0.00    +0.000 HD
ENDROOT
BRANCH  13  15
ATOM     15  C   UNL     1       4.062   4.554  16.972  0.00  0.00    +0.000 C 
ATOM     16  O   UNL     1       4.749   3.829  16.253  0.00  0.00    +0.000 OA
ATOM     17  N   UNL     1       4.267   5.914  17.042  0.00  0.00    +0.000 N 
ATOM     18  H   UNL     1       3.961   6.357  17.909  0.00  0.00    +0.000 HD
BRANCH  17  19
ATOM     19  C   UNL     1       5.331   6.551  16.299  0.00  0.00    +0.000 C 
BRANCH  19  20
ATOM     20  C   UNL     1       6.484   6.913  17.199  0.00  0.00    +0.000 A 
ATOM     21  C   UNL     1       6.982   5.988  18.125  0.00  0.00    +0.000 A 
ATOM     22  C   UNL     1       8.020   6.331  18.990  0.00  0.00    +0.000 A 
ATOM     23  C   UNL     1       8.587   7.601  18.929  0.00  0.00    +0.000 A 
ATOM     24  C   UNL     1       8.117   8.527  17.998  0.00  0.00    +0.000 A 
ATOM     25  C   UNL     1       7.070   8.187  17.139  0.00  0.00    +0.000 A 
ENDBRANCH  19  20
ENDBRANCH  17  19
ENDBRANCH  13  15
BRANCH   1  27
ATOM     26  C   UNL     1       1.117  11.001  20.372  0.00  0.00    +0.000 C 
ATOM     27  C   UNL     1       1.477  10.763  18.910  0.00  0.00    +0.000 C 
BRANCH  27  28
ATOM     28  N   UNL     1       0.399  11.329  18.070  0.00  0.00    +0.000 NA
ATOM     29  H   UNL     1       0.805  12.077  17.501  0.00  0.00    +0.000 HD
ATOM     30  H   UNL     1      -0.235  11.838  18.693  0.00  0.00    +0.000 HD
ENDBRANCH  27  28
ENDBRANCH   1  27
TORSDOF 5
ENDMDL
