MODEL 1
REMARK VINA RESULT:      -8.2      0.000      0.000
REMARK  Name = 
REMARK  8 active torsions:
REMARK  status: ('A' for Active; 'I' for Inactive)
REMARK    1  A    between atoms: C_1  and  O_2
REMARK    2  A    between atoms: O_2  and  C_3
REMARK    3  A    between atoms: C_6  and  C_7
REMARK    4  A    between atoms: N_8  and  N_9
REMARK    5  A    between atoms: C_26  and  O_27
REMARK    6  A    between atoms: O_27  and  C_28
REMARK    7  A    between atoms: C_29  and  O_30
REMARK    8  A    between atoms: O_30  and  C_31
REMARK                            x       y       z     vdW  Elec       q    Type
REMARK                         _______ _______ _______ _____ _____    ______ ____
ROOT
ATOM      1  N   UNL     1       0.716   9.123  21.047  0.00  0.00    +0.000 N 
ATOM      2  C   UNL     1      -0.131  10.155  20.568  0.00  0.00    +0.000 A 
ATOM      3  N   UNL     1      -0.658  10.050  19.350  0.00  0.00    +0.000 NA
ATOM      4  C   UNL     1      -1.484  11.013  18.976  0.00  0.00    +0.000 A 
ATOM      5  N   UNL     1      -2.063  10.967  17.729  0.00  0.00    +0.000 N 
ATOM      6  C   UNL     1      -3.331  11.640  17.501  0.00  0.00    +0.000 C 
ATOM      7  C   UNL     1      -4.116  10.652  16.643  0.00  0.00    +0.000 C 
ATOM      8  C   UNL     1      -3.031   9.914  15.875  0.00  0.00    +0.000 C 
ATOM      9  C   UNL     1      -1.900   9.787  16.896  0.00  0.00    +0.000 C 
ATOM     10  N   UNL     1      -1.786  12.039  19.756  0.00  0.00    +0.000 NA
ATOM     11  C   UNL     1      -1.207  12.095  20.948  0.00  0.00    +0.000 A 
ATOM     12  N   UNL     1      -1.510  13.192  21.727  0.00  0.00    +0.000 N 
ATOM     13  C   UNL     1      -1.078  13.338  23.104  0.00  0.00    +0.000 C 
ATOM     14  C   UNL     1      -2.303  13.921  23.805  0.00  0.00    +0.000 C 
ATOM     15  C   UNL     1      -2.988  14.734  22.717  0.00  0.00    +0.000 C 
ATOM     16  C   UNL     1      -2.741  13.919  21.451  0.00  0.00    +0.000 C 
ATOM     17  N   UNL     1      -0.376  11.167  21.399  0.00  0.00    +0.000 NA
ATOM     18  H   UNL     1       1.176   9.487  21.878  0.00  0.00    +0.000 HD
ENDROOT
BRANCH   1  20
ATOM     19  C   UNL     1       1.824   7.264  20.407  0.00  0.00    +0.000 C 
ATOM     20  N   UNL     1       1.488   8.484  20.117  0.00  0.00    +0.000 NA
BRANCH  19  24
ATOM     21  C   UNL     1       4.487   5.179  17.783  0.00  0.00    +0.000 A 
ATOM     22  C   UNL     1       4.052   6.479  17.495  0.00  0.00    +0.000 A 
ATOM     23  C   UNL     1       3.172   7.133  18.345  0.00  0.00    +0.000 A 
ATOM     24  C   UNL     1       2.693   6.484  19.485  0.00  0.00    +0.000 A 
ATOM     25  C   UNL     1       3.036   5.141  19.749  0.00  0.00    +0.000 A 
ATOM     26  C   UNL     1       3.934   4.468  18.874  0.00  0.00    +0.000 A 
BRANCH  21  28
ATOM     27  C   UNL     1       6.787   4.803  17.346  0.00  0.00    +0.000 C 
ATOM     28  O   UNL     1       5.424   4.585  16.976  0.00  0.00    +0.000 OA
ENDBRANCH  21  28
BRANCH  25  29
ATOM     29  O   UNL     1       2.439   4.631  20.880  0.00  0.00    +0.000 OA
ATOM     30  C   UNL     1       1.263   3.842  20.777  0.00  0.00    +0.000 C 
ENDBRANCH  25  29
BRANCH  26  31
ATOM     31  O   UNL     1       4.193   3.156  19.174  0.00  0.00    +0.000 OA
ATOM     32  C   UNL     1       3.542   2.093  18.499  0.00  0.00    +0.000 C 
ENDBRANCH  26  31
ENDBRANCH  19  24
ENDBRANCH   1  20
TORSDOF 5
ENDMDL
MODEL 2
REMARK VINA RESULT:      -7.9      3.719      9.845
REMARK  Name = 
REMARK  8 active torsions:
REMARK  status: ('A' for Active; 'I' for Inactive)
REMARK    1  A    between atoms: C_1  and  O_2
REMARK    2  A    between atoms: O_2  and  C_3
REMARK    3  A    between atoms: C_6  and  C_7
REMARK    4  A    between atoms: N_8  and  N_9
REMARK    5  A    between atoms: C_26  and  O_27
REMARK    6  A    between atoms: O_27  and  C_28
REMARK    7  A    between atoms: C_29  and  O_30
REMARK    8  A    between atoms: O_30  and  C_31
REMARK                            x       y       z     vdW  Elec       q    Type
REMARK                         _______ _______ _______ _____ _____    ______ ____
ROOT
ATOM      1  N   UNL     1       2.106   8.378  17.869  0.00  0.00    +0.000 N 
ATOM      2  C   UNL     1       2.822   7.170  18.070  0.00  0.00    +0.000 A 
ATOM      3  N   UNL     1       2.435   6.339  19.036  0.00  0.00    +0.000 NA
ATOM      4  C   UNL     1       3.104   5.203  19.143  0.00  0.00    +0.000 A 
ATOM      5  N   UNL     1       2.757   4.299  20.121  0.00  0.00    +0.000 N 
ATOM      6  C   UNL     1       3.054   2.889  19.933  0.00  0.00    +0.000 C 
ATOM      7  C   UNL     1       1.800   2.183  20.442  0.00  0.00    +0.000 C 
ATOM      8  C   UNL     1       1.269   3.133  21.504  0.00  0.00    +0.000 C 
ATOM      9  C   UNL     1       1.561   4.515  20.919  0.00  0.00    +0.000 C 
ATOM     10  N   UNL     1       4.110   4.887  18.344  0.00  0.00    +0.000 NA
ATOM     11  C   UNL     1       4.460   5.770  17.418  0.00  0.00    +0.000 A 
ATOM     12  N   UNL     1       5.533   5.433  16.621  0.00  0.00    +0.000 N 
ATOM     13  C   UNL     1       5.955   6.217  15.476  0.00  0.00    +0.000 C 
ATOM     14  C   UNL     1       6.293   5.162  14.424  0.00  0.00    +0.000 C 
ATOM     15  C   UNL     1       6.764   3.971  15.246  0.00  0.00    +0.000 C 
ATOM     16  C   UNL     1       5.885   4.026  16.492  0.00  0.00    +0.000 C 
ATOM     17  N   UNL     1       3.835   6.926  17.241  0.00  0.00    +0.000 NA
ATOM     18  H   UNL     1       2.676   8.954  17.254  0.00  0.00    +0.000 HD
ENDROOT
BRANCH   1  20
ATOM     19  C   UNL     1       0.550   9.739  18.773  0.00  0.00    +0.000 C 
ATOM     20  N   UNL     1       1.571   8.965  18.981  0.00  0.00    +0.000 NA
BRANCH  19  24
ATOM     21  C   UNL     1      -1.086  11.839  22.126  0.00  0.00    +0.000 A 
ATOM     22  C   UNL     1      -0.387  10.637  22.291  0.00  0.00    +0.000 A 
ATOM     23  C   UNL     1       0.118   9.957  21.192  0.00  0.00    +0.000 A 
ATOM     24  C   UNL     1      -0.091  10.459  19.906  0.00  0.00    +0.000 A 
ATOM     25  C   UNL     1      -0.874  11.615  19.701  0.00  0.00    +0.000 A 
ATOM     26  C   UNL     1      -1.398  12.308  20.828  0.00  0.00    +0.000 A 
BRANCH  21  28
ATOM     27  C   UNL     1      -2.878  12.380  23.580  0.00  0.00    +0.000 C 
ATOM     28  O   UNL     1      -1.501  12.538  23.231  0.00  0.00    +0.000 OA
ENDBRANCH  21  28
BRANCH  25  29
ATOM     29  O   UNL     1      -1.031  11.948  18.375  0.00  0.00    +0.000 OA
ATOM     30  C   UNL     1      -2.229  11.616  17.687  0.00  0.00    +0.000 C 
ENDBRANCH  25  29
BRANCH  26  31
ATOM     31  O   UNL     1      -2.177  13.401  20.550  0.00  0.00    +0.000 OA
ATOM     32  C   UNL     1      -1.646  14.716  20.546  0.00  0.00    +0.000 C 
ENDBRANCH  26  31
ENDBRANCH  19  24
ENDBRANCH   1  20
TORSDOF 5
ENDMDL
MODEL 3
REMARK VINA RESULT:      -7.8      3.971      9.865
REMARK  Name = 
REMARK  8 active torsions:
REMARK  status: ('A' for Active; 'I' for Inactive)
REMARK    1  A    between atoms: C_1  and  O_2
REMARK    2  A    between atoms: O_2  and  C_3
REMARK    3  A    between atoms: C_6  and  C_7
REMARK    4  A    between atoms: N_8  and  N_9
REMARK    5  A    between atoms: C_26  and  O_27
REMARK    6  A    between atoms: O_27  and  C_28
REMARK    7  A    between atoms: C_29  and  O_30
REMARK    8  A    between atoms: O_30  and  C_31
REMARK                            x       y       z     vdW  Elec       q    Type
REMARK                         _______ _______ _______ _____ _____    ______ ____
ROOT
ATOM      1  N   UNL     1       2.265   8.412  17.762  0.00  0.00    +0.000 N 
ATOM      2  C   UNL     1       2.930   7.173  17.951  0.00  0.00    +0.000 A 
ATOM      3  N   UNL     1       2.553   6.380  18.952  0.00  0.00    +0.000 NA
ATOM      4  C   UNL     1       3.169   5.213  19.048  0.00  0.00    +0.000 A 
ATOM      5  N   UNL     1       2.829   4.346  20.060  0.00  0.00    +0.000 N 
ATOM      6  C   UNL     1       3.044   2.919  19.885  0.00  0.00    +0.000 C 
ATOM      7  C   UNL     1       1.786   2.288  20.473  0.00  0.00    +0.000 C 
ATOM      8  C   UNL     1       1.359   3.282  21.541  0.00  0.00    +0.000 C 
ATOM      9  C   UNL     1       1.689   4.637  20.914  0.00  0.00    +0.000 C 
ATOM     10  N   UNL     1       4.114   4.833  18.204  0.00  0.00    +0.000 NA
ATOM     11  C   UNL     1       4.458   5.680  17.243  0.00  0.00    +0.000 A 
ATOM     12  N   UNL     1       5.470   5.275  16.399  0.00  0.00    +0.000 N 
ATOM     13  C   UNL     1       5.870   6.015  15.218  0.00  0.00    +0.000 C 
ATOM     14  C   UNL     1       6.099   4.926  14.171  0.00  0.00    +0.000 C 
ATOM     15  C   UNL     1       6.552   3.728  14.991  0.00  0.00    +0.000 C 
ATOM     16  C   UNL     1       5.743   3.850  16.280  0.00  0.00    +0.000 C 
ATOM     17  N   UNL     1       3.884   6.863  17.075  0.00  0.00    +0.000 NA
ATOM     18  H   UNL     1       2.830   8.948  17.107  0.00  0.00    +0.000 HD
ENDROOT
BRANCH   1  20
ATOM     19  C   UNL     1       0.781   9.809  18.732  0.00  0.00    +0.000 C 
ATOM     20  N   UNL     1       1.820   9.046  18.889  0.00  0.00    +0.000 NA
BRANCH  19  24
ATOM     21  C   UNL     1      -0.643  11.917  22.175  0.00  0.00    +0.000 A 
ATOM     22  C   UNL     1      -0.662  10.518  22.120  0.00  0.00    +0.000 A 
ATOM     23  C   UNL     1      -0.216   9.850  20.988  0.00  0.00    +0.000 A 
ATOM     24  C   UNL     1       0.232  10.576  19.882  0.00  0.00    +0.000 A 
ATOM     25  C   UNL     1       0.171  11.986  19.872  0.00  0.00    +0.000 A 
ATOM     26  C   UNL     1      -0.292  12.670  21.030  0.00  0.00    +0.000 A 
BRANCH  21  28
ATOM     27  C   UNL     1      -2.411  12.730  23.529  0.00  0.00    +0.000 C 
ATOM     28  O   UNL     1      -1.006  12.553  23.335  0.00  0.00    +0.000 OA
ENDBRANCH  21  28
BRANCH  25  29
ATOM     29  O   UNL     1       0.597  12.548  18.689  0.00  0.00    +0.000 OA
ATOM     30  C   UNL     1       1.882  13.147  18.600  0.00  0.00    +0.000 C 
ENDBRANCH  25  29
BRANCH  26  31
ATOM     31  O   UNL     1      -0.356  14.036  20.934  0.00  0.00    +0.000 OA
ATOM     32  C   UNL     1      -1.526  14.699  20.483  0.00  0.00    +0.000 C 
ENDBRANCH  26  31
ENDBRANCH  19  24
ENDBRANCH   1  20
TORSDOF 5
ENDMDL
MODEL 4
REMARK VINA RESULT:      -7.4      2.051      2.832
REMARK  Name = 
REMARK  8 active torsions:
REMARK  status: ('A' for Active; 'I' for Inactive)
REMARK    1  A    between atoms: C_1  and  O_2
REMARK    2  A    between atoms: O_2  and  C_3
REMARK    3  A    between atoms: C_6  and  C_7
REMARK    4  A    between atoms: N_8  and  N_9
REMARK    5  A    between atoms: C_26  and  O_27
REMARK    6  A    between atoms: O_27  and  C_28
REMARK    7  A    between atoms: C_29  and  O_30
REMARK    8  A    between atoms: O_30  and  C_31
REMARK                            x       y       z     vdW  Elec       q    Type
REMARK                         _______ _______ _______ _____ _____    ______ ____
ROOT
ATOM      1  N   UNL     1       0.807   9.257  21.789  0.00  0.00    +0.000 N 
ATOM      2  C   UNL     1       0.502  10.290  20.867  0.00  0.00    +0.000 A 
ATOM      3  N   UNL     1      -0.322  10.033  19.853  0.00  0.00    +0.000 NA
ATOM      4  C   UNL     1      -0.615  11.048  19.056  0.00  0.00    +0.000 A 
ATOM      5  N   UNL     1      -1.459  10.852  17.988  0.00  0.00    +0.000 N 
ATOM      6  C   UNL     1      -2.219  11.972  17.459  0.00  0.00    +0.000 C 
ATOM      7  C   UNL     1      -3.599  11.379  17.189  0.00  0.00    +0.000 C 
ATOM      8  C   UNL     1      -3.300   9.920  16.879  0.00  0.00    +0.000 C 
ATOM      9  C   UNL     1      -2.155   9.584  17.835  0.00  0.00    +0.000 C 
ATOM     10  N   UNL     1      -0.125  12.264  19.237  0.00  0.00    +0.000 NA
ATOM     11  C   UNL     1       0.709  12.446  20.252  0.00  0.00    +0.000 A 
ATOM     12  N   UNL     1       1.232  13.713  20.398  0.00  0.00    +0.000 N 
ATOM     13  C   UNL     1       2.044  14.116  21.530  0.00  0.00    +0.000 C 
ATOM     14  C   UNL     1       1.533  15.518  21.857  0.00  0.00    +0.000 C 
ATOM     15  C   UNL     1       1.080  16.060  20.509  0.00  0.00    +0.000 C 
ATOM     16  C   UNL     1       0.516  14.831  19.801  0.00  0.00    +0.000 C 
ATOM     17  N   UNL     1       1.045  11.484  21.100  0.00  0.00    +0.000 NA
ATOM     18  H   UNL     1       1.599   9.582  22.339  0.00  0.00    +0.000 HD
ENDROOT
BRANCH   1  20
ATOM     19  C   UNL     1       1.947   7.667  20.663  0.00  0.00    +0.000 C 
ATOM     20  N   UNL     1       0.856   7.985  21.290  0.00  0.00    +0.000 NA
BRANCH  19  24
ATOM     21  C   UNL     1       2.147   3.775  18.892  0.00  0.00    +0.000 A 
ATOM     22  C   UNL     1       1.575   3.971  20.155  0.00  0.00    +0.000 A 
ATOM     23  C   UNL     1       1.538   5.235  20.724  0.00  0.00    +0.000 A 
ATOM     24  C   UNL     1       2.096   6.322  20.047  0.00  0.00    +0.000 A 
ATOM     25  C   UNL     1       2.765   6.139  18.818  0.00  0.00    +0.000 A 
ATOM     26  C   UNL     1       2.810   4.840  18.238  0.00  0.00    +0.000 A 
BRANCH  21  28
ATOM     27  C   UNL     1       3.164   1.647  18.653  0.00  0.00    +0.000 C 
ATOM     28  O   UNL     1       2.096   2.533  18.311  0.00  0.00    +0.000 OA
ENDBRANCH  21  28
BRANCH  25  29
ATOM     29  O   UNL     1       3.307   7.296  18.307  0.00  0.00    +0.000 OA
ATOM     30  C   UNL     1       2.502   8.200  17.564  0.00  0.00    +0.000 C 
ENDBRANCH  25  29
BRANCH  26  31
ATOM     31  O   UNL     1       3.506   4.733  17.062  0.00  0.00    +0.000 OA
ATOM     32  C   UNL     1       4.899   4.470  17.040  0.00  0.00    +0.000 C 
ENDBRANCH  26  31
ENDBRANCH  19  24
ENDBRANCH   1  20
TORSDOF 5
ENDMDL
MODEL 5
REMARK VINA RESULT:      -7.3      2.504      3.358
REMARK  Name = 
REMARK  8 active torsions:
REMARK  status: ('A' for Active; 'I' for Inactive)
REMARK    1  A    between atoms: C_1  and  O_2
REMARK    2  A    between atoms: O_2  and  C_3
REMARK    3  A    between atoms: C_6  and  C_7
REMARK    4  A    between atoms: N_8  and  N_9
REMARK    5  A    between atoms: C_26  and  O_27
REMARK    6  A    between atoms: O_27  and  C_28
REMARK    7  A    between atoms: C_29  and  O_30
REMARK    8  A    between atoms: O_30  and  C_31
REMARK                            x       y       z     vdW  Elec       q    Type
REMARK                         _______ _______ _______ _____ _____    ______ ____
ROOT
ATOM      1  N   UNL     1       0.272   9.661  19.436  0.00  0.00    +0.000 N 
ATOM      2  C   UNL     1       0.519  10.912  20.057  0.00  0.00    +0.000 A 
ATOM      3  N   UNL     1       1.458  11.711  19.556  0.00  0.00    +0.000 NA
ATOM      4  C   UNL     1       1.609  12.888  20.141  0.00  0.00    +0.000 A 
ATOM      5  N   UNL     1       2.562  13.763  19.674  0.00  0.00    +0.000 N 
ATOM      6  C   UNL     1       2.394  15.190  19.889  0.00  0.00    +0.000 C 
ATOM      7  C   UNL     1       2.823  15.810  18.562  0.00  0.00    +0.000 C 
ATOM      8  C   UNL     1       3.849  14.823  18.028  0.00  0.00    +0.000 C 
ATOM      9  C   UNL     1       3.283  13.465  18.447  0.00  0.00    +0.000 C 
ATOM     10  N   UNL     1       0.875  13.273  21.173  0.00  0.00    +0.000 NA
ATOM     11  C   UNL     1      -0.027  12.419  21.638  0.00  0.00    +0.000 A 
ATOM     12  N   UNL     1      -0.754  12.829  22.735  0.00  0.00    +0.000 N 
ATOM     13  C   UNL     1      -1.871  12.080  23.279  0.00  0.00    +0.000 C 
ATOM     14  C   UNL     1      -2.898  13.160  23.613  0.00  0.00    +0.000 C 
ATOM     15  C   UNL     1      -2.048  14.375  23.952  0.00  0.00    +0.000 C 
ATOM     16  C   UNL     1      -0.860  14.257  23.001  0.00  0.00    +0.000 C 
ATOM     17  N   UNL     1      -0.245  11.226  21.103  0.00  0.00    +0.000 NA
ATOM     18  H   UNL     1      -0.306   9.126  20.080  0.00  0.00    +0.000 HD
ENDROOT
BRANCH   1  20
ATOM     19  C   UNL     1       1.601   7.841  19.314  0.00  0.00    +0.000 C 
ATOM     20  N   UNL     1       1.348   9.034  18.871  0.00  0.00    +0.000 NA
BRANCH  19  24
ATOM     21  C   UNL     1       5.088   5.838  17.848  0.00  0.00    +0.000 A 
ATOM     22  C   UNL     1       4.548   6.943  17.178  0.00  0.00    +0.000 A 
ATOM     23  C   UNL     1       3.405   7.567  17.654  0.00  0.00    +0.000 A 
ATOM     24  C   UNL     1       2.768   7.078  18.797  0.00  0.00    +0.000 A 
ATOM     25  C   UNL     1       3.232   5.909  19.437  0.00  0.00    +0.000 A 
ATOM     26  C   UNL     1       4.401   5.264  18.944  0.00  0.00    +0.000 A 
BRANCH  21  28
ATOM     27  C   UNL     1       6.160   4.413  16.285  0.00  0.00    +0.000 C 
ATOM     28  O   UNL     1       6.266   5.289  17.409  0.00  0.00    +0.000 OA
ENDBRANCH  21  28
BRANCH  25  29
ATOM     29  O   UNL     1       2.465   5.528  20.514  0.00  0.00    +0.000 OA
ATOM     30  C   UNL     1       1.381   4.626  20.341  0.00  0.00    +0.000 C 
ENDBRANCH  25  29
BRANCH  26  31
ATOM     31  O   UNL     1       4.771   4.116  19.594  0.00  0.00    +0.000 OA
ATOM     32  C   UNL     1       4.304   2.842  19.184  0.00  0.00    +0.000 C 
ENDBRANCH  26  31
ENDBRANCH  19  24
ENDBRANCH   1  20
TORSDOF 5
ENDMDL
MODEL 6
REMARK VINA RESULT:      -7.2      1.213      2.247
REMARK  Name = 
REMARK  8 active torsions:
REMARK  status: ('A' for Active; 'I' for Inactive)
REMARK    1  A    between atoms: C_1  and  O_2
REMARK    2  A    between atoms: O_2  and  C_3
REMARK    3  A    between atoms: C_6  and  C_7
REMARK    4  A    between atoms: N_8  and  N_9
REMARK    5  A    between atoms: C_26  and  O_27
REMARK    6  A    between atoms: O_27  and  C_28
REMARK    7  A    between atoms: C_29  and  O_30
REMARK    8  A    between atoms: O_30  and  C_31
REMARK                            x       y       z     vdW  Elec       q    Type
REMARK                         _______ _______ _______ _____ _____    ______ ____
ROOT
ATOM      1  N   UNL     1       0.631   9.325  22.009  0.00  0.00    +0.000 N 
ATOM      2  C   UNL     1      -0.089  10.355  21.351  0.00  0.00    +0.000 A 
ATOM      3  N   UNL     1      -0.492  10.165  20.096  0.00  0.00    +0.000 NA
ATOM      4  C   UNL     1      -1.206  11.136  19.550  0.00  0.00    +0.000 A 
ATOM      5  N   UNL     1      -1.654  11.004  18.256  0.00  0.00    +0.000 N 
ATOM      6  C   UNL     1      -2.842  11.727  17.831  0.00  0.00    +0.000 C 
ATOM      7  C   UNL     1      -3.601  10.710  16.984  0.00  0.00    +0.000 C 
ATOM      8  C   UNL     1      -2.496   9.838  16.408  0.00  0.00    +0.000 C 
ATOM      9  C   UNL     1      -1.488   9.743  17.554  0.00  0.00    +0.000 C 
ATOM     10  N   UNL     1      -1.515  12.247  20.198  0.00  0.00    +0.000 NA
ATOM     11  C   UNL     1      -1.061  12.383  21.437  0.00  0.00    +0.000 A 
ATOM     12  N   UNL     1      -1.366  13.565  22.077  0.00  0.00    +0.000 N 
ATOM     13  C   UNL     1      -1.070  13.816  23.474  0.00  0.00    +0.000 C 
ATOM     14  C   UNL     1      -2.318  14.536  23.983  0.00  0.00    +0.000 C 
ATOM     15  C   UNL     1      -2.828  15.280  22.758  0.00  0.00    +0.000 C 
ATOM     16  C   UNL     1      -2.508  14.334  21.605  0.00  0.00    +0.000 C 
ATOM     17  N   UNL     1      -0.347  11.454  22.057  0.00  0.00    +0.000 NA
ATOM     18  H   UNL     1       1.027   9.739  22.850  0.00  0.00    +0.000 HD
ENDROOT
BRANCH   1  20
ATOM     19  C   UNL     1       1.078   7.321  21.071  0.00  0.00    +0.000 C 
ATOM     20  N   UNL     1       1.449   8.555  21.231  0.00  0.00    +0.000 NA
BRANCH  19  24
ATOM     21  C   UNL     1       3.287   4.488  18.743  0.00  0.00    +0.000 A 
ATOM     22  C   UNL     1       2.666   4.117  19.943  0.00  0.00    +0.000 A 
ATOM     23  C   UNL     1       1.972   5.053  20.696  0.00  0.00    +0.000 A 
ATOM     24  C   UNL     1       1.911   6.382  20.273  0.00  0.00    +0.000 A 
ATOM     25  C   UNL     1       2.607   6.805  19.121  0.00  0.00    +0.000 A 
ATOM     26  C   UNL     1       3.325   5.847  18.352  0.00  0.00    +0.000 A 
BRANCH  21  28
ATOM     27  C   UNL     1       3.471   2.186  18.208  0.00  0.00    +0.000 C 
ATOM     28  O   UNL     1       3.894   3.530  17.971  0.00  0.00    +0.000 OA
ENDBRANCH  21  28
BRANCH  25  29
ATOM     29  O   UNL     1       2.491   8.154  18.870  0.00  0.00    +0.000 OA
ATOM     30  C   UNL     1       1.884   8.612  17.670  0.00  0.00    +0.000 C 
ENDBRANCH  25  29
BRANCH  26  31
ATOM     31  O   UNL     1       4.005   6.337  17.267  0.00  0.00    +0.000 OA
ATOM     32  C   UNL     1       5.385   6.656  17.333  0.00  0.00    +0.000 C 
ENDBRANCH  26  31
ENDBRANCH  19  24
ENDBRANCH   1  20
TORSDOF 5
ENDMDL
MODEL 7
REMARK VINA RESULT:      -7.1      3.671      9.727
REMARK  Name = 
REMARK  8 active torsions:
REMARK  status: ('A' for Active; 'I' for Inactive)
REMARK    1  A    between atoms: C_1  and  O_2
REMARK    2  A    between atoms: O_2  and  C_3
REMARK    3  A    between atoms: C_6  and  C_7
REMARK    4  A    between atoms: N_8  and  N_9
REMARK    5  A    between atoms: C_26  and  O_27
REMARK    6  A    between atoms: O_27  and  C_28
REMARK    7  A    between atoms: C_29  and  O_30
REMARK    8  A    between atoms: O_30  and  C_31
REMARK                            x       y       z     vdW  Elec       q    Type
REMARK                         _______ _______ _______ _____ _____    ______ ____
ROOT
ATOM      1  N   UNL     1       2.035   8.426  17.581  0.00  0.00    +0.000 N 
ATOM      2  C   UNL     1       2.804   7.294  17.954  0.00  0.00    +0.000 A 
ATOM      3  N   UNL     1       2.340   6.477  18.897  0.00  0.00    +0.000 NA
ATOM      4  C   UNL     1       3.071   5.407  19.167  0.00  0.00    +0.000 A 
ATOM      5  N   UNL     1       2.650   4.521  20.131  0.00  0.00    +0.000 N 
ATOM      6  C   UNL     1       3.081   3.135  20.069  0.00  0.00    +0.000 C 
ATOM      7  C   UNL     1       1.823   2.348  20.426  0.00  0.00    +0.000 C 
ATOM      8  C   UNL     1       1.064   3.295  21.342  0.00  0.00    +0.000 C 
ATOM      9  C   UNL     1       1.334   4.670  20.730  0.00  0.00    +0.000 C 
ATOM     10  N   UNL     1       4.209   5.144  18.545  0.00  0.00    +0.000 NA
ATOM     11  C   UNL     1       4.626   6.012  17.633  0.00  0.00    +0.000 A 
ATOM     12  N   UNL     1       5.832   5.733  17.025  0.00  0.00    +0.000 N 
ATOM     13  C   UNL     1       6.361   6.499  15.913  0.00  0.00    +0.000 C 
ATOM     14  C   UNL     1       6.937   5.431  14.984  0.00  0.00    +0.000 C 
ATOM     15  C   UNL     1       7.368   4.323  15.932  0.00  0.00    +0.000 C 
ATOM     16  C   UNL     1       6.307   4.357  17.029  0.00  0.00    +0.000 C 
ATOM     17  N   UNL     1       3.948   7.101  17.300  0.00  0.00    +0.000 NA
ATOM     18  H   UNL     1       2.645   9.022  17.026  0.00  0.00    +0.000 HD
ENDROOT
BRANCH   1  20
ATOM     19  C   UNL     1       0.761  10.160  18.264  0.00  0.00    +0.000 C 
ATOM     20  N   UNL     1       1.293   9.014  18.567  0.00  0.00    +0.000 NA
BRANCH  19  24
ATOM     21  C   UNL     1      -1.355  12.447  21.199  0.00  0.00    +0.000 A 
ATOM     22  C   UNL     1      -0.195  11.737  21.529  0.00  0.00    +0.000 A 
ATOM     23  C   UNL     1       0.467  10.983  20.571  0.00  0.00    +0.000 A 
ATOM     24  C   UNL     1      -0.038  10.907  19.271  0.00  0.00    +0.000 A 
ATOM     25  C   UNL     1      -1.257  11.533  18.934  0.00  0.00    +0.000 A 
ATOM     26  C   UNL     1      -1.940  12.301  19.918  0.00  0.00    +0.000 A 
BRANCH  21  28
ATOM     27  C   UNL     1      -1.359  13.218  23.441  0.00  0.00    +0.000 C 
ATOM     28  O   UNL     1      -1.945  13.255  22.138  0.00  0.00    +0.000 OA
ENDBRANCH  21  28
BRANCH  25  29
ATOM     29  O   UNL     1      -1.645  11.319  17.630  0.00  0.00    +0.000 OA
ATOM     30  C   UNL     1      -2.552  10.273  17.313  0.00  0.00    +0.000 C 
ENDBRANCH  25  29
BRANCH  26  31
ATOM     31  O   UNL     1      -3.134  12.849  19.528  0.00  0.00    +0.000 OA
ATOM     32  C   UNL     1      -4.374  12.357  20.008  0.00  0.00    +0.000 C 
ENDBRANCH  26  31
ENDBRANCH  19  24
ENDBRANCH   1  20
TORSDOF 5
ENDMDL
MODEL 8
REMARK VINA RESULT:      -7.0      1.074      1.348
REMARK  Name = 
REMARK  8 active torsions:
REMARK  status: ('A' for Active; 'I' for Inactive)
REMARK    1  A    between atoms: C_1  and  O_2
REMARK    2  A    between atoms: O_2  and  C_3
REMARK    3  A    between atoms: C_6  and  C_7
REMARK    4  A    between atoms: N_8  and  N_9
REMARK    5  A    between atoms: C_26  and  O_27
REMARK    6  A    between atoms: O_27  and  C_28
REMARK    7  A    between atoms: C_29  and  O_30
REMARK    8  A    between atoms: O_30  and  C_31
REMARK                            x       y       z     vdW  Elec       q    Type
REMARK                         _______ _______ _______ _____ _____    ______ ____
ROOT
ATOM      1  N   UNL     1       0.579   9.197  20.569  0.00  0.00    +0.000 N 
ATOM      2  C   UNL     1      -0.397  10.167  20.225  0.00  0.00    +0.000 A 
ATOM      3  N   UNL     1      -0.890  10.182  18.989  0.00  0.00    +0.000 NA
ATOM      4  C   UNL     1      -1.836  11.073  18.739  0.00  0.00    +0.000 A 
ATOM      5  N   UNL     1      -2.389  11.142  17.481  0.00  0.00    +0.000 N 
ATOM      6  C   UNL     1      -3.735  11.667  17.317  0.00  0.00    +0.000 C 
ATOM      7  C   UNL     1      -4.367  10.728  16.294  0.00  0.00    +0.000 C 
ATOM      8  C   UNL     1      -3.183  10.268  15.458  0.00  0.00    +0.000 C 
ATOM      9  C   UNL     1      -2.057  10.138  16.484  0.00  0.00    +0.000 C 
ATOM     10  N   UNL     1      -2.284  11.916  19.655  0.00  0.00    +0.000 NA
ATOM     11  C   UNL     1      -1.732  11.864  20.860  0.00  0.00    +0.000 A 
ATOM     12  N   UNL     1      -2.192  12.777  21.786  0.00  0.00    +0.000 N 
ATOM     13  C   UNL     1      -1.799  12.765  23.182  0.00  0.00    +0.000 C 
ATOM     14  C   UNL     1      -3.100  13.063  23.924  0.00  0.00    +0.000 C 
ATOM     15  C   UNL     1      -3.878  13.936  22.950  0.00  0.00    +0.000 C 
ATOM     16  C   UNL     1      -3.508  13.366  21.584  0.00  0.00    +0.000 C 
ATOM     17  N   UNL     1      -0.787  10.997  21.192  0.00  0.00    +0.000 NA
ATOM     18  H   UNL     1       0.975   9.486  21.460  0.00  0.00    +0.000 HD
ENDROOT
BRANCH   1  20
ATOM     19  C   UNL     1       1.988   7.649  19.724  0.00  0.00    +0.000 C 
ATOM     20  N   UNL     1       1.442   8.818  19.579  0.00  0.00    +0.000 NA
BRANCH  19  24
ATOM     21  C   UNL     1       4.920   6.413  16.860  0.00  0.00    +0.000 A 
ATOM     22  C   UNL     1       4.062   7.490  16.604  0.00  0.00    +0.000 A 
ATOM     23  C   UNL     1       3.103   7.865  17.534  0.00  0.00    +0.000 A 
ATOM     24  C   UNL     1       2.970   7.149  18.726  0.00  0.00    +0.000 A 
ATOM     25  C   UNL     1       3.754   6.000  18.968  0.00  0.00    +0.000 A 
ATOM     26  C   UNL     1       4.733   5.612  18.011  0.00  0.00    +0.000 A 
BRANCH  21  28
ATOM     27  C   UNL     1       5.577   5.163  14.956  0.00  0.00    +0.000 C 
ATOM     28  O   UNL     1       5.917   6.115  15.966  0.00  0.00    +0.000 OA
ENDBRANCH  21  28
BRANCH  25  29
ATOM     29  O   UNL     1       3.465   5.377  20.161  0.00  0.00    +0.000 OA
ATOM     30  C   UNL     1       2.636   4.224  20.187  0.00  0.00    +0.000 C 
ENDBRANCH  25  29
BRANCH  26  31
ATOM     31  O   UNL     1       5.431   4.468  18.298  0.00  0.00    +0.000 OA
ATOM     32  C   UNL     1       6.811   4.496  18.620  0.00  0.00    +0.000 C 
ENDBRANCH  26  31
ENDBRANCH  19  24
ENDBRANCH   1  20
TORSDOF 5
ENDMDL
MODEL 9
REMARK VINA RESULT:      -6.9      2.945      3.748
REMARK  Name = 
REMARK  8 active torsions:
REMARK  status: ('A' for Active; 'I' for Inactive)
REMARK    1  A    between atoms: C_1  and  O_2
REMARK    2  A    between atoms: O_2  and  C_3
REMARK    3  A    between atoms: C_6  and  C_7
REMARK    4  A    between atoms: N_8  and  N_9
REMARK    5  A    between atoms: C_26  and  O_27
REMARK    6  A    between atoms: O_27  and  C_28
REMARK    7  A    between atoms: C_29  and  O_30
REMARK    8  A    between atoms: O_30  and  C_31
REMARK                            x       y       z     vdW  Elec       q    Type
REMARK                         _______ _______ _______ _____ _____    ______ ____
ROOT
ATOM      1  N   UNL     1       0.691   9.853  17.946  0.00  0.00    +0.000 N 
ATOM      2  C   UNL     1       0.726  11.115  18.593  0.00  0.00    +0.000 A 
ATOM      3  N   UNL     1       1.810  11.877  18.470  0.00  0.00    +0.000 NA
ATOM      4  C   UNL     1       1.767  13.067  19.049  0.00  0.00    +0.000 A 
ATOM      5  N   UNL     1       2.854  13.905  18.961  0.00  0.00    +0.000 N 
ATOM      6  C   UNL     1       2.663  15.341  19.073  0.00  0.00    +0.000 C 
ATOM      7  C   UNL     1       3.580  15.914  17.995  0.00  0.00    +0.000 C 
ATOM      8  C   UNL     1       4.699  14.888  17.905  0.00  0.00    +0.000 C 
ATOM      9  C   UNL     1       3.974  13.557  18.102  0.00  0.00    +0.000 C 
ATOM     10  N   UNL     1       0.711  13.497  19.720  0.00  0.00    +0.000 NA
ATOM     11  C   UNL     1      -0.326  12.677  19.825  0.00  0.00    +0.000 A 
ATOM     12  N   UNL     1      -1.399  13.135  20.560  0.00  0.00    +0.000 N 
ATOM     13  C   UNL     1      -2.662  12.428  20.655  0.00  0.00    +0.000 C 
ATOM     14  C   UNL     1      -3.705  13.540  20.558  0.00  0.00    +0.000 C 
ATOM     15  C   UNL     1      -3.006  14.744  21.172  0.00  0.00    +0.000 C 
ATOM     16  C   UNL     1      -1.552  14.571  20.742  0.00  0.00    +0.000 C 
ATOM     17  N   UNL     1      -0.365  11.475  19.268  0.00  0.00    +0.000 NA
ATOM     18  H   UNL     1      -0.104   9.350  18.333  0.00  0.00    +0.000 HD
ENDROOT
BRANCH   1  20
ATOM     19  C   UNL     1       1.830   7.908  18.064  0.00  0.00    +0.000 C 
ATOM     20  N   UNL     1       1.879   9.186  17.839  0.00  0.00    +0.000 NA
BRANCH  19  24
ATOM     21  C   UNL     1       5.511   5.723  18.001  0.00  0.00    +0.000 A 
ATOM     22  C   UNL     1       5.356   6.908  17.271  0.00  0.00    +0.000 A 
ATOM     23  C   UNL     1       4.150   7.593  17.285  0.00  0.00    +0.000 A 
ATOM     24  C   UNL     1       3.069   7.087  18.011  0.00  0.00    +0.000 A 
ATOM     25  C   UNL     1       3.165   5.847  18.677  0.00  0.00    +0.000 A 
ATOM     26  C   UNL     1       4.401   5.141  18.657  0.00  0.00    +0.000 A 
BRANCH  21  28
ATOM     27  C   UNL     1       7.715   5.738  18.874  0.00  0.00    +0.000 C 
ATOM     28  O   UNL     1       6.737   5.109  18.043  0.00  0.00    +0.000 OA
ENDBRANCH  21  28
BRANCH  25  29
ATOM     29  O   UNL     1       1.999   5.463  19.299  0.00  0.00    +0.000 OA
ATOM     30  C   UNL     1       1.914   5.441  20.717  0.00  0.00    +0.000 C 
ENDBRANCH  25  29
BRANCH  26  31
ATOM     31  O   UNL     1       4.408   3.928  19.295  0.00  0.00    +0.000 OA
ATOM     32  C   UNL     1       3.957   2.745  18.656  0.00  0.00    +0.000 C 
ENDBRANCH  26  31
ENDBRANCH  19  24
ENDBRANCH   1  20
TORSDOF 5
ENDMDL
