MODEL 1
REMARK VINA RESULT:      -8.1      0.000      0.000
REMARK  Name = 
REMARK  11 active torsions:
REMARK  status: ('A' for Active; 'I' for Inactive)
REMARK    1  A    between atoms: C_1  and  C_2
REMARK    2  A    between atoms: C_10  and  C_11
REMARK    3  A    between atoms: C_11  and  C_12
REMARK    4  A    between atoms: N_14  and  C_15
REMARK    5  A    between atoms: C_15  and  C_16
REMARK    6  A    between atoms: N_18  and  CA_19
REMARK    7  A    between atoms: CA_19  and  C_20
REMARK    8  A    between atoms: CA_19  and  C_23
REMARK    9  A    between atoms: C_20  and  OXT_22
REMARK   10  A    between atoms: C_29  and  C_30
REMARK   11  A    between atoms: C_34  and  C_35
REMARK                            x       y       z     vdW  Elec       q    Type
REMARK                         _______ _______ _______ _____ _____    ______ ____
ROOT
ATOM      1  C   UNL     1      -1.745  13.118  21.214  0.00  0.00    +0.000 C 
ATOM      2  O   UNL     1      -2.000  13.758  20.193  0.00  0.00    +0.000 OA
ATOM      3  N   UNL     1      -2.736  12.738  22.098  0.00  0.00    +0.000 N 
ATOM      4  H   UNL     1      -2.502  12.285  22.978  0.00  0.00    +0.000 HD
ENDROOT
BRANCH   1   5
ATOM      5  C   UNL     1      -0.306  12.749  21.580  0.00  0.00    +0.000 C 
BRANCH   5  15
ATOM      6  C   UNL     1       4.103   4.317  18.721  0.00  0.00    +0.000 C 
ATOM      7  C   UNL     1       3.316   5.554  18.927  0.00  0.00    +0.000 A 
ATOM      8  O   UNL     1       2.524   5.579  20.030  0.00  0.00    +0.000 OA
ATOM      9  C   UNL     1       1.955   6.809  20.089  0.00  0.00    +0.000 A 
ATOM     10  C   UNL     1       1.109   7.243  21.097  0.00  0.00    +0.000 A 
ATOM     11  C   UNL     1       0.721   8.586  21.030  0.00  0.00    +0.000 A 
ATOM     12  O   UNL     1      -0.027   9.036  22.130  0.00  0.00    +0.000 OA
ATOM     13  C   UNL     1      -0.157  10.386  22.378  0.00  0.00    +0.000 A 
ATOM     14  O   UNL     1      -0.481  10.797  23.488  0.00  0.00    +0.000 OA
ATOM     15  C   UNL     1       0.071  11.317  21.239  0.00  0.00    +0.000 A 
ATOM     16  C   UNL     1       0.661  10.877  20.101  0.00  0.00    +0.000 A 
ATOM     17  C   UNL     1       0.963  11.766  18.922  0.00  0.00    +0.000 C 
ATOM     18  C   UNL     1       1.092   9.456  20.003  0.00  0.00    +0.000 A 
ATOM     19  C   UNL     1       1.897   8.933  18.959  0.00  0.00    +0.000 A 
ATOM     20  C   UNL     1       2.362   7.593  19.015  0.00  0.00    +0.000 A 
ATOM     21  C   UNL     1       3.219   6.749  18.229  0.00  0.00    +0.000 A 
ATOM     22  C   UNL     1       3.912   7.062  16.954  0.00  0.00    +0.000 C 
ENDBRANCH   5  15
ENDBRANCH   1   5
BRANCH   3  23
ATOM     23  C   UNL     1      -4.107  13.192  21.894  0.00  0.00    +0.000 C 
BRANCH  23  24
ATOM     24  C   UNL     1      -4.951  12.366  20.906  0.00  0.00    +0.000 C 
ATOM     25  O   UNL     1      -6.039  11.890  21.205  0.00  0.00    +0.000 OA
ATOM     26  N   UNL     1      -4.451  12.333  19.609  0.00  0.00    +0.000 N 
ATOM     27  H   UNL     1      -3.455  12.490  19.492  0.00  0.00    +0.000 HD
BRANCH  26  28
ATOM     28  CA  UNL     1      -5.130  11.611  18.510  0.00  0.00    +0.000 C 
BRANCH  28  29
ATOM     29  C   UNL     1      -4.159  11.035  17.492  0.00  0.00    +0.000 A 
ATOM     30  C   UNL     1      -2.936  10.511  17.948  0.00  0.00    +0.000 A 
ATOM     31  C   UNL     1      -2.033   9.911  17.071  0.00  0.00    +0.000 A 
ATOM     32  C   UNL     1      -2.330   9.834  15.715  0.00  0.00    +0.000 A 
ATOM     33  C   UNL     1      -3.527  10.366  15.238  0.00  0.00    +0.000 A 
ATOM     34  C   UNL     1      -4.433  10.970  16.116  0.00  0.00    +0.000 A 
ENDBRANCH  28  29
BRANCH  28  35
ATOM     35  C   UNL     1      -6.247  12.503  17.905  0.00  0.00    +0.000 C 
ATOM     36  O   UNL     1      -6.109  13.375  17.064  0.00  0.00    +0.000 OA
BRANCH  35  37
ATOM     37  OXT UNL     1      -7.487  12.138  18.345  0.00  0.00    +0.000 OA
ATOM     38  HXT UNL     1      -7.443  11.802  19.263  0.00  0.00    +0.000 HD
ENDBRANCH  35  37
ENDBRANCH  28  35
ENDBRANCH  26  28
ENDBRANCH  23  24
ENDBRANCH   3  23
TORSDOF 8
ENDMDL
MODEL 2
REMARK VINA RESULT:      -7.6      2.513      5.179
REMARK  Name = 
REMARK  11 active torsions:
REMARK  status: ('A' for Active; 'I' for Inactive)
REMARK    1  A    between atoms: C_1  and  C_2
REMARK    2  A    between atoms: C_10  and  C_11
REMARK    3  A    between atoms: C_11  and  C_12
REMARK    4  A    between atoms: N_14  and  C_15
REMARK    5  A    between atoms: C_15  and  C_16
REMARK    6  A    between atoms: N_18  and  CA_19
REMARK    7  A    between atoms: CA_19  and  C_20
REMARK    8  A    between atoms: CA_19  and  C_23
REMARK    9  A    between atoms: C_20  and  OXT_22
REMARK   10  A    between atoms: C_29  and  C_30
REMARK   11  A    between atoms: C_34  and  C_35
REMARK                            x       y       z     vdW  Elec       q    Type
REMARK                         _______ _______ _______ _____ _____    ______ ____
ROOT
ATOM      1  C   UNL     1      -1.721  12.148  21.441  0.00  0.00    +0.000 C 
ATOM      2  O   UNL     1      -2.293  11.728  22.448  0.00  0.00    +0.000 OA
ATOM      3  N   UNL     1      -2.419  12.483  20.297  0.00  0.00    +0.000 N 
ATOM      4  H   UNL     1      -1.928  12.746  19.446  0.00  0.00    +0.000 HD
ENDROOT
BRANCH   1   5
ATOM      5  C   UNL     1      -0.198  12.278  21.390  0.00  0.00    +0.000 C 
BRANCH   5  15
ATOM      6  C   UNL     1       2.676   3.390  18.006  0.00  0.00    +0.000 C 
ATOM      7  C   UNL     1       2.434   4.684  18.683  0.00  0.00    +0.000 A 
ATOM      8  O   UNL     1       2.571   5.793  17.911  0.00  0.00    +0.000 OA
ATOM      9  C   UNL     1       2.234   6.861  18.677  0.00  0.00    +0.000 A 
ATOM     10  C   UNL     1       2.204   8.174  18.237  0.00  0.00    +0.000 A 
ATOM     11  C   UNL     1       1.719   9.113  19.154  0.00  0.00    +0.000 A 
ATOM     12  O   UNL     1       1.575  10.414  18.643  0.00  0.00    +0.000 OA
ATOM     13  C   UNL     1       0.783  11.334  19.295  0.00  0.00    +0.000 A 
ATOM     14  O   UNL     1       0.354  12.325  18.711  0.00  0.00    +0.000 OA
ATOM     15  C   UNL     1       0.502  11.098  20.737  0.00  0.00    +0.000 A 
ATOM     16  C   UNL     1       0.767   9.893  21.300  0.00  0.00    +0.000 A 
ATOM     17  C   UNL     1       0.474   9.564  22.741  0.00  0.00    +0.000 C 
ATOM     18  C   UNL     1       1.331   8.802  20.458  0.00  0.00    +0.000 A 
ATOM     19  C   UNL     1       1.455   7.452  20.876  0.00  0.00    +0.000 A 
ATOM     20  C   UNL     1       1.888   6.456  19.961  0.00  0.00    +0.000 A 
ATOM     21  C   UNL     1       2.066   5.031  19.974  0.00  0.00    +0.000 A 
ATOM     22  C   UNL     1       1.867   4.082  21.097  0.00  0.00    +0.000 C 
ENDBRANCH   5  15
ENDBRANCH   1   5
BRANCH   3  23
ATOM     23  C   UNL     1      -3.855  12.233  20.220  0.00  0.00    +0.000 C 
BRANCH  23  24
ATOM     24  C   UNL     1      -4.756  13.252  20.941  0.00  0.00    +0.000 C 
ATOM     25  O   UNL     1      -5.161  14.273  20.401  0.00  0.00    +0.000 OA
ATOM     26  N   UNL     1      -5.193  12.846  22.198  0.00  0.00    +0.000 N 
ATOM     27  H   UNL     1      -4.626  12.163  22.687  0.00  0.00    +0.000 HD
BRANCH  26  28
ATOM     28  CA  UNL     1      -6.085  13.676  23.038  0.00  0.00    +0.000 C 
BRANCH  28  29
ATOM     29  C   UNL     1      -5.348  14.798  23.752  0.00  0.00    +0.000 A 
ATOM     30  C   UNL     1      -6.011  16.023  23.946  0.00  0.00    +0.000 A 
ATOM     31  C   UNL     1      -5.412  17.068  24.649  0.00  0.00    +0.000 A 
ATOM     32  C   UNL     1      -4.131  16.912  25.165  0.00  0.00    +0.000 A 
ATOM     33  C   UNL     1      -3.448  15.712  24.967  0.00  0.00    +0.000 A 
ATOM     34  C   UNL     1      -4.045  14.665  24.259  0.00  0.00    +0.000 A 
ENDBRANCH  28  29
BRANCH  28  35
ATOM     35  C   UNL     1      -6.931  12.765  23.968  0.00  0.00    +0.000 C 
ATOM     36  O   UNL     1      -6.818  11.559  24.108  0.00  0.00    +0.000 OA
BRANCH  35  37
ATOM     37  OXT UNL     1      -7.797  13.486  24.739  0.00  0.00    +0.000 OA
ATOM     38  HXT UNL     1      -7.357  14.282  25.102  0.00  0.00    +0.000 HD
ENDBRANCH  35  37
ENDBRANCH  28  35
ENDBRANCH  26  28
ENDBRANCH  23  24
ENDBRANCH   3  23
TORSDOF 8
ENDMDL
MODEL 3
REMARK VINA RESULT:      -7.6      2.508      5.164
REMARK  Name = 
REMARK  11 active torsions:
REMARK  status: ('A' for Active; 'I' for Inactive)
REMARK    1  A    between atoms: C_1  and  C_2
REMARK    2  A    between atoms: C_10  and  C_11
REMARK    3  A    between atoms: C_11  and  C_12
REMARK    4  A    between atoms: N_14  and  C_15
REMARK    5  A    between atoms: C_15  and  C_16
REMARK    6  A    between atoms: N_18  and  CA_19
REMARK    7  A    between atoms: CA_19  and  C_20
REMARK    8  A    between atoms: CA_19  and  C_23
REMARK    9  A    between atoms: C_20  and  OXT_22
REMARK   10  A    between atoms: C_29  and  C_30
REMARK   11  A    between atoms: C_34  and  C_35
REMARK                            x       y       z     vdW  Elec       q    Type
REMARK                         _______ _______ _______ _____ _____    ______ ____
ROOT
ATOM      1  C   UNL     1      -1.551  12.167  21.255  0.00  0.00    +0.000 C 
ATOM      2  O   UNL     1      -2.141  11.620  22.188  0.00  0.00    +0.000 OA
ATOM      3  N   UNL     1      -2.232  12.698  20.177  0.00  0.00    +0.000 N 
ATOM      4  H   UNL     1      -1.729  13.070  19.376  0.00  0.00    +0.000 HD
ENDROOT
BRANCH   1   5
ATOM      5  C   UNL     1      -0.023  12.246  21.221  0.00  0.00    +0.000 C 
BRANCH   5  15
ATOM      6  C   UNL     1       2.621   3.226  18.003  0.00  0.00    +0.000 C 
ATOM      7  C   UNL     1       2.415   4.540  18.653  0.00  0.00    +0.000 A 
ATOM      8  O   UNL     1       2.569   5.629  17.857  0.00  0.00    +0.000 OA
ATOM      9  C   UNL     1       2.263   6.720  18.603  0.00  0.00    +0.000 A 
ATOM     10  C   UNL     1       2.258   8.024  18.136  0.00  0.00    +0.000 A 
ATOM     11  C   UNL     1       1.802   8.992  19.037  0.00  0.00    +0.000 A 
ATOM     12  O   UNL     1       1.683  10.285  18.498  0.00  0.00    +0.000 OA
ATOM     13  C   UNL     1       0.917  11.236  19.137  0.00  0.00    +0.000 A 
ATOM     14  O   UNL     1       0.504  12.224  18.537  0.00  0.00    +0.000 OA
ATOM     15  C   UNL     1       0.644  11.037  20.587  0.00  0.00    +0.000 A 
ATOM     16  C   UNL     1       0.888   9.839  21.173  0.00  0.00    +0.000 A 
ATOM     17  C   UNL     1       0.601   9.547  22.624  0.00  0.00    +0.000 C 
ATOM     18  C   UNL     1       1.419   8.718  20.350  0.00  0.00    +0.000 A 
ATOM     19  C   UNL     1       1.518   7.375  20.795  0.00  0.00    +0.000 A 
ATOM     20  C   UNL     1       1.920   6.350  19.899  0.00  0.00    +0.000 A 
ATOM     21  C   UNL     1       2.067   4.921  19.940  0.00  0.00    +0.000 A 
ATOM     22  C   UNL     1       1.858   4.001  21.085  0.00  0.00    +0.000 C 
ENDBRANCH   5  15
ENDBRANCH   1   5
BRANCH   3  23
ATOM     23  C   UNL     1      -3.676  12.517  20.067  0.00  0.00    +0.000 C 
BRANCH  23  24
ATOM     24  C   UNL     1      -4.541  13.465  20.918  0.00  0.00    +0.000 C 
ATOM     25  O   UNL     1      -5.108  14.443  20.446  0.00  0.00    +0.000 OA
ATOM     26  N   UNL     1      -4.748  13.039  22.226  0.00  0.00    +0.000 N 
ATOM     27  H   UNL     1      -4.057  12.411  22.623  0.00  0.00    +0.000 HD
BRANCH  26  28
ATOM     28  CA  UNL     1      -5.570  13.800  23.192  0.00  0.00    +0.000 C 
BRANCH  28  29
ATOM     29  C   UNL     1      -4.771  14.852  23.947  0.00  0.00    +0.000 A 
ATOM     30  C   UNL     1      -3.447  14.555  24.317  0.00  0.00    +0.000 A 
ATOM     31  C   UNL     1      -2.644  15.501  24.954  0.00  0.00    +0.000 A 
ATOM     32  C   UNL     1      -3.153  16.761  25.244  0.00  0.00    +0.000 A 
ATOM     33  C   UNL     1      -4.470  17.070  24.902  0.00  0.00    +0.000 A 
ATOM     34  C   UNL     1      -5.277  16.122  24.268  0.00  0.00    +0.000 A 
ENDBRANCH  28  29
BRANCH  28  35
ATOM     35  C   UNL     1      -6.364  12.820  24.097  0.00  0.00    +0.000 C 
ATOM     36  O   UNL     1      -7.556  12.862  24.348  0.00  0.00    +0.000 OA
BRANCH  35  37
ATOM     37  OXT UNL     1      -5.588  11.784  24.531  0.00  0.00    +0.000 OA
ATOM     38  HXT UNL     1      -4.885  12.106  25.132  0.00  0.00    +0.000 HD
ENDBRANCH  35  37
ENDBRANCH  28  35
ENDBRANCH  26  28
ENDBRANCH  23  24
ENDBRANCH   3  23
TORSDOF 8
ENDMDL
MODEL 4
REMARK VINA RESULT:      -7.6      3.460      9.687
REMARK  Name = 
REMARK  11 active torsions:
REMARK  status: ('A' for Active; 'I' for Inactive)
REMARK    1  A    between atoms: C_1  and  C_2
REMARK    2  A    between atoms: C_10  and  C_11
REMARK    3  A    between atoms: C_11  and  C_12
REMARK    4  A    between atoms: N_14  and  C_15
REMARK    5  A    between atoms: C_15  and  C_16
REMARK    6  A    between atoms: N_18  and  CA_19
REMARK    7  A    between atoms: CA_19  and  C_20
REMARK    8  A    between atoms: CA_19  and  C_23
REMARK    9  A    between atoms: C_20  and  OXT_22
REMARK   10  A    between atoms: C_29  and  C_30
REMARK   11  A    between atoms: C_34  and  C_35
REMARK                            x       y       z     vdW  Elec       q    Type
REMARK                         _______ _______ _______ _____ _____    ______ ____
ROOT
ATOM      1  C   UNL     1       1.902   7.525  20.153  0.00  0.00    +0.000 C 
ATOM      2  O   UNL     1       1.968   7.318  18.941  0.00  0.00    +0.000 OA
ATOM      3  N   UNL     1       1.587   6.517  21.044  0.00  0.00    +0.000 N 
ATOM      4  H   UNL     1       1.452   6.720  22.032  0.00  0.00    +0.000 HD
ENDROOT
BRANCH   1   5
ATOM      5  C   UNL     1       2.121   8.923  20.733  0.00  0.00    +0.000 C 
BRANCH   5  15
ATOM      6  C   UNL     1      -5.126  15.469  22.559  0.00  0.00    +0.000 C 
ATOM      7  C   UNL     1      -4.214  14.319  22.370  0.00  0.00    +0.000 A 
ATOM      8  O   UNL     1      -3.781  14.105  21.101  0.00  0.00    +0.000 OA
ATOM      9  C   UNL     1      -2.902  13.072  21.144  0.00  0.00    +0.000 A 
ATOM     10  C   UNL     1      -2.207  12.577  20.052  0.00  0.00    +0.000 A 
ATOM     11  C   UNL     1      -1.263  11.583  20.332  0.00  0.00    +0.000 A 
ATOM     12  O   UNL     1      -0.481  11.191  19.232  0.00  0.00    +0.000 OA
ATOM     13  C   UNL     1       0.703  10.513  19.428  0.00  0.00    +0.000 A 
ATOM     14  O   UNL     1       1.563  10.477  18.552  0.00  0.00    +0.000 OA
ATOM     15  C   UNL     1       0.879   9.799  20.721  0.00  0.00    +0.000 A 
ATOM     16  C   UNL     1       0.046  10.047  21.761  0.00  0.00    +0.000 A 
ATOM     17  C   UNL     1       0.184   9.396  23.114  0.00  0.00    +0.000 C 
ATOM     18  C   UNL     1      -1.041  11.052  21.603  0.00  0.00    +0.000 A 
ATOM     19  C   UNL     1      -1.836  11.546  22.668  0.00  0.00    +0.000 A 
ATOM     20  C   UNL     1      -2.766  12.595  22.442  0.00  0.00    +0.000 A 
ATOM     21  C   UNL     1      -3.664  13.386  23.237  0.00  0.00    +0.000 A 
ATOM     22  C   UNL     1      -3.945  13.290  24.691  0.00  0.00    +0.000 C 
ENDBRANCH   5  15
ENDBRANCH   1   5
BRANCH   3  23
ATOM     23  C   UNL     1       1.210   5.198  20.548  0.00  0.00    +0.000 C 
BRANCH  23  24
ATOM     24  C   UNL     1       2.364   4.202  20.337  0.00  0.00    +0.000 C 
ATOM     25  O   UNL     1       2.662   3.351  21.167  0.00  0.00    +0.000 OA
ATOM     26  N   UNL     1       2.940   4.247  19.072  0.00  0.00    +0.000 N 
ATOM     27  H   UNL     1       2.855   5.115  18.556  0.00  0.00    +0.000 HD
BRANCH  26  28
ATOM     28  CA  UNL     1       4.048   3.352  18.668  0.00  0.00    +0.000 C 
BRANCH  28  29
ATOM     29  C   UNL     1       5.011   4.009  17.691  0.00  0.00    +0.000 A 
ATOM     30  C   UNL     1       6.237   4.496  18.178  0.00  0.00    +0.000 A 
ATOM     31  C   UNL     1       7.188   5.050  17.322  0.00  0.00    +0.000 A 
ATOM     32  C   UNL     1       6.927   5.139  15.960  0.00  0.00    +0.000 A 
ATOM     33  C   UNL     1       5.709   4.680  15.458  0.00  0.00    +0.000 A 
ATOM     34  C   UNL     1       4.753   4.128  16.316  0.00  0.00    +0.000 A 
ENDBRANCH  28  29
BRANCH  28  35
ATOM     35  C   UNL     1       3.477   1.988  18.193  0.00  0.00    +0.000 C 
ATOM     36  O   UNL     1       2.445   1.806  17.572  0.00  0.00    +0.000 OA
BRANCH  35  37
ATOM     37  OXT UNL     1       4.332   0.958  18.458  0.00  0.00    +0.000 OA
ATOM     38  HXT UNL     1       3.836   0.133  18.639  0.00  0.00    +0.000 HD
ENDBRANCH  35  37
ENDBRANCH  28  35
ENDBRANCH  26  28
ENDBRANCH  23  24
ENDBRANCH   3  23
TORSDOF 8
ENDMDL
MODEL 5
REMARK VINA RESULT:      -7.6      3.266      9.399
REMARK  Name = 
REMARK  11 active torsions:
REMARK  status: ('A' for Active; 'I' for Inactive)
REMARK    1  A    between atoms: C_1  and  C_2
REMARK    2  A    between atoms: C_10  and  C_11
REMARK    3  A    between atoms: C_11  and  C_12
REMARK    4  A    between atoms: N_14  and  C_15
REMARK    5  A    between atoms: C_15  and  C_16
REMARK    6  A    between atoms: N_18  and  CA_19
REMARK    7  A    between atoms: CA_19  and  C_20
REMARK    8  A    between atoms: CA_19  and  C_23
REMARK    9  A    between atoms: C_20  and  OXT_22
REMARK   10  A    between atoms: C_29  and  C_30
REMARK   11  A    between atoms: C_34  and  C_35
REMARK                            x       y       z     vdW  Elec       q    Type
REMARK                         _______ _______ _______ _____ _____    ______ ____
ROOT
ATOM      1  C   UNL     1       1.005  10.003  18.489  0.00  0.00    +0.000 C 
ATOM      2  O   UNL     1      -0.043   9.772  17.885  0.00  0.00    +0.000 OA
ATOM      3  N   UNL     1       2.012   9.061  18.581  0.00  0.00    +0.000 N 
ATOM      4  H   UNL     1       2.834   9.233  19.154  0.00  0.00    +0.000 HD
ENDROOT
BRANCH   1   5
ATOM      5  C   UNL     1       1.229  11.333  19.211  0.00  0.00    +0.000 C 
BRANCH   5  15
ATOM      6  C   UNL     1      -7.312  12.870  24.047  0.00  0.00    +0.000 C 
ATOM      7  C   UNL     1      -6.046  12.893  23.282  0.00  0.00    +0.000 A 
ATOM      8  O   UNL     1      -4.939  12.479  23.951  0.00  0.00    +0.000 OA
ATOM      9  C   UNL     1      -3.907  12.494  23.070  0.00  0.00    +0.000 A 
ATOM     10  C   UNL     1      -2.612  12.096  23.360  0.00  0.00    +0.000 A 
ATOM     11  C   UNL     1      -1.724  12.080  22.279  0.00  0.00    +0.000 A 
ATOM     12  O   UNL     1      -0.455  11.550  22.570  0.00  0.00    +0.000 OA
ATOM     13  C   UNL     1       0.376  11.136  21.551  0.00  0.00    +0.000 A 
ATOM     14  O   UNL     1       1.303  10.361  21.767  0.00  0.00    +0.000 OA
ATOM     15  C   UNL     1       0.128  11.696  20.194  0.00  0.00    +0.000 A 
ATOM     16  C   UNL     1      -1.029  12.345  19.920  0.00  0.00    +0.000 A 
ATOM     17  C   UNL     1      -1.371  12.903  18.562  0.00  0.00    +0.000 C 
ATOM     18  C   UNL     1      -2.060  12.483  20.986  0.00  0.00    +0.000 A 
ATOM     19  C   UNL     1      -3.380  12.952  20.767  0.00  0.00    +0.000 A 
ATOM     20  C   UNL     1      -4.331  12.932  21.821  0.00  0.00    +0.000 A 
ATOM     21  C   UNL     1      -5.727  13.238  21.977  0.00  0.00    +0.000 A 
ATOM     22  C   UNL     1      -6.677  13.770  20.969  0.00  0.00    +0.000 C 
ENDBRANCH   5  15
ENDBRANCH   1   5
BRANCH   3  23
ATOM     23  C   UNL     1       1.801   7.717  18.054  0.00  0.00    +0.000 C 
BRANCH  23  24
ATOM     24  C   UNL     1       2.818   6.651  18.501  0.00  0.00    +0.000 C 
ATOM     25  O   UNL     1       3.569   6.814  19.455  0.00  0.00    +0.000 OA
ATOM     26  N   UNL     1       2.710   5.436  17.833  0.00  0.00    +0.000 N 
ATOM     27  H   UNL     1       2.292   5.451  16.909  0.00  0.00    +0.000 HD
BRANCH  26  28
ATOM     28  CA  UNL     1       3.582   4.279  18.136  0.00  0.00    +0.000 C 
BRANCH  28  29
ATOM     29  C   UNL     1       4.933   4.360  17.443  0.00  0.00    +0.000 A 
ATOM     30  C   UNL     1       6.071   4.655  18.215  0.00  0.00    +0.000 A 
ATOM     31  C   UNL     1       7.344   4.680  17.648  0.00  0.00    +0.000 A 
ATOM     32  C   UNL     1       7.506   4.421  16.292  0.00  0.00    +0.000 A 
ATOM     33  C   UNL     1       6.389   4.145  15.504  0.00  0.00    +0.000 A 
ATOM     34  C   UNL     1       5.111   4.123  16.070  0.00  0.00    +0.000 A 
ENDBRANCH  28  29
BRANCH  28  35
ATOM     35  C   UNL     1       2.808   2.956  17.889  0.00  0.00    +0.000 C 
ATOM     36  O   UNL     1       3.017   1.878  18.419  0.00  0.00    +0.000 OA
BRANCH  35  37
ATOM     37  OXT UNL     1       1.743   3.136  17.054  0.00  0.00    +0.000 OA
ATOM     38  HXT UNL     1       1.995   3.687  16.285  0.00  0.00    +0.000 HD
ENDBRANCH  35  37
ENDBRANCH  28  35
ENDBRANCH  26  28
ENDBRANCH  23  24
ENDBRANCH   3  23
TORSDOF 8
ENDMDL
MODEL 6
REMARK VINA RESULT:      -7.5      4.892      7.985
REMARK  Name = 
REMARK  11 active torsions:
REMARK  status: ('A' for Active; 'I' for Inactive)
REMARK    1  A    between atoms: C_1  and  C_2
REMARK    2  A    between atoms: C_10  and  C_11
REMARK    3  A    between atoms: C_11  and  C_12
REMARK    4  A    between atoms: N_14  and  C_15
REMARK    5  A    between atoms: C_15  and  C_16
REMARK    6  A    between atoms: N_18  and  CA_19
REMARK    7  A    between atoms: CA_19  and  C_20
REMARK    8  A    between atoms: CA_19  and  C_23
REMARK    9  A    between atoms: C_20  and  OXT_22
REMARK   10  A    between atoms: C_29  and  C_30
REMARK   11  A    between atoms: C_34  and  C_35
REMARK                            x       y       z     vdW  Elec       q    Type
REMARK                         _______ _______ _______ _____ _____    ______ ____
ROOT
ATOM      1  C   UNL     1       1.099  11.955  20.386  0.00  0.00    +0.000 C 
ATOM      2  O   UNL     1       1.118  12.116  21.607  0.00  0.00    +0.000 OA
ATOM      3  N   UNL     1       1.752  12.821  19.530  0.00  0.00    +0.000 N 
ATOM      4  H   UNL     1       1.659  12.726  18.522  0.00  0.00    +0.000 HD
ENDROOT
BRANCH   1   5
ATOM      5  C   UNL     1       0.312  10.809  19.748  0.00  0.00    +0.000 C 
BRANCH   5  15
ATOM      6  C   UNL     1       3.671   1.494  18.948  0.00  0.00    +0.000 C 
ATOM      7  C   UNL     1       3.296   2.884  19.290  0.00  0.00    +0.000 A 
ATOM      8  O   UNL     1       3.705   3.842  18.418  0.00  0.00    +0.000 OA
ATOM      9  C   UNL     1       3.202   5.024  18.855  0.00  0.00    +0.000 A 
ATOM     10  C   UNL     1       3.363   6.240  18.210  0.00  0.00    +0.000 A 
ATOM     11  C   UNL     1       2.667   7.320  18.765  0.00  0.00    +0.000 A 
ATOM     12  O   UNL     1       2.740   8.510  18.021  0.00  0.00    +0.000 OA
ATOM     13  C   UNL     1       1.830   9.522  18.238  0.00  0.00    +0.000 A 
ATOM     14  O   UNL     1       1.639  10.391  17.393  0.00  0.00    +0.000 OA
ATOM     15  C   UNL     1       1.122   9.539  19.547  0.00  0.00    +0.000 A 
ATOM     16  C   UNL     1       1.155   8.455  20.359  0.00  0.00    +0.000 A 
ATOM     17  C   UNL     1       0.430   8.380  21.679  0.00  0.00    +0.000 C 
ATOM     18  C   UNL     1       1.895   7.238  19.924  0.00  0.00    +0.000 A 
ATOM     19  C   UNL     1       1.830   5.984  20.583  0.00  0.00    +0.000 A 
ATOM     20  C   UNL     1       2.471   4.848  20.024  0.00  0.00    +0.000 A 
ATOM     21  C   UNL     1       2.575   3.448  20.332  0.00  0.00    +0.000 A 
ATOM     22  C   UNL     1       2.009   2.708  21.488  0.00  0.00    +0.000 C 
ENDBRANCH   5  15
ENDBRANCH   1   5
BRANCH   3  23
ATOM     23  C   UNL     1       2.388  14.024  20.058  0.00  0.00    +0.000 C 
BRANCH  23  24
ATOM     24  C   UNL     1       3.390  14.723  19.121  0.00  0.00    +0.000 C 
ATOM     25  O   UNL     1       3.061  15.209  18.046  0.00  0.00    +0.000 OA
ATOM     26  N   UNL     1       4.662  14.889  19.659  0.00  0.00    +0.000 N 
ATOM     27  H   UNL     1       4.942  14.247  20.392  0.00  0.00    +0.000 HD
BRANCH  26  28
ATOM     28  CA  UNL     1       5.758  15.558  18.924  0.00  0.00    +0.000 C 
BRANCH  28  29
ATOM     29  C   UNL     1       6.968  14.659  18.720  0.00  0.00    +0.000 A 
ATOM     30  C   UNL     1       6.998  13.813  17.597  0.00  0.00    +0.000 A 
ATOM     31  C   UNL     1       8.106  13.014  17.321  0.00  0.00    +0.000 A 
ATOM     32  C   UNL     1       9.206  13.035  18.172  0.00  0.00    +0.000 A 
ATOM     33  C   UNL     1       9.189  13.852  19.301  0.00  0.00    +0.000 A 
ATOM     34  C   UNL     1       8.077  14.652  19.581  0.00  0.00    +0.000 A 
ENDBRANCH  28  29
BRANCH  28  35
ATOM     35  C   UNL     1       6.076  16.928  19.582  0.00  0.00    +0.000 C 
ATOM     36  O   UNL     1       6.020  17.197  20.769  0.00  0.00    +0.000 OA
BRANCH  35  37
ATOM     37  OXT UNL     1       6.548  17.832  18.675  0.00  0.00    +0.000 OA
ATOM     38  HXT UNL     1       6.146  18.713  18.822  0.00  0.00    +0.000 HD
ENDBRANCH  35  37
ENDBRANCH  28  35
ENDBRANCH  26  28
ENDBRANCH  23  24
ENDBRANCH   3  23
TORSDOF 8
ENDMDL
MODEL 7
REMARK VINA RESULT:      -7.5      3.375      9.174
REMARK  Name = 
REMARK  11 active torsions:
REMARK  status: ('A' for Active; 'I' for Inactive)
REMARK    1  A    between atoms: C_1  and  C_2
REMARK    2  A    between atoms: C_10  and  C_11
REMARK    3  A    between atoms: C_11  and  C_12
REMARK    4  A    between atoms: N_14  and  C_15
REMARK    5  A    between atoms: C_15  and  C_16
REMARK    6  A    between atoms: N_18  and  CA_19
REMARK    7  A    between atoms: CA_19  and  C_20
REMARK    8  A    between atoms: CA_19  and  C_23
REMARK    9  A    between atoms: C_20  and  OXT_22
REMARK   10  A    between atoms: C_29  and  C_30
REMARK   11  A    between atoms: C_34  and  C_35
REMARK                            x       y       z     vdW  Elec       q    Type
REMARK                         _______ _______ _______ _____ _____    ______ ____
ROOT
ATOM      1  C   UNL     1       1.276  10.270  18.561  0.00  0.00    +0.000 C 
ATOM      2  O   UNL     1       0.155   9.939  18.172  0.00  0.00    +0.000 OA
ATOM      3  N   UNL     1       2.394   9.507  18.286  0.00  0.00    +0.000 N 
ATOM      4  H   UNL     1       3.298   9.747  18.685  0.00  0.00    +0.000 HD
ENDROOT
BRANCH   1   5
ATOM      5  C   UNL     1       1.482  11.525  19.411  0.00  0.00    +0.000 C 
BRANCH   5  15
ATOM      6  C   UNL     1      -7.299  12.826  23.872  0.00  0.00    +0.000 C 
ATOM      7  C   UNL     1      -5.990  12.887  23.184  0.00  0.00    +0.000 A 
ATOM      8  O   UNL     1      -4.931  12.395  23.877  0.00  0.00    +0.000 OA
ATOM      9  C   UNL     1      -3.849  12.463  23.060  0.00  0.00    +0.000 A 
ATOM     10  C   UNL     1      -2.580  12.016  23.388  0.00  0.00    +0.000 A 
ATOM     11  C   UNL     1      -1.631  12.072  22.361  0.00  0.00    +0.000 A 
ATOM     12  O   UNL     1      -0.390  11.493  22.677  0.00  0.00    +0.000 OA
ATOM     13  C   UNL     1       0.492  11.150  21.675  0.00  0.00    +0.000 A 
ATOM     14  O   UNL     1       1.393  10.340  21.875  0.00  0.00    +0.000 OA
ATOM     15  C   UNL     1       0.333  11.826  20.358  0.00  0.00    +0.000 A 
ATOM     16  C   UNL     1      -0.797  12.520  20.076  0.00  0.00    +0.000 A 
ATOM     17  C   UNL     1      -1.051  13.197  18.753  0.00  0.00    +0.000 C 
ATOM     18  C   UNL     1      -1.885  12.589  21.090  0.00  0.00    +0.000 A 
ATOM     19  C   UNL     1      -3.183  13.102  20.838  0.00  0.00    +0.000 A 
ATOM     20  C   UNL     1      -4.194  13.013  21.831  0.00  0.00    +0.000 A 
ATOM     21  C   UNL     1      -5.591  13.333  21.933  0.00  0.00    +0.000 A 
ATOM     22  C   UNL     1      -6.473  13.968  20.923  0.00  0.00    +0.000 C 
ENDBRANCH   5  15
ENDBRANCH   1   5
BRANCH   3  23
ATOM     23  C   UNL     1       2.249   8.217  17.619  0.00  0.00    +0.000 C 
BRANCH  23  24
ATOM     24  C   UNL     1       2.767   6.994  18.397  0.00  0.00    +0.000 C 
ATOM     25  O   UNL     1       2.672   6.897  19.613  0.00  0.00    +0.000 OA
ATOM     26  N   UNL     1       3.213   5.948  17.595  0.00  0.00    +0.000 N 
ATOM     27  H   UNL     1       3.523   6.183  16.658  0.00  0.00    +0.000 HD
BRANCH  26  28
ATOM     28  CA  UNL     1       3.728   4.679  18.154  0.00  0.00    +0.000 C 
BRANCH  28  29
ATOM     29  C   UNL     1       2.803   4.077  19.201  0.00  0.00    +0.000 A 
ATOM     30  C   UNL     1       1.543   3.602  18.795  0.00  0.00    +0.000 A 
ATOM     31  C   UNL     1       0.678   2.982  19.696  0.00  0.00    +0.000 A 
ATOM     32  C   UNL     1       1.051   2.834  21.026  0.00  0.00    +0.000 A 
ATOM     33  C   UNL     1       2.288   3.315  21.455  0.00  0.00    +0.000 A 
ATOM     34  C   UNL     1       3.155   3.940  20.554  0.00  0.00    +0.000 A 
ENDBRANCH  28  29
BRANCH  28  35
ATOM     35  C   UNL     1       5.197   4.865  18.620  0.00  0.00    +0.000 C 
ATOM     36  O   UNL     1       5.741   5.915  18.916  0.00  0.00    +0.000 OA
BRANCH  35  37
ATOM     37  OXT UNL     1       5.837   3.670  18.779  0.00  0.00    +0.000 OA
ATOM     38  HXT UNL     1       5.591   3.047  18.064  0.00  0.00    +0.000 HD
ENDBRANCH  35  37
ENDBRANCH  28  35
ENDBRANCH  26  28
ENDBRANCH  23  24
ENDBRANCH   3  23
TORSDOF 8
ENDMDL
MODEL 8
REMARK VINA RESULT:      -7.4      3.490      9.600
REMARK  Name = 
REMARK  11 active torsions:
REMARK  status: ('A' for Active; 'I' for Inactive)
REMARK    1  A    between atoms: C_1  and  C_2
REMARK    2  A    between atoms: C_10  and  C_11
REMARK    3  A    between atoms: C_11  and  C_12
REMARK    4  A    between atoms: N_14  and  C_15
REMARK    5  A    between atoms: C_15  and  C_16
REMARK    6  A    between atoms: N_18  and  CA_19
REMARK    7  A    between atoms: CA_19  and  C_20
REMARK    8  A    between atoms: CA_19  and  C_23
REMARK    9  A    between atoms: C_20  and  OXT_22
REMARK   10  A    between atoms: C_29  and  C_30
REMARK   11  A    between atoms: C_34  and  C_35
REMARK                            x       y       z     vdW  Elec       q    Type
REMARK                         _______ _______ _______ _____ _____    ______ ____
ROOT
ATOM      1  C   UNL     1       1.816   7.988  20.285  0.00  0.00    +0.000 C 
ATOM      2  O   UNL     1       1.795   7.837  19.063  0.00  0.00    +0.000 OA
ATOM      3  N   UNL     1       1.653   6.923  21.150  0.00  0.00    +0.000 N 
ATOM      4  H   UNL     1       1.588   7.074  22.154  0.00  0.00    +0.000 HD
ENDROOT
BRANCH   1   5
ATOM      5  C   UNL     1       1.981   9.374  20.911  0.00  0.00    +0.000 C 
BRANCH   5  15
ATOM      6  C   UNL     1      -5.658  15.203  23.436  0.00  0.00    +0.000 C 
ATOM      7  C   UNL     1      -4.678  14.141  23.113  0.00  0.00    +0.000 A 
ATOM      8  O   UNL     1      -4.212  14.129  21.838  0.00  0.00    +0.000 OA
ATOM      9  C   UNL     1      -3.276  13.149  21.761  0.00  0.00    +0.000 A 
ATOM     10  C   UNL     1      -2.535  12.849  20.630  0.00  0.00    +0.000 A 
ATOM     11  C   UNL     1      -1.541  11.878  20.793  0.00  0.00    +0.000 A 
ATOM     12  O   UNL     1      -0.718  11.685  19.671  0.00  0.00    +0.000 OA
ATOM     13  C   UNL     1       0.499  11.052  19.801  0.00  0.00    +0.000 A 
ATOM     14  O   UNL     1       1.375  11.183  18.951  0.00  0.00    +0.000 OA
ATOM     15  C   UNL     1       0.692  10.175  20.988  0.00  0.00    +0.000 A 
ATOM     16  C   UNL     1      -0.172  10.231  22.031  0.00  0.00    +0.000 A 
ATOM     17  C   UNL     1      -0.022   9.407  23.284  0.00  0.00    +0.000 C 
ATOM     18  C   UNL     1      -1.312  11.188  21.985  0.00  0.00    +0.000 A 
ATOM     19  C   UNL     1      -2.153  11.485  23.087  0.00  0.00    +0.000 A 
ATOM     20  C   UNL     1      -3.136  12.504  22.984  0.00  0.00    +0.000 A 
ATOM     21  C   UNL     1      -4.092  13.127  23.857  0.00  0.00    +0.000 A 
ATOM     22  C   UNL     1      -4.393  12.815  25.276  0.00  0.00    +0.000 C 
ENDBRANCH   5  15
ENDBRANCH   1   5
BRANCH   3  23
ATOM     23  C   UNL     1       1.332   5.601  20.624  0.00  0.00    +0.000 C 
BRANCH  23  24
ATOM     24  C   UNL     1       2.532   4.677  20.346  0.00  0.00    +0.000 C 
ATOM     25  O   UNL     1       2.831   3.743  21.079  0.00  0.00    +0.000 OA
ATOM     26  N   UNL     1       3.154   4.895  19.120  0.00  0.00    +0.000 N 
ATOM     27  H   UNL     1       3.055   5.816  18.708  0.00  0.00    +0.000 HD
BRANCH  26  28
ATOM     28  CA  UNL     1       4.310   4.094  18.660  0.00  0.00    +0.000 C 
BRANCH  28  29
ATOM     29  C   UNL     1       4.863   4.569  17.326  0.00  0.00    +0.000 A 
ATOM     30  C   UNL     1       5.487   3.632  16.483  0.00  0.00    +0.000 A 
ATOM     31  C   UNL     1       5.956   3.993  15.220  0.00  0.00    +0.000 A 
ATOM     32  C   UNL     1       5.821   5.304  14.779  0.00  0.00    +0.000 A 
ATOM     33  C   UNL     1       5.223   6.254  15.606  0.00  0.00    +0.000 A 
ATOM     34  C   UNL     1       4.755   5.894  16.873  0.00  0.00    +0.000 A 
ENDBRANCH  28  29
BRANCH  28  35
ATOM     35  C   UNL     1       3.959   2.582  18.713  0.00  0.00    +0.000 C 
ATOM     36  O   UNL     1       3.101   2.010  18.064  0.00  0.00    +0.000 OA
BRANCH  35  37
ATOM     37  OXT UNL     1       4.813   1.888  19.520  0.00  0.00    +0.000 OA
ATOM     38  HXT UNL     1       4.384   1.077  19.862  0.00  0.00    +0.000 HD
ENDBRANCH  35  37
ENDBRANCH  28  35
ENDBRANCH  26  28
ENDBRANCH  23  24
ENDBRANCH   3  23
TORSDOF 8
ENDMDL
MODEL 9
REMARK VINA RESULT:      -7.4      3.097      9.504
REMARK  Name = 
REMARK  11 active torsions:
REMARK  status: ('A' for Active; 'I' for Inactive)
REMARK    1  A    between atoms: C_1  and  C_2
REMARK    2  A    between atoms: C_10  and  C_11
REMARK    3  A    between atoms: C_11  and  C_12
REMARK    4  A    between atoms: N_14  and  C_15
REMARK    5  A    between atoms: C_15  and  C_16
REMARK    6  A    between atoms: N_18  and  CA_19
REMARK    7  A    between atoms: CA_19  and  C_20
REMARK    8  A    between atoms: CA_19  and  C_23
REMARK    9  A    between atoms: C_20  and  OXT_22
REMARK   10  A    between atoms: C_29  and  C_30
REMARK   11  A    between atoms: C_34  and  C_35
REMARK                            x       y       z     vdW  Elec       q    Type
REMARK                         _______ _______ _______ _____ _____    ______ ____
ROOT
ATOM      1  C   UNL     1       1.130   7.728  20.564  0.00  0.00    +0.000 C 
ATOM      2  O   UNL     1       0.098   7.543  21.211  0.00  0.00    +0.000 OA
ATOM      3  N   UNL     1       2.038   6.711  20.342  0.00  0.00    +0.000 N 
ATOM      4  H   UNL     1       2.925   6.898  19.880  0.00  0.00    +0.000 HD
ENDROOT
BRANCH   1   5
ATOM      5  C   UNL     1       1.482   9.109  20.008  0.00  0.00    +0.000 C 
BRANCH   5  15
ATOM      6  C   UNL     1      -7.189  13.953  19.779  0.00  0.00    +0.000 C 
ATOM      7  C   UNL     1      -5.845  13.360  19.598  0.00  0.00    +0.000 A 
ATOM      8  O   UNL     1      -4.957  13.583  20.602  0.00  0.00    +0.000 OA
ATOM      9  C   UNL     1      -3.825  12.900  20.295  0.00  0.00    +0.000 A 
ATOM     10  C   UNL     1      -2.695  12.841  21.095  0.00  0.00    +0.000 A 
ATOM     11  C   UNL     1      -1.678  11.989  20.649  0.00  0.00    +0.000 A 
ATOM     12  O   UNL     1      -0.601  11.844  21.540  0.00  0.00    +0.000 OA
ATOM     13  C   UNL     1       0.270  10.784  21.411  0.00  0.00    +0.000 A 
ATOM     14  O   UNL     1       0.978  10.430  22.350  0.00  0.00    +0.000 OA
ATOM     15  C   UNL     1       0.345  10.114  20.084  0.00  0.00    +0.000 A 
ATOM     16  C   UNL     1      -0.603  10.347  19.144  0.00  0.00    +0.000 A 
ATOM     17  C   UNL     1      -0.620   9.677  17.793  0.00  0.00    +0.000 C 
ATOM     18  C   UNL     1      -1.730  11.269  19.455  0.00  0.00    +0.000 A 
ATOM     19  C   UNL     1      -2.881  11.430  18.641  0.00  0.00    +0.000 A 
ATOM     20  C   UNL     1      -3.962  12.238  19.081  0.00  0.00    +0.000 A 
ATOM     21  C   UNL     1      -5.273  12.581  18.604  0.00  0.00    +0.000 A 
ATOM     22  C   UNL     1      -5.936  12.174  17.340  0.00  0.00    +0.000 C 
ENDBRANCH   5  15
ENDBRANCH   1   5
BRANCH   3  23
ATOM     23  C   UNL     1       1.846   5.412  20.976  0.00  0.00    +0.000 C 
BRANCH  23  24
ATOM     24  C   UNL     1       2.761   4.278  20.481  0.00  0.00    +0.000 C 
ATOM     25  O   UNL     1       2.906   3.229  21.097  0.00  0.00    +0.000 OA
ATOM     26  N   UNL     1       3.290   4.477  19.210  0.00  0.00    +0.000 N 
ATOM     27  H   UNL     1       3.368   5.435  18.887  0.00  0.00    +0.000 HD
BRANCH  26  28
ATOM     28  CA  UNL     1       4.174   3.491  18.550  0.00  0.00    +0.000 C 
BRANCH  28  29
ATOM     29  C   UNL     1       5.148   4.132  17.574  0.00  0.00    +0.000 A 
ATOM     30  C   UNL     1       4.774   4.242  16.223  0.00  0.00    +0.000 A 
ATOM     31  C   UNL     1       5.596   4.877  15.293  0.00  0.00    +0.000 A 
ATOM     32  C   UNL     1       6.817   5.406  15.694  0.00  0.00    +0.000 A 
ATOM     33  C   UNL     1       7.216   5.292  17.025  0.00  0.00    +0.000 A 
ATOM     34  C   UNL     1       6.395   4.652  17.958  0.00  0.00    +0.000 A 
ENDBRANCH  28  29
BRANCH  28  35
ATOM     35  C   UNL     1       3.323   2.338  17.951  0.00  0.00    +0.000 C 
ATOM     36  O   UNL     1       2.269   2.447  17.349  0.00  0.00    +0.000 OA
BRANCH  35  37
ATOM     37  OXT UNL     1       3.945   1.130  18.073  0.00  0.00    +0.000 OA
ATOM     38  HXT UNL     1       4.507   1.108  18.874  0.00  0.00    +0.000 HD
ENDBRANCH  35  37
ENDBRANCH  28  35
ENDBRANCH  26  28
ENDBRANCH  23  24
ENDBRANCH   3  23
TORSDOF 8
ENDMDL
