MODEL 1
REMARK VINA RESULT:      -7.0      0.000      0.000
REMARK  Name = 
REMARK  9 active torsions:
REMARK  status: ('A' for Active; 'I' for Inactive)
REMARK    1  A    between atoms: C_1  and  C_2
REMARK    2  A    between atoms: N_4  and  C_5
REMARK    3  A    between atoms: C_8  and  C_9
REMARK    4  A    between atoms: C_9  and  N_10
REMARK    5  A    between atoms: N_10  and  C_11
REMARK    6  A    between atoms: C_11  and  C_12
REMARK    7  A    between atoms: C_12  and  O_13
REMARK    8  A    between atoms: C_12  and  C_14
REMARK    9  A    between atoms: C_17  and  C_18
REMARK                            x       y       z     vdW  Elec       q    Type
REMARK                         _______ _______ _______ _____ _____    ______ ____
ROOT
ATOM      1  N   UNL     1       3.068   1.836  19.852  0.00  0.00    +0.000 NA
ATOM      2  H   UNL     1       3.498   2.552  20.442  0.00  0.00    +0.000 HD
ENDROOT
BRANCH   1   3
ATOM      3  C   UNL     1       3.706   1.807  18.540  0.00  0.00    +0.000 C 
BRANCH   3   7
ATOM      4  C   UNL     1       5.673   5.562  17.686  0.00  0.00    +0.000 A 
ATOM      5  C   UNL     1       5.133   4.787  16.661  0.00  0.00    +0.000 A 
ATOM      6  C   UNL     1       4.492   3.584  16.950  0.00  0.00    +0.000 A 
ATOM      7  C   UNL     1       4.383   3.121  18.267  0.00  0.00    +0.000 A 
ATOM      8  C   UNL     1       4.924   3.902  19.298  0.00  0.00    +0.000 A 
ATOM      9  C   UNL     1       5.574   5.107  19.006  0.00  0.00    +0.000 A 
BRANCH   4  13
ATOM     10  C   UNL     1       7.918   8.588  17.661  0.00  0.00    +0.000 C 
ATOM     11  C   UNL     1       7.542   7.177  18.025  0.00  0.00    +0.000 C 
ATOM     12  O   UNL     1       8.262   6.513  18.760  0.00  0.00    +0.000 OA
ATOM     13  N   UNL     1       6.344   6.780  17.450  0.00  0.00    +0.000 N 
ATOM     14  H   UNL     1       5.945   7.386  16.747  0.00  0.00    +0.000 HD
ENDBRANCH   4  13
ENDBRANCH   3   7
ENDBRANCH   1   3
BRANCH   1  15
ATOM     15  C   UNL     1       1.634   2.117  19.741  0.00  0.00    +0.000 C 
BRANCH  15  16
ATOM     16  C   UNL     1       1.231   3.375  20.546  0.00  0.00    +0.000 C 
BRANCH  16  17
ATOM     17  C   UNL     1       1.583   4.699  19.882  0.00  0.00    +0.000 A 
ATOM     18  C   UNL     1       1.966   5.835  20.607  0.00  0.00    +0.000 A 
ATOM     19  C   UNL     1       2.288   7.028  19.955  0.00  0.00    +0.000 A 
ATOM     20  C   UNL     1       2.230   7.113  18.562  0.00  0.00    +0.000 A 
ATOM     21  C   UNL     1       2.585   8.390  17.860  0.00  0.00    +0.000 C 
ATOM     22  C   UNL     1       1.851   5.985  17.829  0.00  0.00    +0.000 A 
ATOM     23  C   UNL     1       1.533   4.790  18.482  0.00  0.00    +0.000 A 
ENDBRANCH  16  17
BRANCH  16  24
ATOM     24  O   UNL     1       1.879   3.308  21.829  0.00  0.00    +0.000 OA
ATOM     25  H   UNL     1       2.834   3.391  21.669  0.00  0.00    +0.000 HD
ENDBRANCH  16  24
ENDBRANCH  15  16
ENDBRANCH   1  15
TORSDOF 7
ENDMDL
MODEL 2
REMARK VINA RESULT:      -6.9      2.753      5.850
REMARK  Name = 
REMARK  9 active torsions:
REMARK  status: ('A' for Active; 'I' for Inactive)
REMARK    1  A    between atoms: C_1  and  C_2
REMARK    2  A    between atoms: N_4  and  C_5
REMARK    3  A    between atoms: C_8  and  C_9
REMARK    4  A    between atoms: C_9  and  N_10
REMARK    5  A    between atoms: N_10  and  C_11
REMARK    6  A    between atoms: C_11  and  C_12
REMARK    7  A    between atoms: C_12  and  O_13
REMARK    8  A    between atoms: C_12  and  C_14
REMARK    9  A    between atoms: C_17  and  C_18
REMARK                            x       y       z     vdW  Elec       q    Type
REMARK                         _______ _______ _______ _____ _____    ______ ____
ROOT
ATOM      1  N   UNL     1       5.152   6.595  17.536  0.00  0.00    +0.000 NA
ATOM      2  H   UNL     1       4.903   6.108  18.400  0.00  0.00    +0.000 HD
ENDROOT
BRANCH   1   3
ATOM      3  C   UNL     1       3.968   7.198  16.933  0.00  0.00    +0.000 C 
BRANCH   3   7
ATOM      4  C   UNL     1       1.236   8.555  19.998  0.00  0.00    +0.000 A 
ATOM      5  C   UNL     1       1.442   9.302  18.840  0.00  0.00    +0.000 A 
ATOM      6  C   UNL     1       2.316   8.849  17.855  0.00  0.00    +0.000 A 
ATOM      7  C   UNL     1       3.014   7.645  18.005  0.00  0.00    +0.000 A 
ATOM      8  C   UNL     1       2.806   6.892  19.169  0.00  0.00    +0.000 A 
ATOM      9  C   UNL     1       1.932   7.351  20.162  0.00  0.00    +0.000 A 
BRANCH   4  13
ATOM     10  C   UNL     1      -0.417   9.630  23.208  0.00  0.00    +0.000 C 
ATOM     11  C   UNL     1       0.757   9.376  22.303  0.00  0.00    +0.000 C 
ATOM     12  O   UNL     1       1.901   9.526  22.714  0.00  0.00    +0.000 OA
ATOM     13  N   UNL     1       0.374   8.971  21.034  0.00  0.00    +0.000 N 
ATOM     14  H   UNL     1      -0.608   9.042  20.802  0.00  0.00    +0.000 HD
ENDBRANCH   4  13
ENDBRANCH   3   7
ENDBRANCH   1   3
BRANCH   1  15
ATOM     15  C   UNL     1       5.785   5.639  16.624  0.00  0.00    +0.000 C 
BRANCH  15  16
ATOM     16  C   UNL     1       5.723   4.193  17.171  0.00  0.00    +0.000 C 
BRANCH  16  17
ATOM     17  C   UNL     1       4.431   3.840  17.897  0.00  0.00    +0.000 A 
ATOM     18  C   UNL     1       3.199   3.721  17.242  0.00  0.00    +0.000 A 
ATOM     19  C   UNL     1       2.040   3.387  17.947  0.00  0.00    +0.000 A 
ATOM     20  C   UNL     1       2.087   3.167  19.325  0.00  0.00    +0.000 A 
ATOM     21  C   UNL     1       0.846   2.798  20.082  0.00  0.00    +0.000 C 
ATOM     22  C   UNL     1       3.312   3.281  19.989  0.00  0.00    +0.000 A 
ATOM     23  C   UNL     1       4.473   3.611  19.282  0.00  0.00    +0.000 A 
ENDBRANCH  16  17
BRANCH  16  24
ATOM     24  O   UNL     1       6.830   4.011  18.071  0.00  0.00    +0.000 OA
ATOM     25  H   UNL     1       6.646   3.210  18.590  0.00  0.00    +0.000 HD
ENDBRANCH  16  24
ENDBRANCH  15  16
ENDBRANCH   1  15
TORSDOF 7
ENDMDL
MODEL 3
REMARK VINA RESULT:      -6.8      2.871      5.901
REMARK  Name = 
REMARK  9 active torsions:
REMARK  status: ('A' for Active; 'I' for Inactive)
REMARK    1  A    between atoms: C_1  and  C_2
REMARK    2  A    between atoms: N_4  and  C_5
REMARK    3  A    between atoms: C_8  and  C_9
REMARK    4  A    between atoms: C_9  and  N_10
REMARK    5  A    between atoms: N_10  and  C_11
REMARK    6  A    between atoms: C_11  and  C_12
REMARK    7  A    between atoms: C_12  and  O_13
REMARK    8  A    between atoms: C_12  and  C_14
REMARK    9  A    between atoms: C_17  and  C_18
REMARK                            x       y       z     vdW  Elec       q    Type
REMARK                         _______ _______ _______ _____ _____    ______ ____
ROOT
ATOM      1  N   UNL     1       4.749   6.326  17.232  0.00  0.00    +0.000 NA
ATOM      2  H   UNL     1       4.275   5.729  17.914  0.00  0.00    +0.000 HD
ENDROOT
BRANCH   1   3
ATOM      3  C   UNL     1       3.866   7.404  16.801  0.00  0.00    +0.000 C 
BRANCH   3   7
ATOM      4  C   UNL     1       1.270   8.527  20.072  0.00  0.00    +0.000 A 
ATOM      5  C   UNL     1       2.007   7.346  20.115  0.00  0.00    +0.000 A 
ATOM      6  C   UNL     1       2.848   7.000  19.060  0.00  0.00    +0.000 A 
ATOM      7  C   UNL     1       2.967   7.819  17.932  0.00  0.00    +0.000 A 
ATOM      8  C   UNL     1       2.227   9.009  17.888  0.00  0.00    +0.000 A 
ATOM      9  C   UNL     1       1.377   9.353  18.946  0.00  0.00    +0.000 A 
BRANCH   4  13
ATOM     10  C   UNL     1      -0.422   9.576  23.271  0.00  0.00    +0.000 C 
ATOM     11  C   UNL     1       0.761   9.361  22.366  0.00  0.00    +0.000 C 
ATOM     12  O   UNL     1       1.897   9.568  22.771  0.00  0.00    +0.000 OA
ATOM     13  N   UNL     1       0.393   8.920  21.104  0.00  0.00    +0.000 N 
ATOM     14  H   UNL     1      -0.591   8.944  20.874  0.00  0.00    +0.000 HD
ENDBRANCH   4  13
ENDBRANCH   3   7
ENDBRANCH   1   3
BRANCH   1  15
ATOM     15  C   UNL     1       5.174   5.500  16.099  0.00  0.00    +0.000 C 
BRANCH  15  16
ATOM     16  C   UNL     1       4.686   4.038  16.238  0.00  0.00    +0.000 C 
BRANCH  16  17
ATOM     17  C   UNL     1       3.762   3.782  17.421  0.00  0.00    +0.000 A 
ATOM     18  C   UNL     1       2.366   3.828  17.320  0.00  0.00    +0.000 A 
ATOM     19  C   UNL     1       1.557   3.579  18.431  0.00  0.00    +0.000 A 
ATOM     20  C   UNL     1       2.126   3.280  19.670  0.00  0.00    +0.000 A 
ATOM     21  C   UNL     1       1.259   3.001  20.862  0.00  0.00    +0.000 C 
ATOM     22  C   UNL     1       3.518   3.229  19.782  0.00  0.00    +0.000 A 
ATOM     23  C   UNL     1       4.328   3.474  18.669  0.00  0.00    +0.000 A 
ENDBRANCH  16  17
BRANCH  16  24
ATOM     24  O   UNL     1       5.844   3.193  16.356  0.00  0.00    +0.000 OA
ATOM     25  H   UNL     1       5.526   2.275  16.366  0.00  0.00    +0.000 HD
ENDBRANCH  16  24
ENDBRANCH  15  16
ENDBRANCH   1  15
TORSDOF 7
ENDMDL
MODEL 4
REMARK VINA RESULT:      -6.7      0.478      1.124
REMARK  Name = 
REMARK  9 active torsions:
REMARK  status: ('A' for Active; 'I' for Inactive)
REMARK    1  A    between atoms: C_1  and  C_2
REMARK    2  A    between atoms: N_4  and  C_5
REMARK    3  A    between atoms: C_8  and  C_9
REMARK    4  A    between atoms: C_9  and  N_10
REMARK    5  A    between atoms: N_10  and  C_11
REMARK    6  A    between atoms: C_11  and  C_12
REMARK    7  A    between atoms: C_12  and  O_13
REMARK    8  A    between atoms: C_12  and  C_14
REMARK    9  A    between atoms: C_17  and  C_18
REMARK                            x       y       z     vdW  Elec       q    Type
REMARK                         _______ _______ _______ _____ _____    ______ ____
ROOT
ATOM      1  N   UNL     1       2.605   1.543  19.376  0.00  0.00    +0.000 NA
ATOM      2  H   UNL     1       3.017   2.068  20.151  0.00  0.00    +0.000 HD
ENDROOT
BRANCH   1   3
ATOM      3  C   UNL     1       3.515   1.522  18.236  0.00  0.00    +0.000 C 
BRANCH   3   7
ATOM      4  C   UNL     1       5.395   5.377  17.679  0.00  0.00    +0.000 A 
ATOM      5  C   UNL     1       4.857   4.679  16.599  0.00  0.00    +0.000 A 
ATOM      6  C   UNL     1       4.245   3.443  16.793  0.00  0.00    +0.000 A 
ATOM      7  C   UNL     1       4.162   2.868  18.067  0.00  0.00    +0.000 A 
ATOM      8  C   UNL     1       4.700   3.571  19.154  0.00  0.00    +0.000 A 
ATOM      9  C   UNL     1       5.322   4.810  18.958  0.00  0.00    +0.000 A 
BRANCH   4  13
ATOM     10  C   UNL     1       7.712   8.347  17.671  0.00  0.00    +0.000 C 
ATOM     11  C   UNL     1       7.376   6.886  17.793  0.00  0.00    +0.000 C 
ATOM     12  O   UNL     1       8.242   6.073  18.091  0.00  0.00    +0.000 OA
ATOM     13  N   UNL     1       6.038   6.623  17.540  0.00  0.00    +0.000 N 
ATOM     14  H   UNL     1       5.484   7.377  17.157  0.00  0.00    +0.000 HD
ENDBRANCH   4  13
ENDBRANCH   3   7
ENDBRANCH   1   3
BRANCH   1  15
ATOM     15  C   UNL     1       1.322   2.157  19.023  0.00  0.00    +0.000 C 
BRANCH  15  16
ATOM     16  C   UNL     1       0.988   3.358  19.939  0.00  0.00    +0.000 C 
BRANCH  16  17
ATOM     17  C   UNL     1       1.444   4.712  19.411  0.00  0.00    +0.000 A 
ATOM     18  C   UNL     1       1.406   5.050  18.052  0.00  0.00    +0.000 A 
ATOM     19  C   UNL     1       1.828   6.307  17.613  0.00  0.00    +0.000 A 
ATOM     20  C   UNL     1       2.301   7.254  18.523  0.00  0.00    +0.000 A 
ATOM     21  C   UNL     1       2.745   8.608  18.054  0.00  0.00    +0.000 C 
ATOM     22  C   UNL     1       2.342   6.928  19.881  0.00  0.00    +0.000 A 
ATOM     23  C   UNL     1       1.916   5.671  20.321  0.00  0.00    +0.000 A 
ENDBRANCH  16  17
BRANCH  16  24
ATOM     24  O   UNL     1       1.601   3.124  21.219  0.00  0.00    +0.000 OA
ATOM     25  H   UNL     1       0.993   2.562  21.727  0.00  0.00    +0.000 HD
ENDBRANCH  16  24
ENDBRANCH  15  16
ENDBRANCH   1  15
TORSDOF 7
ENDMDL
MODEL 5
REMARK VINA RESULT:      -6.5      0.899      1.346
REMARK  Name = 
REMARK  9 active torsions:
REMARK  status: ('A' for Active; 'I' for Inactive)
REMARK    1  A    between atoms: C_1  and  C_2
REMARK    2  A    between atoms: N_4  and  C_5
REMARK    3  A    between atoms: C_8  and  C_9
REMARK    4  A    between atoms: C_9  and  N_10
REMARK    5  A    between atoms: N_10  and  C_11
REMARK    6  A    between atoms: C_11  and  C_12
REMARK    7  A    between atoms: C_12  and  O_13
REMARK    8  A    between atoms: C_12  and  C_14
REMARK    9  A    between atoms: C_17  and  C_18
REMARK                            x       y       z     vdW  Elec       q    Type
REMARK                         _______ _______ _______ _____ _____    ______ ____
ROOT
ATOM      1  N   UNL     1       2.854   1.660  19.272  0.00  0.00    +0.000 NA
ATOM      2  H   UNL     1       3.246   2.290  19.975  0.00  0.00    +0.000 HD
ENDROOT
BRANCH   1   3
ATOM      3  C   UNL     1       3.508   1.864  17.984  0.00  0.00    +0.000 C 
BRANCH   3   7
ATOM      4  C   UNL     1       6.163   5.265  18.266  0.00  0.00    +0.000 A 
ATOM      5  C   UNL     1       5.634   4.672  19.411  0.00  0.00    +0.000 A 
ATOM      6  C   UNL     1       4.789   3.571  19.308  0.00  0.00    +0.000 A 
ATOM      7  C   UNL     1       4.442   3.039  18.060  0.00  0.00    +0.000 A 
ATOM      8  C   UNL     1       4.976   3.633  16.908  0.00  0.00    +0.000 A 
ATOM      9  C   UNL     1       5.820   4.745  17.012  0.00  0.00    +0.000 A 
BRANCH   4  13
ATOM     10  C   UNL     1       8.139   8.416  17.666  0.00  0.00    +0.000 C 
ATOM     11  C   UNL     1       7.023   7.442  17.406  0.00  0.00    +0.000 C 
ATOM     12  O   UNL     1       6.248   7.621  16.476  0.00  0.00    +0.000 OA
ATOM     13  N   UNL     1       7.012   6.390  18.310  0.00  0.00    +0.000 N 
ATOM     14  H   UNL     1       7.622   6.464  19.113  0.00  0.00    +0.000 HD
ENDBRANCH   4  13
ENDBRANCH   3   7
ENDBRANCH   1   3
BRANCH   1  15
ATOM     15  C   UNL     1       1.411   1.899  19.181  0.00  0.00    +0.000 C 
BRANCH  15  16
ATOM     16  C   UNL     1       0.977   3.125  20.019  0.00  0.00    +0.000 C 
BRANCH  16  17
ATOM     17  C   UNL     1       1.482   4.465  19.502  0.00  0.00    +0.000 A 
ATOM     18  C   UNL     1       1.956   5.477  20.347  0.00  0.00    +0.000 A 
ATOM     19  C   UNL     1       2.417   6.689  19.828  0.00  0.00    +0.000 A 
ATOM     20  C   UNL     1       2.413   6.918  18.450  0.00  0.00    +0.000 A 
ATOM     21  C   UNL     1       2.917   8.215  17.890  0.00  0.00    +0.000 C 
ATOM     22  C   UNL     1       1.944   5.914  17.597  0.00  0.00    +0.000 A 
ATOM     23  C   UNL     1       1.486   4.700  18.117  0.00  0.00    +0.000 A 
ENDBRANCH  16  17
BRANCH  16  24
ATOM     24  O   UNL     1       1.452   2.933  21.364  0.00  0.00    +0.000 OA
ATOM     25  H   UNL     1       1.985   3.714  21.591  0.00  0.00    +0.000 HD
ENDBRANCH  16  24
ENDBRANCH  15  16
ENDBRANCH   1  15
TORSDOF 7
ENDMDL
MODEL 6
REMARK VINA RESULT:      -6.4      3.356      6.204
REMARK  Name = 
REMARK  9 active torsions:
REMARK  status: ('A' for Active; 'I' for Inactive)
REMARK    1  A    between atoms: C_1  and  C_2
REMARK    2  A    between atoms: N_4  and  C_5
REMARK    3  A    between atoms: C_8  and  C_9
REMARK    4  A    between atoms: C_9  and  N_10
REMARK    5  A    between atoms: N_10  and  C_11
REMARK    6  A    between atoms: C_11  and  C_12
REMARK    7  A    between atoms: C_12  and  O_13
REMARK    8  A    between atoms: C_12  and  C_14
REMARK    9  A    between atoms: C_17  and  C_18
REMARK                            x       y       z     vdW  Elec       q    Type
REMARK                         _______ _______ _______ _____ _____    ______ ____
ROOT
ATOM      1  N   UNL     1       4.170   6.431  17.729  0.00  0.00    +0.000 NA
ATOM      2  H   UNL     1       3.564   5.836  18.298  0.00  0.00    +0.000 HD
ENDROOT
BRANCH   1   3
ATOM      3  C   UNL     1       3.436   7.600  17.256  0.00  0.00    +0.000 C 
BRANCH   3   7
ATOM      4  C   UNL     1       0.754   8.956  20.365  0.00  0.00    +0.000 A 
ATOM      5  C   UNL     1       1.520   7.804  20.532  0.00  0.00    +0.000 A 
ATOM      6  C   UNL     1       2.388   7.383  19.528  0.00  0.00    +0.000 A 
ATOM      7  C   UNL     1       2.507   8.095  18.328  0.00  0.00    +0.000 A 
ATOM      8  C   UNL     1       1.738   9.256  18.161  0.00  0.00    +0.000 A 
ATOM      9  C   UNL     1       0.861   9.675  19.168  0.00  0.00    +0.000 A 
BRANCH   4  13
ATOM     10  C   UNL     1      -1.133  10.771  23.075  0.00  0.00    +0.000 C 
ATOM     11  C   UNL     1      -0.090  10.640  21.999  0.00  0.00    +0.000 C 
ATOM     12  O   UNL     1       0.699  11.552  21.786  0.00  0.00    +0.000 OA
ATOM     13  N   UNL     1      -0.151   9.421  21.342  0.00  0.00    +0.000 N 
ATOM     14  H   UNL     1      -0.953   8.835  21.528  0.00  0.00    +0.000 HD
ENDBRANCH   4  13
ENDBRANCH   3   7
ENDBRANCH   1   3
BRANCH   1  15
ATOM     15  C   UNL     1       4.691   5.640  16.612  0.00  0.00    +0.000 C 
BRANCH  15  16
ATOM     16  C   UNL     1       4.364   4.136  16.770  0.00  0.00    +0.000 C 
BRANCH  16  17
ATOM     17  C   UNL     1       3.590   3.779  18.032  0.00  0.00    +0.000 A 
ATOM     18  C   UNL     1       4.196   3.218  19.164  0.00  0.00    +0.000 A 
ATOM     19  C   UNL     1       3.447   2.913  20.303  0.00  0.00    +0.000 A 
ATOM     20  C   UNL     1       2.074   3.160  20.335  0.00  0.00    +0.000 A 
ATOM     21  C   UNL     1       1.269   2.844  21.562  0.00  0.00    +0.000 C 
ATOM     22  C   UNL     1       1.458   3.721  19.213  0.00  0.00    +0.000 A 
ATOM     23  C   UNL     1       2.209   4.030  18.074  0.00  0.00    +0.000 A 
ENDBRANCH  16  17
BRANCH  16  24
ATOM     24  O   UNL     1       5.606   3.409  16.762  0.00  0.00    +0.000 OA
ATOM     25  H   UNL     1       6.048   3.593  17.608  0.00  0.00    +0.000 HD
ENDBRANCH  16  24
ENDBRANCH  15  16
ENDBRANCH   1  15
TORSDOF 7
ENDMDL
MODEL 7
REMARK VINA RESULT:      -6.4      3.338      5.807
REMARK  Name = 
REMARK  9 active torsions:
REMARK  status: ('A' for Active; 'I' for Inactive)
REMARK    1  A    between atoms: C_1  and  C_2
REMARK    2  A    between atoms: N_4  and  C_5
REMARK    3  A    between atoms: C_8  and  C_9
REMARK    4  A    between atoms: C_9  and  N_10
REMARK    5  A    between atoms: N_10  and  C_11
REMARK    6  A    between atoms: C_11  and  C_12
REMARK    7  A    between atoms: C_12  and  O_13
REMARK    8  A    between atoms: C_12  and  C_14
REMARK    9  A    between atoms: C_17  and  C_18
REMARK                            x       y       z     vdW  Elec       q    Type
REMARK                         _______ _______ _______ _____ _____    ______ ____
ROOT
ATOM      1  N   UNL     1       2.297   4.758  19.405  0.00  0.00    +0.000 NA
ATOM      2  H   UNL     1       1.509   5.049  18.821  0.00  0.00    +0.000 HD
ENDROOT
BRANCH   1   3
ATOM      3  C   UNL     1       3.124   5.908  19.753  0.00  0.00    +0.000 C 
BRANCH   3   7
ATOM      4  C   UNL     1       1.094   9.592  18.747  0.00  0.00    +0.000 A 
ATOM      5  C   UNL     1       1.823   8.890  17.788  0.00  0.00    +0.000 A 
ATOM      6  C   UNL     1       2.463   7.699  18.122  0.00  0.00    +0.000 A 
ATOM      7  C   UNL     1       2.401   7.183  19.421  0.00  0.00    +0.000 A 
ATOM      8  C   UNL     1       1.667   7.888  20.386  0.00  0.00    +0.000 A 
ATOM      9  C   UNL     1       1.029   9.088  20.052  0.00  0.00    +0.000 A 
BRANCH   4  13
ATOM     10  C   UNL     1      -0.061  13.161  18.408  0.00  0.00    +0.000 C 
ATOM     11  C   UNL     1       0.945  12.080  18.691  0.00  0.00    +0.000 C 
ATOM     12  O   UNL     1       2.071  12.366  19.078  0.00  0.00    +0.000 OA
ATOM     13  N   UNL     1       0.438  10.808  18.470  0.00  0.00    +0.000 N 
ATOM     14  H   UNL     1      -0.457  10.742  18.005  0.00  0.00    +0.000 HD
ENDBRANCH   4  13
ENDBRANCH   3   7
ENDBRANCH   1   3
BRANCH   1  15
ATOM     15  C   UNL     1       3.069   3.745  18.681  0.00  0.00    +0.000 C 
BRANCH  15  16
ATOM     16  C   UNL     1       4.593   3.952  18.853  0.00  0.00    +0.000 C 
BRANCH  16  17
ATOM     17  C   UNL     1       5.350   4.231  17.562  0.00  0.00    +0.000 A 
ATOM     18  C   UNL     1       6.705   4.587  17.536  0.00  0.00    +0.000 A 
ATOM     19  C   UNL     1       7.362   4.827  16.328  0.00  0.00    +0.000 A 
ATOM     20  C   UNL     1       6.678   4.719  15.115  0.00  0.00    +0.000 A 
ATOM     21  C   UNL     1       7.384   4.966  13.815  0.00  0.00    +0.000 C 
ATOM     22  C   UNL     1       5.326   4.362  15.128  0.00  0.00    +0.000 A 
ATOM     23  C   UNL     1       4.670   4.118  16.339  0.00  0.00    +0.000 A 
ENDBRANCH  16  17
BRANCH  16  24
ATOM     24  O   UNL     1       5.134   2.769  19.467  0.00  0.00    +0.000 OA
ATOM     25  H   UNL     1       4.942   2.829  20.418  0.00  0.00    +0.000 HD
ENDBRANCH  16  24
ENDBRANCH  15  16
ENDBRANCH   1  15
TORSDOF 7
ENDMDL
MODEL 8
REMARK VINA RESULT:      -6.3      3.336      5.835
REMARK  Name = 
REMARK  9 active torsions:
REMARK  status: ('A' for Active; 'I' for Inactive)
REMARK    1  A    between atoms: C_1  and  C_2
REMARK    2  A    between atoms: N_4  and  C_5
REMARK    3  A    between atoms: C_8  and  C_9
REMARK    4  A    between atoms: C_9  and  N_10
REMARK    5  A    between atoms: N_10  and  C_11
REMARK    6  A    between atoms: C_11  and  C_12
REMARK    7  A    between atoms: C_12  and  O_13
REMARK    8  A    between atoms: C_12  and  C_14
REMARK    9  A    between atoms: C_17  and  C_18
REMARK                            x       y       z     vdW  Elec       q    Type
REMARK                         _______ _______ _______ _____ _____    ______ ____
ROOT
ATOM      1  N   UNL     1       2.318   4.796  19.672  0.00  0.00    +0.000 NA
ATOM      2  H   UNL     1       1.487   5.044  19.130  0.00  0.00    +0.000 HD
ENDROOT
BRANCH   1   3
ATOM      3  C   UNL     1       3.185   5.958  19.834  0.00  0.00    +0.000 C 
BRANCH   3   7
ATOM      4  C   UNL     1       1.103   9.578  18.713  0.00  0.00    +0.000 A 
ATOM      5  C   UNL     1       1.879   8.882  17.788  0.00  0.00    +0.000 A 
ATOM      6  C   UNL     1       2.536   7.711  18.158  0.00  0.00    +0.000 A 
ATOM      7  C   UNL     1       2.443   7.211  19.462  0.00  0.00    +0.000 A 
ATOM      8  C   UNL     1       1.661   7.909  20.392  0.00  0.00    +0.000 A 
ATOM      9  C   UNL     1       1.006   9.090  20.022  0.00  0.00    +0.000 A 
BRANCH   4  13
ATOM     10  C   UNL     1      -0.208  13.096  18.396  0.00  0.00    +0.000 C 
ATOM     11  C   UNL     1       0.800  12.052  18.791  0.00  0.00    +0.000 C 
ATOM     12  O   UNL     1       1.816  12.368  19.397  0.00  0.00    +0.000 OA
ATOM     13  N   UNL     1       0.428  10.775  18.398  0.00  0.00    +0.000 N 
ATOM     14  H   UNL     1      -0.363  10.696  17.773  0.00  0.00    +0.000 HD
ENDBRANCH   4  13
ENDBRANCH   3   7
ENDBRANCH   1   3
BRANCH   1  15
ATOM     15  C   UNL     1       3.014   3.701  18.991  0.00  0.00    +0.000 C 
BRANCH  15  16
ATOM     16  C   UNL     1       4.552   3.864  19.064  0.00  0.00    +0.000 C 
BRANCH  16  17
ATOM     17  C   UNL     1       5.230   4.138  17.729  0.00  0.00    +0.000 A 
ATOM     18  C   UNL     1       4.560   4.044  16.502  0.00  0.00    +0.000 A 
ATOM     19  C   UNL     1       5.220   4.312  15.301  0.00  0.00    +0.000 A 
ATOM     20  C   UNL     1       6.568   4.677  15.298  0.00  0.00    +0.000 A 
ATOM     21  C   UNL     1       7.276   4.975  14.010  0.00  0.00    +0.000 C 
ATOM     22  C   UNL     1       7.246   4.775  16.517  0.00  0.00    +0.000 A 
ATOM     23  C   UNL     1       6.583   4.511  17.719  0.00  0.00    +0.000 A 
ENDBRANCH  16  17
BRANCH  16  24
ATOM     24  O   UNL     1       5.098   2.659  19.629  0.00  0.00    +0.000 OA
ATOM     25  H   UNL     1       4.347   2.106  19.900  0.00  0.00    +0.000 HD
ENDBRANCH  16  24
ENDBRANCH  15  16
ENDBRANCH   1  15
TORSDOF 7
ENDMDL
MODEL 9
REMARK VINA RESULT:      -6.3      3.705      6.613
REMARK  Name = 
REMARK  9 active torsions:
REMARK  status: ('A' for Active; 'I' for Inactive)
REMARK    1  A    between atoms: C_1  and  C_2
REMARK    2  A    between atoms: N_4  and  C_5
REMARK    3  A    between atoms: C_8  and  C_9
REMARK    4  A    between atoms: C_9  and  N_10
REMARK    5  A    between atoms: N_10  and  C_11
REMARK    6  A    between atoms: C_11  and  C_12
REMARK    7  A    between atoms: C_12  and  O_13
REMARK    8  A    between atoms: C_12  and  C_14
REMARK    9  A    between atoms: C_17  and  C_18
REMARK                            x       y       z     vdW  Elec       q    Type
REMARK                         _______ _______ _______ _____ _____    ______ ____
ROOT
ATOM      1  N   UNL     1       3.252   5.635  19.994  0.00  0.00    +0.000 NA
ATOM      2  H   UNL     1       2.514   5.629  20.702  0.00  0.00    +0.000 HD
ENDROOT
BRANCH   1   3
ATOM      3  C   UNL     1       2.968   6.637  18.973  0.00  0.00    +0.000 C 
BRANCH   3   7
ATOM      4  C   UNL     1       0.311   9.630  20.609  0.00  0.00    +0.000 A 
ATOM      5  C   UNL     1       0.654   8.498  21.345  0.00  0.00    +0.000 A 
ATOM      6  C   UNL     1       1.520   7.546  20.811  0.00  0.00    +0.000 A 
ATOM      7  C   UNL     1       2.056   7.695  19.527  0.00  0.00    +0.000 A 
ATOM      8  C   UNL     1       1.713   8.835  18.787  0.00  0.00    +0.000 A 
ATOM      9  C   UNL     1       0.838   9.788  19.321  0.00  0.00    +0.000 A 
BRANCH   4  13
ATOM     10  C   UNL     1      -1.886  11.952  22.604  0.00  0.00    +0.000 C 
ATOM     11  C   UNL     1      -0.784  10.943  22.424  0.00  0.00    +0.000 C 
ATOM     12  O   UNL     1      -0.187  10.497  23.395  0.00  0.00    +0.000 OA
ATOM     13  N   UNL     1      -0.571  10.618  21.093  0.00  0.00    +0.000 N 
ATOM     14  H   UNL     1      -1.039  11.185  20.398  0.00  0.00    +0.000 HD
ENDBRANCH   4  13
ENDBRANCH   3   7
ENDBRANCH   1   3
BRANCH   1  15
ATOM     15  C   UNL     1       3.355   4.294  19.412  0.00  0.00    +0.000 C 
BRANCH  15  16
ATOM     16  C   UNL     1       4.828   3.846  19.256  0.00  0.00    +0.000 C 
BRANCH  16  17
ATOM     17  C   UNL     1       5.443   4.134  17.894  0.00  0.00    +0.000 A 
ATOM     18  C   UNL     1       6.786   4.499  17.728  0.00  0.00    +0.000 A 
ATOM     19  C   UNL     1       7.311   4.747  16.458  0.00  0.00    +0.000 A 
ATOM     20  C   UNL     1       6.503   4.639  15.324  0.00  0.00    +0.000 A 
ATOM     21  C   UNL     1       7.068   4.895  13.957  0.00  0.00    +0.000 C 
ATOM     22  C   UNL     1       5.163   4.274  15.477  0.00  0.00    +0.000 A 
ATOM     23  C   UNL     1       4.639   4.022  16.749  0.00  0.00    +0.000 A 
ENDBRANCH  16  17
BRANCH  16  24
ATOM     24  O   UNL     1       4.889   2.431  19.508  0.00  0.00    +0.000 OA
ATOM     25  H   UNL     1       5.739   2.257  19.946  0.00  0.00    +0.000 HD
ENDBRANCH  16  24
ENDBRANCH  15  16
ENDBRANCH   1  15
TORSDOF 7
ENDMDL
