MODEL 1
REMARK VINA RESULT:      -7.0      0.000      0.000
REMARK  Name = 
REMARK  13 active torsions:
REMARK  status: ('A' for Active; 'I' for Inactive)
REMARK    1  A    between atoms: C_1  and  N_2
REMARK    2  A    between atoms: N_2  and  C_3
REMARK    3  A    between atoms: C_6  and  C_7
REMARK    4  A    between atoms: C_8  and  C_9
REMARK    5  A    between atoms: C_12  and  O_13
REMARK    6  A    between atoms: O_13  and  C_14
REMARK    7  A    between atoms: C_14  and  C_15
REMARK    8  A    between atoms: C_15  and  O_16
REMARK    9  A    between atoms: O_16  and  C_17
REMARK   10  A    between atoms: C_17  and  C_18
REMARK   11  A    between atoms: C_18  and  O_19
REMARK   12  A    between atoms: O_19  and  C_20
REMARK   13  A    between atoms: C_20  and  C_21
REMARK                            x       y       z     vdW  Elec       q    Type
REMARK                         _______ _______ _______ _____ _____    ______ ____
ROOT
ATOM      1  C   UNL     1       7.782   7.739  18.008  0.00  0.00    +0.000 A 
ATOM      2  C   UNL     1       8.124   6.858  19.022  0.00  0.00    +0.000 A 
ATOM      3  N   UNL     1       7.623   5.610  19.148  0.00  0.00    +0.000 NA
ATOM      4  C   UNL     1       6.737   5.198  18.212  0.00  0.00    +0.000 A 
ATOM      5  C   UNL     1       6.354   5.991  17.137  0.00  0.00    +0.000 A 
ATOM      6 BR   UNL     1       5.136   5.401  15.814  0.00  0.00    +0.000 Br
ATOM      7  C   UNL     1       6.883   7.280  17.036  0.00  0.00    +0.000 A 
ENDROOT
BRANCH   1   9
ATOM      8  C   UNL     1       9.095   9.611  18.973  0.00  0.00    +0.000 C 
ATOM      9  C   UNL     1       8.427   9.057  17.950  0.00  0.00    +0.000 C 
BRANCH   8  13
ATOM     10  C   UNL     1      10.827  13.561  18.959  0.00  0.00    +0.000 A 
ATOM     11  C   UNL     1      11.130  12.615  19.947  0.00  0.00    +0.000 A 
ATOM     12  C   UNL     1      10.583  11.327  19.921  0.00  0.00    +0.000 A 
ATOM     13  C   UNL     1       9.678  10.958  18.923  0.00  0.00    +0.000 A 
ATOM     14  C   UNL     1       9.367  11.891  17.927  0.00  0.00    +0.000 A 
ATOM     15  C   UNL     1       9.921  13.181  17.956  0.00  0.00    +0.000 A 
BRANCH  10  17
ATOM     16  C   UNL     1      10.839  15.892  18.221  0.00  0.00    +0.000 C 
ATOM     17  N   UNL     1      11.346  14.859  19.105  0.00  0.00    +0.000 N 
ATOM     18  H   UNL     1      12.358  14.859  19.172  0.00  0.00    +0.000 HD
ENDBRANCH  10  17
ENDBRANCH   8  13
ENDBRANCH   1   9
BRANCH   4  19
ATOM     19  O   UNL     1       6.233   3.913  18.330  0.00  0.00    +0.000 OA
BRANCH  19  20
ATOM     20  C   UNL     1       5.133   3.875  19.248  0.00  0.00    +0.000 C 
BRANCH  20  21
ATOM     21  C   UNL     1       4.258   2.652  19.005  0.00  0.00    +0.000 C 
BRANCH  21  22
ATOM     22  O   UNL     1       3.635   2.810  17.727  0.00  0.00    +0.000 OA
BRANCH  22  23
ATOM     23  C   UNL     1       2.236   2.554  17.776  0.00  0.00    +0.000 C 
BRANCH  23  24
ATOM     24  C   UNL     1       1.484   3.873  17.929  0.00  0.00    +0.000 C 
BRANCH  24  25
ATOM     25  O   UNL     1       1.392   4.199  19.316  0.00  0.00    +0.000 OA
BRANCH  25  26
ATOM     26  C   UNL     1       0.806   3.141  20.073  0.00  0.00    +0.000 C 
BRANCH  26  27
ATOM     27  C   UNL     1       1.427   3.114  21.458  0.00  0.00    +0.000 C 
ATOM     28  F   UNL     1       2.418   4.043  21.525  0.00  0.00    +0.000 F 
ENDBRANCH  26  27
ENDBRANCH  25  26
ENDBRANCH  24  25
ENDBRANCH  23  24
ENDBRANCH  22  23
ENDBRANCH  21  22
ENDBRANCH  20  21
ENDBRANCH  19  20
ENDBRANCH   4  19
TORSDOF 12
ENDMDL
MODEL 2
REMARK VINA RESULT:      -7.0      1.602      1.966
REMARK  Name = 
REMARK  13 active torsions:
REMARK  status: ('A' for Active; 'I' for Inactive)
REMARK    1  A    between atoms: C_1  and  N_2
REMARK    2  A    between atoms: N_2  and  C_3
REMARK    3  A    between atoms: C_6  and  C_7
REMARK    4  A    between atoms: C_8  and  C_9
REMARK    5  A    between atoms: C_12  and  O_13
REMARK    6  A    between atoms: O_13  and  C_14
REMARK    7  A    between atoms: C_14  and  C_15
REMARK    8  A    between atoms: C_15  and  O_16
REMARK    9  A    between atoms: O_16  and  C_17
REMARK   10  A    between atoms: C_17  and  C_18
REMARK   11  A    between atoms: C_18  and  O_19
REMARK   12  A    between atoms: O_19  and  C_20
REMARK   13  A    between atoms: C_20  and  C_21
REMARK                            x       y       z     vdW  Elec       q    Type
REMARK                         _______ _______ _______ _____ _____    ______ ____
ROOT
ATOM      1  C   UNL     1       7.484   6.671  18.107  0.00  0.00    +0.000 A 
ATOM      2  C   UNL     1       6.935   5.815  19.050  0.00  0.00    +0.000 A 
ATOM      3  N   UNL     1       6.155   4.754  18.754  0.00  0.00    +0.000 NA
ATOM      4  C   UNL     1       5.904   4.512  17.446  0.00  0.00    +0.000 A 
ATOM      5  C   UNL     1       6.433   5.289  16.422  0.00  0.00    +0.000 A 
ATOM      6 BR   UNL     1       6.104   4.931  14.593  0.00  0.00    +0.000 Br
ATOM      7  C   UNL     1       7.232   6.384  16.759  0.00  0.00    +0.000 A 
ENDROOT
BRANCH   1   9
ATOM      8  C   UNL     1       8.201   9.045  18.175  0.00  0.00    +0.000 C 
ATOM      9  C   UNL     1       8.355   7.767  18.549  0.00  0.00    +0.000 C 
BRANCH   8  13
ATOM     10  C   UNL     1      10.828  12.219  19.453  0.00  0.00    +0.000 A 
ATOM     11  C   UNL     1      10.090  11.448  20.361  0.00  0.00    +0.000 A 
ATOM     12  C   UNL     1       9.265  10.401  19.932  0.00  0.00    +0.000 A 
ATOM     13  C   UNL     1       9.120  10.121  18.572  0.00  0.00    +0.000 A 
ATOM     14  C   UNL     1       9.853  10.880  17.652  0.00  0.00    +0.000 A 
ATOM     15  C   UNL     1      10.682  11.927  18.087  0.00  0.00    +0.000 A 
BRANCH  10  17
ATOM     16  C   UNL     1      10.826  14.389  20.579  0.00  0.00    +0.000 C 
ATOM     17  N   UNL     1      11.563  13.307  19.954  0.00  0.00    +0.000 N 
ATOM     18  H   UNL     1      12.258  13.634  19.291  0.00  0.00    +0.000 HD
ENDBRANCH  10  17
ENDBRANCH   8  13
ENDBRANCH   1   9
BRANCH   4  19
ATOM     19  O   UNL     1       5.115   3.416  17.138  0.00  0.00    +0.000 OA
BRANCH  19  20
ATOM     20  C   UNL     1       3.727   3.710  17.336  0.00  0.00    +0.000 C 
BRANCH  20  21
ATOM     21  C   UNL     1       2.954   2.462  17.741  0.00  0.00    +0.000 C 
BRANCH  21  22
ATOM     22  O   UNL     1       2.940   2.404  19.171  0.00  0.00    +0.000 OA
BRANCH  22  23
ATOM     23  C   UNL     1       1.653   2.080  19.683  0.00  0.00    +0.000 C 
BRANCH  23  24
ATOM     24  C   UNL     1       1.233   3.135  20.703  0.00  0.00    +0.000 C 
BRANCH  24  25
ATOM     25  O   UNL     1       1.135   4.401  20.051  0.00  0.00    +0.000 OA
BRANCH  25  26
ATOM     26  C   UNL     1       1.946   5.390  20.685  0.00  0.00    +0.000 C 
BRANCH  26  27
ATOM     27  C   UNL     1       2.455   6.364  19.638  0.00  0.00    +0.000 C 
ATOM     28  F   UNL     1       2.239   7.637  20.064  0.00  0.00    +0.000 F 
ENDBRANCH  26  27
ENDBRANCH  25  26
ENDBRANCH  24  25
ENDBRANCH  23  24
ENDBRANCH  22  23
ENDBRANCH  21  22
ENDBRANCH  20  21
ENDBRANCH  19  20
ENDBRANCH   4  19
TORSDOF 12
ENDMDL
MODEL 3
REMARK VINA RESULT:      -7.0      1.281      1.513
REMARK  Name = 
REMARK  13 active torsions:
REMARK  status: ('A' for Active; 'I' for Inactive)
REMARK    1  A    between atoms: C_1  and  N_2
REMARK    2  A    between atoms: N_2  and  C_3
REMARK    3  A    between atoms: C_6  and  C_7
REMARK    4  A    between atoms: C_8  and  C_9
REMARK    5  A    between atoms: C_12  and  O_13
REMARK    6  A    between atoms: O_13  and  C_14
REMARK    7  A    between atoms: C_14  and  C_15
REMARK    8  A    between atoms: C_15  and  O_16
REMARK    9  A    between atoms: O_16  and  C_17
REMARK   10  A    between atoms: C_17  and  C_18
REMARK   11  A    between atoms: C_18  and  O_19
REMARK   12  A    between atoms: O_19  and  C_20
REMARK   13  A    between atoms: C_20  and  C_21
REMARK                            x       y       z     vdW  Elec       q    Type
REMARK                         _______ _______ _______ _____ _____    ______ ____
ROOT
ATOM      1  C   UNL     1       7.572   6.698  18.156  0.00  0.00    +0.000 A 
ATOM      2  C   UNL     1       7.167   5.756  19.090  0.00  0.00    +0.000 A 
ATOM      3  N   UNL     1       6.414   4.672  18.801  0.00  0.00    +0.000 NA
ATOM      4  C   UNL     1       6.043   4.498  17.511  0.00  0.00    +0.000 A 
ATOM      5  C   UNL     1       6.424   5.365  16.494  0.00  0.00    +0.000 A 
ATOM      6 BR   UNL     1       5.927   5.103  14.687  0.00  0.00    +0.000 Br
ATOM      7  C   UNL     1       7.198   6.481  16.824  0.00  0.00    +0.000 A 
ENDROOT
BRANCH   1   9
ATOM      8  C   UNL     1       8.224   9.091  18.232  0.00  0.00    +0.000 C 
ATOM      9  C   UNL     1       8.427   7.812  18.582  0.00  0.00    +0.000 C 
BRANCH   8  13
ATOM     10  C   UNL     1      10.801  12.326  19.456  0.00  0.00    +0.000 A 
ATOM     11  C   UNL     1      10.054  11.576  20.374  0.00  0.00    +0.000 A 
ATOM     12  C   UNL     1       9.247  10.509  19.965  0.00  0.00    +0.000 A 
ATOM     13  C   UNL     1       9.127  10.186  18.611  0.00  0.00    +0.000 A 
ATOM     14  C   UNL     1       9.867  10.924  17.681  0.00  0.00    +0.000 A 
ATOM     15  C   UNL     1      10.679  11.992  18.098  0.00  0.00    +0.000 A 
BRANCH  10  17
ATOM     16  C   UNL     1      10.757  14.556  20.460  0.00  0.00    +0.000 C 
ATOM     17  N   UNL     1      11.517  13.436  19.935  0.00  0.00    +0.000 N 
ATOM     18  H   UNL     1      12.249  13.723  19.294  0.00  0.00    +0.000 HD
ENDBRANCH  10  17
ENDBRANCH   8  13
ENDBRANCH   1   9
BRANCH   4  19
ATOM     19  O   UNL     1       5.283   3.380  17.210  0.00  0.00    +0.000 OA
BRANCH  19  20
ATOM     20  C   UNL     1       3.951   3.510  17.723  0.00  0.00    +0.000 C 
BRANCH  20  21
ATOM     21  C   UNL     1       3.252   2.158  17.784  0.00  0.00    +0.000 C 
BRANCH  21  22
ATOM     22  O   UNL     1       1.867   2.371  17.493  0.00  0.00    +0.000 OA
BRANCH  22  23
ATOM     23  C   UNL     1       1.345   3.508  18.170  0.00  0.00    +0.000 C 
BRANCH  23  24
ATOM     24  C   UNL     1       0.565   3.053  19.401  0.00  0.00    +0.000 C 
BRANCH  24  25
ATOM     25  O   UNL     1       1.055   3.749  20.546  0.00  0.00    +0.000 OA
BRANCH  25  26
ATOM     26  C   UNL     1       1.355   2.860  21.622  0.00  0.00    +0.000 C 
BRANCH  26  27
ATOM     27  C   UNL     1       2.793   2.390  21.494  0.00  0.00    +0.000 C 
ATOM     28  F   UNL     1       3.529   3.354  20.882  0.00  0.00    +0.000 F 
ENDBRANCH  26  27
ENDBRANCH  25  26
ENDBRANCH  24  25
ENDBRANCH  23  24
ENDBRANCH  22  23
ENDBRANCH  21  22
ENDBRANCH  20  21
ENDBRANCH  19  20
ENDBRANCH   4  19
TORSDOF 12
ENDMDL
MODEL 4
REMARK VINA RESULT:      -6.9      1.376      1.769
REMARK  Name = 
REMARK  13 active torsions:
REMARK  status: ('A' for Active; 'I' for Inactive)
REMARK    1  A    between atoms: C_1  and  N_2
REMARK    2  A    between atoms: N_2  and  C_3
REMARK    3  A    between atoms: C_6  and  C_7
REMARK    4  A    between atoms: C_8  and  C_9
REMARK    5  A    between atoms: C_12  and  O_13
REMARK    6  A    between atoms: O_13  and  C_14
REMARK    7  A    between atoms: C_14  and  C_15
REMARK    8  A    between atoms: C_15  and  O_16
REMARK    9  A    between atoms: O_16  and  C_17
REMARK   10  A    between atoms: C_17  and  C_18
REMARK   11  A    between atoms: C_18  and  O_19
REMARK   12  A    between atoms: O_19  and  C_20
REMARK   13  A    between atoms: C_20  and  C_21
REMARK                            x       y       z     vdW  Elec       q    Type
REMARK                         _______ _______ _______ _____ _____    ______ ____
ROOT
ATOM      1  C   UNL     1       7.719   6.925  18.301  0.00  0.00    +0.000 A 
ATOM      2  C   UNL     1       7.328   6.002  19.260  0.00  0.00    +0.000 A 
ATOM      3  N   UNL     1       6.520   4.948  19.018  0.00  0.00    +0.000 NA
ATOM      4  C   UNL     1       6.074   4.783  17.751  0.00  0.00    +0.000 A 
ATOM      5  C   UNL     1       6.434   5.632  16.710  0.00  0.00    +0.000 A 
ATOM      6 BR   UNL     1       5.830   5.384  14.934  0.00  0.00    +0.000 Br
ATOM      7  C   UNL     1       7.266   6.718  16.992  0.00  0.00    +0.000 A 
ENDROOT
BRANCH   1   9
ATOM      8  C   UNL     1       8.386   9.308  18.476  0.00  0.00    +0.000 C 
ATOM      9  C   UNL     1       8.638   8.006  18.675  0.00  0.00    +0.000 C 
BRANCH   8  13
ATOM     10  C   UNL     1      11.271  12.406  19.303  0.00  0.00    +0.000 A 
ATOM     11  C   UNL     1      11.073  11.893  18.014  0.00  0.00    +0.000 A 
ATOM     12  C   UNL     1      10.111  10.910  17.757  0.00  0.00    +0.000 A 
ATOM     13  C   UNL     1       9.344  10.376  18.795  0.00  0.00    +0.000 A 
ATOM     14  C   UNL     1       9.528  10.878  20.088  0.00  0.00    +0.000 A 
ATOM     15  C   UNL     1      10.492  11.868  20.340  0.00  0.00    +0.000 A 
BRANCH  10  17
ATOM     16  C   UNL     1      11.989  14.740  19.443  0.00  0.00    +0.000 C 
ATOM     17  N   UNL     1      12.316  13.327  19.496  0.00  0.00    +0.000 N 
ATOM     18  H   UNL     1      13.136  13.091  18.948  0.00  0.00    +0.000 HD
ENDBRANCH  10  17
ENDBRANCH   8  13
ENDBRANCH   1   9
BRANCH   4  19
ATOM     19  O   UNL     1       5.256   3.695  17.497  0.00  0.00    +0.000 OA
BRANCH  19  20
ATOM     20  C   UNL     1       3.913   3.951  17.923  0.00  0.00    +0.000 C 
BRANCH  20  21
ATOM     21  C   UNL     1       2.905   3.310  16.978  0.00  0.00    +0.000 C 
BRANCH  21  22
ATOM     22  O   UNL     1       1.674   3.160  17.691  0.00  0.00    +0.000 OA
BRANCH  22  23
ATOM     23  C   UNL     1       1.836   2.415  18.893  0.00  0.00    +0.000 C 
BRANCH  23  24
ATOM     24  C   UNL     1       0.794   2.865  19.913  0.00  0.00    +0.000 C 
BRANCH  24  25
ATOM     25  O   UNL     1       1.397   2.906  21.207  0.00  0.00    +0.000 OA
BRANCH  25  26
ATOM     26  C   UNL     1       2.339   3.972  21.321  0.00  0.00    +0.000 C 
BRANCH  26  27
ATOM     27  C   UNL     1       1.699   5.258  20.829  0.00  0.00    +0.000 C 
ATOM     28  F   UNL     1       2.632   6.008  20.185  0.00  0.00    +0.000 F 
ENDBRANCH  26  27
ENDBRANCH  25  26
ENDBRANCH  24  25
ENDBRANCH  23  24
ENDBRANCH  22  23
ENDBRANCH  21  22
ENDBRANCH  20  21
ENDBRANCH  19  20
ENDBRANCH   4  19
TORSDOF 12
ENDMDL
MODEL 5
REMARK VINA RESULT:      -6.9      1.048      1.122
REMARK  Name = 
REMARK  13 active torsions:
REMARK  status: ('A' for Active; 'I' for Inactive)
REMARK    1  A    between atoms: C_1  and  N_2
REMARK    2  A    between atoms: N_2  and  C_3
REMARK    3  A    between atoms: C_6  and  C_7
REMARK    4  A    between atoms: C_8  and  C_9
REMARK    5  A    between atoms: C_12  and  O_13
REMARK    6  A    between atoms: O_13  and  C_14
REMARK    7  A    between atoms: C_14  and  C_15
REMARK    8  A    between atoms: C_15  and  O_16
REMARK    9  A    between atoms: O_16  and  C_17
REMARK   10  A    between atoms: C_17  and  C_18
REMARK   11  A    between atoms: C_18  and  O_19
REMARK   12  A    between atoms: O_19  and  C_20
REMARK   13  A    between atoms: C_20  and  C_21
REMARK                            x       y       z     vdW  Elec       q    Type
REMARK                         _______ _______ _______ _____ _____    ______ ____
ROOT
ATOM      1  C   UNL     1       7.807   7.561  17.997  0.00  0.00    +0.000 A 
ATOM      2  C   UNL     1       8.032   6.675  19.040  0.00  0.00    +0.000 A 
ATOM      3  N   UNL     1       7.491   5.440  19.120  0.00  0.00    +0.000 NA
ATOM      4  C   UNL     1       6.683   5.047  18.107  0.00  0.00    +0.000 A 
ATOM      5  C   UNL     1       6.421   5.846  17.000  0.00  0.00    +0.000 A 
ATOM      6 BR   UNL     1       5.315   5.282  15.572  0.00  0.00    +0.000 Br
ATOM      7  C   UNL     1       6.990   7.121  16.948  0.00  0.00    +0.000 A 
ENDROOT
BRANCH   1   9
ATOM      8  C   UNL     1       8.988   9.447  19.095  0.00  0.00    +0.000 C 
ATOM      9  C   UNL     1       8.488   8.861  17.997  0.00  0.00    +0.000 C 
BRANCH   8  13
ATOM     10  C   UNL     1      10.776  13.370  19.214  0.00  0.00    +0.000 A 
ATOM     11  C   UNL     1      10.650  12.571  20.358  0.00  0.00    +0.000 A 
ATOM     12  C   UNL     1      10.095  11.287  20.297  0.00  0.00    +0.000 A 
ATOM     13  C   UNL     1       9.608  10.779  19.091  0.00  0.00    +0.000 A 
ATOM     14  C   UNL     1       9.728  11.563  17.939  0.00  0.00    +0.000 A 
ATOM     15  C   UNL     1      10.289  12.850  18.004  0.00  0.00    +0.000 A 
BRANCH  10  17
ATOM     16  C   UNL     1      11.885  15.312  18.225  0.00  0.00    +0.000 C 
ATOM     17  N   UNL     1      11.261  14.679  19.372  0.00  0.00    +0.000 N 
ATOM     18  H   UNL     1      11.804  14.784  20.223  0.00  0.00    +0.000 HD
ENDBRANCH  10  17
ENDBRANCH   8  13
ENDBRANCH   1   9
BRANCH   4  19
ATOM     19  O   UNL     1       6.138   3.776  18.181  0.00  0.00    +0.000 OA
BRANCH  19  20
ATOM     20  C   UNL     1       4.929   3.779  18.950  0.00  0.00    +0.000 C 
BRANCH  20  21
ATOM     21  C   UNL     1       3.806   3.065  18.209  0.00  0.00    +0.000 C 
BRANCH  21  22
ATOM     22  O   UNL     1       3.282   2.058  19.081  0.00  0.00    +0.000 OA
BRANCH  22  23
ATOM     23  C   UNL     1       1.867   1.944  18.981  0.00  0.00    +0.000 C 
BRANCH  23  24
ATOM     24  C   UNL     1       1.223   3.271  19.371  0.00  0.00    +0.000 C 
BRANCH  24  25
ATOM     25  O   UNL     1       1.197   3.376  20.795  0.00  0.00    +0.000 OA
BRANCH  25  26
ATOM     26  C   UNL     1       2.070   4.401  21.268  0.00  0.00    +0.000 C 
BRANCH  26  27
ATOM     27  C   UNL     1       1.750   5.700  20.550  0.00  0.00    +0.000 C 
ATOM     28  F   UNL     1       2.874   6.170  19.947  0.00  0.00    +0.000 F 
ENDBRANCH  26  27
ENDBRANCH  25  26
ENDBRANCH  24  25
ENDBRANCH  23  24
ENDBRANCH  22  23
ENDBRANCH  21  22
ENDBRANCH  20  21
ENDBRANCH  19  20
ENDBRANCH   4  19
TORSDOF 12
ENDMDL
MODEL 6
REMARK VINA RESULT:      -6.8      0.993      1.100
REMARK  Name = 
REMARK  13 active torsions:
REMARK  status: ('A' for Active; 'I' for Inactive)
REMARK    1  A    between atoms: C_1  and  N_2
REMARK    2  A    between atoms: N_2  and  C_3
REMARK    3  A    between atoms: C_6  and  C_7
REMARK    4  A    between atoms: C_8  and  C_9
REMARK    5  A    between atoms: C_12  and  O_13
REMARK    6  A    between atoms: O_13  and  C_14
REMARK    7  A    between atoms: C_14  and  C_15
REMARK    8  A    between atoms: C_15  and  O_16
REMARK    9  A    between atoms: O_16  and  C_17
REMARK   10  A    between atoms: C_17  and  C_18
REMARK   11  A    between atoms: C_18  and  O_19
REMARK   12  A    between atoms: O_19  and  C_20
REMARK   13  A    between atoms: C_20  and  C_21
REMARK                            x       y       z     vdW  Elec       q    Type
REMARK                         _______ _______ _______ _____ _____    ______ ____
ROOT
ATOM      1  C   UNL     1       7.943   7.295  18.331  0.00  0.00    +0.000 A 
ATOM      2  C   UNL     1       8.040   6.156  19.115  0.00  0.00    +0.000 A 
ATOM      3  N   UNL     1       7.401   4.995  18.855  0.00  0.00    +0.000 NA
ATOM      4  C   UNL     1       6.623   4.946  17.749  0.00  0.00    +0.000 A 
ATOM      5  C   UNL     1       6.486   6.022  16.878  0.00  0.00    +0.000 A 
ATOM      6 BR   UNL     1       5.419   5.942  15.316  0.00  0.00    +0.000 Br
ATOM      7  C   UNL     1       7.153   7.212  17.177  0.00  0.00    +0.000 A 
ENDROOT
BRANCH   1   9
ATOM      8  C   UNL     1       8.476   9.716  18.215  0.00  0.00    +0.000 C 
ATOM      9  C   UNL     1       8.721   8.486  18.691  0.00  0.00    +0.000 C 
BRANCH   8  13
ATOM     10  C   UNL     1      10.908  13.116  19.276  0.00  0.00    +0.000 A 
ATOM     11  C   UNL     1      10.891  11.941  20.039  0.00  0.00    +0.000 A 
ATOM     12  C   UNL     1      10.120  10.835  19.665  0.00  0.00    +0.000 A 
ATOM     13  C   UNL     1       9.305  10.887  18.532  0.00  0.00    +0.000 A 
ATOM     14  C   UNL     1       9.311  12.052  17.757  0.00  0.00    +0.000 A 
ATOM     15  C   UNL     1      10.090  13.158  18.136  0.00  0.00    +0.000 A 
BRANCH  10  17
ATOM     16  C   UNL     1      10.917  15.447  20.016  0.00  0.00    +0.000 C 
ATOM     17  N   UNL     1      11.638  14.213  19.765  0.00  0.00    +0.000 N 
ATOM     18  H   UNL     1      12.499  14.358  19.249  0.00  0.00    +0.000 HD
ENDBRANCH  10  17
ENDBRANCH   8  13
ENDBRANCH   1   9
BRANCH   4  19
ATOM     19  O   UNL     1       5.978   3.753  17.472  0.00  0.00    +0.000 OA
BRANCH  19  20
ATOM     20  C   UNL     1       4.811   3.598  18.288  0.00  0.00    +0.000 C 
BRANCH  20  21
ATOM     21  C   UNL     1       3.550   3.536  17.436  0.00  0.00    +0.000 C 
BRANCH  21  22
ATOM     22  O   UNL     1       2.584   4.412  18.025  0.00  0.00    +0.000 OA
BRANCH  22  23
ATOM     23  C   UNL     1       1.287   3.828  18.073  0.00  0.00    +0.000 C 
BRANCH  23  24
ATOM     24  C   UNL     1       1.408   2.356  18.456  0.00  0.00    +0.000 C 
BRANCH  24  25
ATOM     25  O   UNL     1       1.805   2.261  19.824  0.00  0.00    +0.000 OA
BRANCH  25  26
ATOM     26  C   UNL     1       1.174   3.255  20.631  0.00  0.00    +0.000 C 
BRANCH  26  27
ATOM     27  C   UNL     1       2.216   3.916  21.515  0.00  0.00    +0.000 C 
ATOM     28  F   UNL     1       2.098   5.266  21.419  0.00  0.00    +0.000 F 
ENDBRANCH  26  27
ENDBRANCH  25  26
ENDBRANCH  24  25
ENDBRANCH  23  24
ENDBRANCH  22  23
ENDBRANCH  21  22
ENDBRANCH  20  21
ENDBRANCH  19  20
ENDBRANCH   4  19
TORSDOF 12
ENDMDL
MODEL 7
REMARK VINA RESULT:      -6.5      5.829      8.641
REMARK  Name = 
REMARK  13 active torsions:
REMARK  status: ('A' for Active; 'I' for Inactive)
REMARK    1  A    between atoms: C_1  and  N_2
REMARK    2  A    between atoms: N_2  and  C_3
REMARK    3  A    between atoms: C_6  and  C_7
REMARK    4  A    between atoms: C_8  and  C_9
REMARK    5  A    between atoms: C_12  and  O_13
REMARK    6  A    between atoms: O_13  and  C_14
REMARK    7  A    between atoms: C_14  and  C_15
REMARK    8  A    between atoms: C_15  and  O_16
REMARK    9  A    between atoms: O_16  and  C_17
REMARK   10  A    between atoms: C_17  and  C_18
REMARK   11  A    between atoms: C_18  and  O_19
REMARK   12  A    between atoms: O_19  and  C_20
REMARK   13  A    between atoms: C_20  and  C_21
REMARK                            x       y       z     vdW  Elec       q    Type
REMARK                         _______ _______ _______ _____ _____    ______ ____
ROOT
ATOM      1  C   UNL     1       2.319   7.007  19.495  0.00  0.00    +0.000 A 
ATOM      2  C   UNL     1       3.088   7.122  18.347  0.00  0.00    +0.000 A 
ATOM      3  N   UNL     1       3.847   6.129  17.836  0.00  0.00    +0.000 NA
ATOM      4  C   UNL     1       3.845   4.944  18.490  0.00  0.00    +0.000 A 
ATOM      5  C   UNL     1       3.083   4.715  19.630  0.00  0.00    +0.000 A 
ATOM      6 BR   UNL     1       3.059   3.049  20.527  0.00  0.00    +0.000 Br
ATOM      7  C   UNL     1       2.312   5.764  20.139  0.00  0.00    +0.000 A 
ENDROOT
BRANCH   1   9
ATOM      8  C   UNL     1       1.095   8.340  21.193  0.00  0.00    +0.000 C 
ATOM      9  C   UNL     1       1.498   8.144  19.929  0.00  0.00    +0.000 C 
BRANCH   8  13
ATOM     10  C   UNL     1      -1.423  11.665  22.293  0.00  0.00    +0.000 A 
ATOM     11  C   UNL     1      -0.887  11.526  21.006  0.00  0.00    +0.000 A 
ATOM     12  C   UNL     1      -0.097  10.426  20.656  0.00  0.00    +0.000 A 
ATOM     13  C   UNL     1       0.218   9.446  21.601  0.00  0.00    +0.000 A 
ATOM     14  C   UNL     1      -0.311   9.569  22.890  0.00  0.00    +0.000 A 
ATOM     15  C   UNL     1      -1.106  10.674  23.236  0.00  0.00    +0.000 A 
BRANCH  10  17
ATOM     16  C   UNL     1      -3.564  12.845  22.360  0.00  0.00    +0.000 C 
ATOM     17  N   UNL     1      -2.132  12.841  22.592  0.00  0.00    +0.000 N 
ATOM     18  H   UNL     1      -1.671  13.667  22.224  0.00  0.00    +0.000 HD
ENDBRANCH  10  17
ENDBRANCH   8  13
ENDBRANCH   1   9
BRANCH   4  19
ATOM     19  O   UNL     1       4.612   3.920  17.961  0.00  0.00    +0.000 OA
BRANCH  19  20
ATOM     20  C   UNL     1       5.173   4.297  16.699  0.00  0.00    +0.000 C 
BRANCH  20  21
ATOM     21  C   UNL     1       6.682   4.482  16.803  0.00  0.00    +0.000 C 
BRANCH  21  22
ATOM     22  O   UNL     1       7.052   4.279  18.170  0.00  0.00    +0.000 OA
BRANCH  22  23
ATOM     23  C   UNL     1       7.889   5.320  18.660  0.00  0.00    +0.000 C 
BRANCH  23  24
ATOM     24  C   UNL     1       7.498   6.639  18.001  0.00  0.00    +0.000 C 
BRANCH  24  25
ATOM     25  O   UNL     1       8.264   7.695  18.581  0.00  0.00    +0.000 OA
BRANCH  25  26
ATOM     26  C   UNL     1       8.150   8.907  17.835  0.00  0.00    +0.000 C 
BRANCH  26  27
ATOM     27  C   UNL     1       8.954   9.994  18.525  0.00  0.00    +0.000 C 
ATOM     28  F   UNL     1       8.627  11.202  17.993  0.00  0.00    +0.000 F 
ENDBRANCH  26  27
ENDBRANCH  25  26
ENDBRANCH  24  25
ENDBRANCH  23  24
ENDBRANCH  22  23
ENDBRANCH  21  22
ENDBRANCH  20  21
ENDBRANCH  19  20
ENDBRANCH   4  19
TORSDOF 12
ENDMDL
MODEL 8
REMARK VINA RESULT:      -6.4      6.325      8.328
REMARK  Name = 
REMARK  13 active torsions:
REMARK  status: ('A' for Active; 'I' for Inactive)
REMARK    1  A    between atoms: C_1  and  N_2
REMARK    2  A    between atoms: N_2  and  C_3
REMARK    3  A    between atoms: C_6  and  C_7
REMARK    4  A    between atoms: C_8  and  C_9
REMARK    5  A    between atoms: C_12  and  O_13
REMARK    6  A    between atoms: O_13  and  C_14
REMARK    7  A    between atoms: C_14  and  C_15
REMARK    8  A    between atoms: C_15  and  O_16
REMARK    9  A    between atoms: O_16  and  C_17
REMARK   10  A    between atoms: C_17  and  C_18
REMARK   11  A    between atoms: C_18  and  O_19
REMARK   12  A    between atoms: O_19  and  C_20
REMARK   13  A    between atoms: C_20  and  C_21
REMARK                            x       y       z     vdW  Elec       q    Type
REMARK                         _______ _______ _______ _____ _____    ______ ____
ROOT
ATOM      1  C   UNL     1       2.819   6.769  18.079  0.00  0.00    +0.000 A 
ATOM      2  C   UNL     1       3.936   7.143  17.348  0.00  0.00    +0.000 A 
ATOM      3  N   UNL     1       4.786   6.275  16.759  0.00  0.00    +0.000 NA
ATOM      4  C   UNL     1       4.517   4.954  16.889  0.00  0.00    +0.000 A 
ATOM      5  C   UNL     1       3.404   4.477  17.572  0.00  0.00    +0.000 A 
ATOM      6 BR   UNL     1       3.014   2.632  17.728  0.00  0.00    +0.000 Br
ATOM      7  C   UNL     1       2.546   5.399  18.177  0.00  0.00    +0.000 A 
ENDROOT
BRANCH   1   9
ATOM      8  C   UNL     1       1.468   8.846  17.933  0.00  0.00    +0.000 C 
ATOM      9  C   UNL     1       1.943   7.807  18.636  0.00  0.00    +0.000 C 
BRANCH   8  13
ATOM     10  C   UNL     1      -0.874  11.967  19.771  0.00  0.00    +0.000 A 
ATOM     11  C   UNL     1       0.429  11.665  20.188  0.00  0.00    +0.000 A 
ATOM     12  C   UNL     1       1.188  10.671  19.561  0.00  0.00    +0.000 A 
ATOM     13  C   UNL     1       0.646   9.913  18.520  0.00  0.00    +0.000 A 
ATOM     14  C   UNL     1      -0.653  10.202  18.090  0.00  0.00    +0.000 A 
ATOM     15  C   UNL     1      -1.409  11.204  18.721  0.00  0.00    +0.000 A 
BRANCH  10  17
ATOM     16  C   UNL     1      -2.122  12.515  21.801  0.00  0.00    +0.000 C 
ATOM     17  N   UNL     1      -1.601  12.917  20.508  0.00  0.00    +0.000 N 
ATOM     18  H   UNL     1      -2.290  13.395  19.937  0.00  0.00    +0.000 HD
ENDBRANCH  10  17
ENDBRANCH   8  13
ENDBRANCH   1   9
BRANCH   4  19
ATOM     19  O   UNL     1       5.379   4.062  16.274  0.00  0.00    +0.000 OA
BRANCH  19  20
ATOM     20  C   UNL     1       6.678   4.639  16.100  0.00  0.00    +0.000 C 
BRANCH  20  21
ATOM     21  C   UNL     1       7.120   4.570  14.644  0.00  0.00    +0.000 C 
BRANCH  21  22
ATOM     22  O   UNL     1       6.070   3.944  13.901  0.00  0.00    +0.000 OA
BRANCH  22  23
ATOM     23  C   UNL     1       6.437   3.706  12.547  0.00  0.00    +0.000 C 
BRANCH  23  24
ATOM     24  C   UNL     1       5.368   2.850  11.874  0.00  0.00    +0.000 C 
BRANCH  24  25
ATOM     25  O   UNL     1       4.305   3.695  11.434  0.00  0.00    +0.000 OA
BRANCH  25  26
ATOM     26  C   UNL     1       3.392   3.001  10.582  0.00  0.00    +0.000 C 
BRANCH  26  27
ATOM     27  C   UNL     1       3.020   3.898   9.415  0.00  0.00    +0.000 C 
ATOM     28  F   UNL     1       2.598   5.100   9.887  0.00  0.00    +0.000 F 
ENDBRANCH  26  27
ENDBRANCH  25  26
ENDBRANCH  24  25
ENDBRANCH  23  24
ENDBRANCH  22  23
ENDBRANCH  21  22
ENDBRANCH  20  21
ENDBRANCH  19  20
ENDBRANCH   4  19
TORSDOF 12
ENDMDL
MODEL 9
REMARK VINA RESULT:      -6.4      2.559      2.909
REMARK  Name = 
REMARK  13 active torsions:
REMARK  status: ('A' for Active; 'I' for Inactive)
REMARK    1  A    between atoms: C_1  and  N_2
REMARK    2  A    between atoms: N_2  and  C_3
REMARK    3  A    between atoms: C_6  and  C_7
REMARK    4  A    between atoms: C_8  and  C_9
REMARK    5  A    between atoms: C_12  and  O_13
REMARK    6  A    between atoms: O_13  and  C_14
REMARK    7  A    between atoms: C_14  and  C_15
REMARK    8  A    between atoms: C_15  and  O_16
REMARK    9  A    between atoms: O_16  and  C_17
REMARK   10  A    between atoms: C_17  and  C_18
REMARK   11  A    between atoms: C_18  and  O_19
REMARK   12  A    between atoms: O_19  and  C_20
REMARK   13  A    between atoms: C_20  and  C_21
REMARK                            x       y       z     vdW  Elec       q    Type
REMARK                         _______ _______ _______ _____ _____    ______ ____
ROOT
ATOM      1  C   UNL     1       7.875   7.223  18.398  0.00  0.00    +0.000 A 
ATOM      2  C   UNL     1       7.888   6.064  19.160  0.00  0.00    +0.000 A 
ATOM      3  N   UNL     1       7.137   4.973  18.900  0.00  0.00    +0.000 NA
ATOM      4  C   UNL     1       6.327   5.018  17.815  0.00  0.00    +0.000 A 
ATOM      5  C   UNL     1       6.265   6.118  16.968  0.00  0.00    +0.000 A 
ATOM      6 BR   UNL     1       5.153   6.168  15.437  0.00  0.00    +0.000 Br
ATOM      7  C   UNL     1       7.049   7.236  17.266  0.00  0.00    +0.000 A 
ENDROOT
BRANCH   1   9
ATOM      8  C   UNL     1       8.567   9.606  18.396  0.00  0.00    +0.000 C 
ATOM      9  C   UNL     1       8.770   8.330  18.755  0.00  0.00    +0.000 C 
BRANCH   8  13
ATOM     10  C   UNL     1      11.260  12.817  19.415  0.00  0.00    +0.000 A 
ATOM     11  C   UNL     1      10.569  12.082  20.389  0.00  0.00    +0.000 A 
ATOM     12  C   UNL     1       9.723  11.023  20.043  0.00  0.00    +0.000 A 
ATOM     13  C   UNL     1       9.506  10.693  18.704  0.00  0.00    +0.000 A 
ATOM     14  C   UNL     1      10.189  11.415  17.719  0.00  0.00    +0.000 A 
ATOM     15  C   UNL     1      11.040  12.476  18.071  0.00  0.00    +0.000 A 
BRANCH  10  17
ATOM     16  C   UNL     1      11.361  15.213  19.897  0.00  0.00    +0.000 C 
ATOM     17  N   UNL     1      12.021  13.921  19.836  0.00  0.00    +0.000 N 
ATOM     18  H   UNL     1      12.922  13.961  19.373  0.00  0.00    +0.000 HD
ENDBRANCH  10  17
ENDBRANCH   8  13
ENDBRANCH   1   9
BRANCH   4  19
ATOM     19  O   UNL     1       5.566   3.895  17.538  0.00  0.00    +0.000 OA
BRANCH  19  20
ATOM     20  C   UNL     1       4.647   3.621  18.602  0.00  0.00    +0.000 C 
BRANCH  20  21
ATOM     21  C   UNL     1       3.210   3.867  18.164  0.00  0.00    +0.000 C 
BRANCH  21  22
ATOM     22  O   UNL     1       2.720   4.996  18.893  0.00  0.00    +0.000 OA
BRANCH  22  23
ATOM     23  C   UNL     1       2.427   6.099  18.043  0.00  0.00    +0.000 C 
BRANCH  23  24
ATOM     24  C   UNL     1       2.580   7.399  18.829  0.00  0.00    +0.000 C 
BRANCH  24  25
ATOM     25  O   UNL     1       1.523   8.288  18.466  0.00  0.00    +0.000 OA
BRANCH  25  26
ATOM     26  C   UNL     1       2.019   9.486  17.867  0.00  0.00    +0.000 C 
BRANCH  26  27
ATOM     27  C   UNL     1       1.442  10.685  18.598  0.00  0.00    +0.000 C 
ATOM     28  F   UNL     1       1.109  10.323  19.865  0.00  0.00    +0.000 F 
ENDBRANCH  26  27
ENDBRANCH  25  26
ENDBRANCH  24  25
ENDBRANCH  23  24
ENDBRANCH  22  23
ENDBRANCH  21  22
ENDBRANCH  20  21
ENDBRANCH  19  20
ENDBRANCH   4  19
TORSDOF 12
ENDMDL
