MODEL 1
REMARK VINA RESULT:      -7.5      0.000      0.000
REMARK  Name = 
REMARK  2 active torsions:
REMARK  status: ('A' for Active; 'I' for Inactive)
REMARK    1  A    between atoms: N_10  and  C_11
REMARK    2  A    between atoms: C_11  and  C_12
REMARK                            x       y       z     vdW  Elec       q    Type
REMARK                         _______ _______ _______ _____ _____    ______ ____
ROOT
ATOM      1  O   UNL     1       3.551   5.378  16.886  0.00  0.00    +0.000 OA
ATOM      2  C   UNL     1       4.548   5.054  17.504  0.00  0.00    +0.000 A 
ATOM      3  C   UNL     1       5.732   5.887  17.691  0.00  0.00    +0.000 A 
ATOM      4  C   UNL     1       6.016   7.161  17.230  0.00  0.00    +0.000 A 
ATOM      5  C   UNL     1       7.235   7.715  17.621  0.00  0.00    +0.000 A 
ATOM      6  C   UNL     1       8.113   7.000  18.457  0.00  0.00    +0.000 A 
ATOM      7  C   UNL     1       7.793   5.709  18.904  0.00  0.00    +0.000 A 
ATOM      8  C   UNL     1       6.593   5.155  18.504  0.00  0.00    +0.000 A 
ATOM      9  N   UNL     1       6.099   3.865  18.812  0.00  0.00    +0.000 N 
ATOM     10  N   UNL     1       4.807   3.881  18.189  0.00  0.00    +0.000 N 
ATOM     11  H   UNL     1       6.038   3.752  19.827  0.00  0.00    +0.000 HD
ENDROOT
BRANCH  10  12
ATOM     12  C   UNL     1       3.935   2.723  18.277  0.00  0.00    +0.000 C 
BRANCH  12  13
ATOM     13  C   UNL     1       3.014   2.809  19.461  0.00  0.00    +0.000 A 
ATOM     14  C   UNL     1       1.697   3.267  19.334  0.00  0.00    +0.000 A 
ATOM     15  C   UNL     1       0.903   3.411  20.467  0.00  0.00    +0.000 A 
ATOM     16  C   UNL     1       1.446   3.074  21.694  0.00  0.00    +0.000 A 
ATOM     17  N   UNL     1       2.696   2.589  21.854  0.00  0.00    +0.000 NA
ATOM     18  C   UNL     1       3.447   2.462  20.736  0.00  0.00    +0.000 A 
ENDBRANCH  12  13
ENDBRANCH  10  12
TORSDOF 2
ENDMDL
MODEL 2
REMARK VINA RESULT:      -7.4      2.196      5.772
REMARK  Name = 
REMARK  2 active torsions:
REMARK  status: ('A' for Active; 'I' for Inactive)
REMARK    1  A    between atoms: N_10  and  C_11
REMARK    2  A    between atoms: C_11  and  C_12
REMARK                            x       y       z     vdW  Elec       q    Type
REMARK                         _______ _______ _______ _____ _____    ______ ____
ROOT
ATOM      1  O   UNL     1       4.126   6.417  18.246  0.00  0.00    +0.000 OA
ATOM      2  C   UNL     1       4.208   5.312  18.752  0.00  0.00    +0.000 A 
ATOM      3  C   UNL     1       3.131   4.628  19.462  0.00  0.00    +0.000 A 
ATOM      4  C   UNL     1       1.840   5.037  19.743  0.00  0.00    +0.000 A 
ATOM      5  C   UNL     1       1.021   4.126  20.411  0.00  0.00    +0.000 A 
ATOM      6  C   UNL     1       1.505   2.851  20.761  0.00  0.00    +0.000 A 
ATOM      7  C   UNL     1       2.821   2.471  20.460  0.00  0.00    +0.000 A 
ATOM      8  C   UNL     1       3.635   3.379  19.813  0.00  0.00    +0.000 A 
ATOM      9  N   UNL     1       4.993   3.209  19.452  0.00  0.00    +0.000 N 
ATOM     10  N   UNL     1       5.277   4.436  18.763  0.00  0.00    +0.000 N 
ATOM     11  H   UNL     1       5.089   2.393  18.843  0.00  0.00    +0.000 HD
ENDROOT
BRANCH  10  12
ATOM     12  C   UNL     1       6.594   4.674  18.201  0.00  0.00    +0.000 C 
BRANCH  12  13
ATOM     13  C   UNL     1       6.567   4.673  16.699  0.00  0.00    +0.000 A 
ATOM     14  C   UNL     1       5.717   3.823  15.982  0.00  0.00    +0.000 A 
ATOM     15  C   UNL     1       5.782   3.791  14.592  0.00  0.00    +0.000 A 
ATOM     16  C   UNL     1       6.685   4.628  13.960  0.00  0.00    +0.000 A 
ATOM     17  N   UNL     1       7.491   5.493  14.614  0.00  0.00    +0.000 NA
ATOM     18  C   UNL     1       7.410   5.499  15.964  0.00  0.00    +0.000 A 
ENDBRANCH  12  13
ENDBRANCH  10  12
TORSDOF 2
ENDMDL
MODEL 3
REMARK VINA RESULT:      -7.3      1.408      5.722
REMARK  Name = 
REMARK  2 active torsions:
REMARK  status: ('A' for Active; 'I' for Inactive)
REMARK    1  A    between atoms: N_10  and  C_11
REMARK    2  A    between atoms: C_11  and  C_12
REMARK                            x       y       z     vdW  Elec       q    Type
REMARK                         _______ _______ _______ _____ _____    ______ ____
ROOT
ATOM      1  O   UNL     1       3.080   5.344  17.387  0.00  0.00    +0.000 OA
ATOM      2  C   UNL     1       3.533   4.535  18.176  0.00  0.00    +0.000 A 
ATOM      3  C   UNL     1       2.838   4.026  19.354  0.00  0.00    +0.000 A 
ATOM      4  C   UNL     1       1.584   4.326  19.857  0.00  0.00    +0.000 A 
ATOM      5  C   UNL     1       1.178   3.630  20.995  0.00  0.00    +0.000 A 
ATOM      6  C   UNL     1       2.016   2.662  21.580  0.00  0.00    +0.000 A 
ATOM      7  C   UNL     1       3.282   2.384  21.044  0.00  0.00    +0.000 A 
ATOM      8  C   UNL     1       3.689   3.085  19.926  0.00  0.00    +0.000 A 
ATOM      9  N   UNL     1       4.932   2.983  19.255  0.00  0.00    +0.000 N 
ATOM     10  N   UNL     1       4.753   3.885  18.154  0.00  0.00    +0.000 N 
ATOM     11  H   UNL     1       5.078   2.019  18.945  0.00  0.00    +0.000 HD
ENDROOT
BRANCH  10  12
ATOM     12  C   UNL     1       5.815   4.075  17.182  0.00  0.00    +0.000 C 
BRANCH  12  13
ATOM     13  C   UNL     1       6.593   5.333  17.447  0.00  0.00    +0.000 A 
ATOM     14  C   UNL     1       7.475   5.436  18.529  0.00  0.00    +0.000 A 
ATOM     15  C   UNL     1       8.113   6.645  18.790  0.00  0.00    +0.000 A 
ATOM     16  C   UNL     1       7.861   7.712  17.945  0.00  0.00    +0.000 A 
ATOM     17  N   UNL     1       7.051   7.642  16.867  0.00  0.00    +0.000 NA
ATOM     18  C   UNL     1       6.442   6.455  16.640  0.00  0.00    +0.000 A 
ENDBRANCH  12  13
ENDBRANCH  10  12
TORSDOF 2
ENDMDL
MODEL 4
REMARK VINA RESULT:      -7.2      2.185      5.994
REMARK  Name = 
REMARK  2 active torsions:
REMARK  status: ('A' for Active; 'I' for Inactive)
REMARK    1  A    between atoms: N_10  and  C_11
REMARK    2  A    between atoms: C_11  and  C_12
REMARK                            x       y       z     vdW  Elec       q    Type
REMARK                         _______ _______ _______ _____ _____    ______ ____
ROOT
ATOM      1  O   UNL     1       5.769   4.244  19.320  0.00  0.00    +0.000 OA
ATOM      2  C   UNL     1       4.596   4.547  19.199  0.00  0.00    +0.000 A 
ATOM      3  C   UNL     1       3.479   3.873  19.854  0.00  0.00    +0.000 A 
ATOM      4  C   UNL     1       3.464   2.780  20.703  0.00  0.00    +0.000 A 
ATOM      5  C   UNL     1       2.222   2.393  21.209  0.00  0.00    +0.000 A 
ATOM      6  C   UNL     1       1.056   3.103  20.867  0.00  0.00    +0.000 A 
ATOM      7  C   UNL     1       1.110   4.206  20.002  0.00  0.00    +0.000 A 
ATOM      8  C   UNL     1       2.337   4.580  19.490  0.00  0.00    +0.000 A 
ATOM      9  N   UNL     1       2.603   5.631  18.581  0.00  0.00    +0.000 N 
ATOM     10  N   UNL     1       4.033   5.579  18.471  0.00  0.00    +0.000 N 
ATOM     11  H   UNL     1       2.278   6.518  18.975  0.00  0.00    +0.000 HD
ENDROOT
BRANCH  10  12
ATOM     12  C   UNL     1       4.739   6.523  17.623  0.00  0.00    +0.000 C 
BRANCH  12  13
ATOM     13  C   UNL     1       5.482   5.829  16.517  0.00  0.00    +0.000 A 
ATOM     14  C   UNL     1       4.832   4.968  15.624  0.00  0.00    +0.000 A 
ATOM     15  C   UNL     1       5.570   4.279  14.667  0.00  0.00    +0.000 A 
ATOM     16  C   UNL     1       6.938   4.488  14.620  0.00  0.00    +0.000 A 
ATOM     17  N   UNL     1       7.595   5.341  15.435  0.00  0.00    +0.000 NA
ATOM     18  C   UNL     1       6.853   5.994  16.358  0.00  0.00    +0.000 A 
ENDBRANCH  12  13
ENDBRANCH  10  12
TORSDOF 2
ENDMDL
MODEL 5
REMARK VINA RESULT:      -7.1      1.462      1.973
REMARK  Name = 
REMARK  2 active torsions:
REMARK  status: ('A' for Active; 'I' for Inactive)
REMARK    1  A    between atoms: N_10  and  C_11
REMARK    2  A    between atoms: C_11  and  C_12
REMARK                            x       y       z     vdW  Elec       q    Type
REMARK                         _______ _______ _______ _____ _____    ______ ____
ROOT
ATOM      1  O   UNL     1       5.521   3.451  19.345  0.00  0.00    +0.000 OA
ATOM      2  C   UNL     1       5.405   4.379  18.566  0.00  0.00    +0.000 A 
ATOM      3  C   UNL     1       6.338   5.494  18.438  0.00  0.00    +0.000 A 
ATOM      4  C   UNL     1       7.501   5.776  19.132  0.00  0.00    +0.000 A 
ATOM      5  C   UNL     1       8.208   6.913  18.742  0.00  0.00    +0.000 A 
ATOM      6  C   UNL     1       7.748   7.714  17.679  0.00  0.00    +0.000 A 
ATOM      7  C   UNL     1       6.563   7.398  16.998  0.00  0.00    +0.000 A 
ATOM      8  C   UNL     1       5.855   6.280  17.395  0.00  0.00    +0.000 A 
ATOM      9  N   UNL     1       4.629   5.809  16.869  0.00  0.00    +0.000 N 
ATOM     10  N   UNL     1       4.424   4.602  17.617  0.00  0.00    +0.000 N 
ATOM     11  H   UNL     1       4.730   5.630  15.866  0.00  0.00    +0.000 HD
ENDROOT
BRANCH  10  12
ATOM     12  C   UNL     1       3.254   3.778  17.374  0.00  0.00    +0.000 C 
BRANCH  12  13
ATOM     13  C   UNL     1       2.441   3.583  18.623  0.00  0.00    +0.000 A 
ATOM     14  C   UNL     1       1.874   4.666  19.304  0.00  0.00    +0.000 A 
ATOM     15  C   UNL     1       1.199   4.453  20.502  0.00  0.00    +0.000 A 
ATOM     16  C   UNL     1       1.097   3.156  20.973  0.00  0.00    +0.000 A 
ATOM     17  N   UNL     1       1.593   2.081  20.324  0.00  0.00    +0.000 NA
ATOM     18  C   UNL     1       2.247   2.318  19.164  0.00  0.00    +0.000 A 
ENDBRANCH  12  13
ENDBRANCH  10  12
TORSDOF 2
ENDMDL
MODEL 6
REMARK VINA RESULT:      -7.0      1.676      5.799
REMARK  Name = 
REMARK  2 active torsions:
REMARK  status: ('A' for Active; 'I' for Inactive)
REMARK    1  A    between atoms: N_10  and  C_11
REMARK    2  A    between atoms: C_11  and  C_12
REMARK                            x       y       z     vdW  Elec       q    Type
REMARK                         _______ _______ _______ _____ _____    ______ ____
ROOT
ATOM      1  O   UNL     1       3.457   6.271  17.566  0.00  0.00    +0.000 OA
ATOM      2  C   UNL     1       3.605   5.069  17.691  0.00  0.00    +0.000 A 
ATOM      3  C   UNL     1       2.726   4.185  18.449  0.00  0.00    +0.000 A 
ATOM      4  C   UNL     1       1.590   4.467  19.187  0.00  0.00    +0.000 A 
ATOM      5  C   UNL     1       0.932   3.383  19.770  0.00  0.00    +0.000 A 
ATOM      6  C   UNL     1       1.412   2.072  19.591  0.00  0.00    +0.000 A 
ATOM      7  C   UNL     1       2.569   1.824  18.837  0.00  0.00    +0.000 A 
ATOM      8  C   UNL     1       3.228   2.899  18.273  0.00  0.00    +0.000 A 
ATOM      9  N   UNL     1       4.421   2.870  17.512  0.00  0.00    +0.000 N 
ATOM     10  N   UNL     1       4.580   4.250  17.150  0.00  0.00    +0.000 N 
ATOM     11  H   UNL     1       4.294   2.268  16.694  0.00  0.00    +0.000 HD
ENDROOT
BRANCH  10  12
ATOM     12  C   UNL     1       5.704   4.669  16.333  0.00  0.00    +0.000 C 
BRANCH  12  13
ATOM     13  C   UNL     1       6.629   5.583  17.086  0.00  0.00    +0.000 A 
ATOM     14  C   UNL     1       7.237   5.187  18.283  0.00  0.00    +0.000 A 
ATOM     15  C   UNL     1       8.020   6.091  18.994  0.00  0.00    +0.000 A 
ATOM     16  C   UNL     1       8.186   7.363  18.473  0.00  0.00    +0.000 A 
ATOM     17  N   UNL     1       7.651   7.770  17.301  0.00  0.00    +0.000 NA
ATOM     18  C   UNL     1       6.892   6.871  16.634  0.00  0.00    +0.000 A 
ENDBRANCH  12  13
ENDBRANCH  10  12
TORSDOF 2
ENDMDL
MODEL 7
REMARK VINA RESULT:      -7.0      2.384      5.927
REMARK  Name = 
REMARK  2 active torsions:
REMARK  status: ('A' for Active; 'I' for Inactive)
REMARK    1  A    between atoms: N_10  and  C_11
REMARK    2  A    between atoms: C_11  and  C_12
REMARK                            x       y       z     vdW  Elec       q    Type
REMARK                         _______ _______ _______ _____ _____    ______ ____
ROOT
ATOM      1  O   UNL     1       5.184   2.113  19.637  0.00  0.00    +0.000 OA
ATOM      2  C   UNL     1       4.636   3.194  19.523  0.00  0.00    +0.000 A 
ATOM      3  C   UNL     1       3.259   3.486  19.908  0.00  0.00    +0.000 A 
ATOM      4  C   UNL     1       2.283   2.664  20.442  0.00  0.00    +0.000 A 
ATOM      5  C   UNL     1       1.058   3.256  20.748  0.00  0.00    +0.000 A 
ATOM      6  C   UNL     1       0.852   4.632  20.528  0.00  0.00    +0.000 A 
ATOM      7  C   UNL     1       1.865   5.435  19.983  0.00  0.00    +0.000 A 
ATOM      8  C   UNL     1       3.072   4.844  19.666  0.00  0.00    +0.000 A 
ATOM      9  N   UNL     1       4.202   5.462  19.080  0.00  0.00    +0.000 N 
ATOM     10  N   UNL     1       5.153   4.388  19.053  0.00  0.00    +0.000 N 
ATOM     11  H   UNL     1       4.514   6.240  19.668  0.00  0.00    +0.000 HD
ENDROOT
BRANCH  10  12
ATOM     12  C   UNL     1       6.488   4.603  18.526  0.00  0.00    +0.000 C 
BRANCH  12  13
ATOM     13  C   UNL     1       6.496   4.626  17.024  0.00  0.00    +0.000 A 
ATOM     14  C   UNL     1       5.732   3.725  16.272  0.00  0.00    +0.000 A 
ATOM     15  C   UNL     1       5.832   3.723  14.884  0.00  0.00    +0.000 A 
ATOM     16  C   UNL     1       6.682   4.638  14.288  0.00  0.00    +0.000 A 
ATOM     17  N   UNL     1       7.403   5.550  14.975  0.00  0.00    +0.000 NA
ATOM     18  C   UNL     1       7.289   5.527  16.322  0.00  0.00    +0.000 A 
ENDBRANCH  12  13
ENDBRANCH  10  12
TORSDOF 2
ENDMDL
MODEL 8
REMARK VINA RESULT:      -6.9      2.291      6.042
REMARK  Name = 
REMARK  2 active torsions:
REMARK  status: ('A' for Active; 'I' for Inactive)
REMARK    1  A    between atoms: N_10  and  C_11
REMARK    2  A    between atoms: C_11  and  C_12
REMARK                            x       y       z     vdW  Elec       q    Type
REMARK                         _______ _______ _______ _____ _____    ______ ____
ROOT
ATOM      1  O   UNL     1       2.713   7.023  19.835  0.00  0.00    +0.000 OA
ATOM      2  C   UNL     1       2.741   6.021  19.144  0.00  0.00    +0.000 A 
ATOM      3  C   UNL     1       2.032   4.778  19.433  0.00  0.00    +0.000 A 
ATOM      4  C   UNL     1       1.221   4.434  20.499  0.00  0.00    +0.000 A 
ATOM      5  C   UNL     1       0.643   3.165  20.468  0.00  0.00    +0.000 A 
ATOM      6  C   UNL     1       0.877   2.297  19.385  0.00  0.00    +0.000 A 
ATOM      7  C   UNL     1       1.706   2.679  18.320  0.00  0.00    +0.000 A 
ATOM      8  C   UNL     1       2.290   3.930  18.359  0.00  0.00    +0.000 A 
ATOM      9  N   UNL     1       3.180   4.491  17.412  0.00  0.00    +0.000 N 
ATOM     10  N   UNL     1       3.392   5.808  17.943  0.00  0.00    +0.000 N 
ATOM     11  H   UNL     1       2.735   4.513  16.491  0.00  0.00    +0.000 HD
ENDROOT
BRANCH  10  12
ATOM     12  C   UNL     1       4.255   6.747  17.250  0.00  0.00    +0.000 C 
BRANCH  12  13
ATOM     13  C   UNL     1       5.381   6.050  16.540  0.00  0.00    +0.000 A 
ATOM     14  C   UNL     1       5.323   5.774  15.168  0.00  0.00    +0.000 A 
ATOM     15  C   UNL     1       6.347   5.051  14.564  0.00  0.00    +0.000 A 
ATOM     16  C   UNL     1       7.410   4.642  15.350  0.00  0.00    +0.000 A 
ATOM     17  N   UNL     1       7.524   4.925  16.665  0.00  0.00    +0.000 NA
ATOM     18  C   UNL     1       6.512   5.625  17.227  0.00  0.00    +0.000 A 
ENDBRANCH  12  13
ENDBRANCH  10  12
TORSDOF 2
ENDMDL
MODEL 9
REMARK VINA RESULT:      -6.8      3.237      6.488
REMARK  Name = 
REMARK  2 active torsions:
REMARK  status: ('A' for Active; 'I' for Inactive)
REMARK    1  A    between atoms: N_10  and  C_11
REMARK    2  A    between atoms: C_11  and  C_12
REMARK                            x       y       z     vdW  Elec       q    Type
REMARK                         _______ _______ _______ _____ _____    ______ ____
ROOT
ATOM      1  O   UNL     1       4.297   6.567  16.856  0.00  0.00    +0.000 OA
ATOM      2  C   UNL     1       4.350   5.358  16.990  0.00  0.00    +0.000 A 
ATOM      3  C   UNL     1       3.283   4.522  17.533  0.00  0.00    +0.000 A 
ATOM      4  C   UNL     1       2.034   4.865  18.020  0.00  0.00    +0.000 A 
ATOM      5  C   UNL     1       1.210   3.819  18.435  0.00  0.00    +0.000 A 
ATOM      6  C   UNL     1       1.646   2.483  18.340  0.00  0.00    +0.000 A 
ATOM      7  C   UNL     1       2.920   2.173  17.842  0.00  0.00    +0.000 A 
ATOM      8  C   UNL     1       3.740   3.210  17.446  0.00  0.00    +0.000 A 
ATOM      9  N   UNL     1       5.064   3.117  16.953  0.00  0.00    +0.000 N 
ATOM     10  N   UNL     1       5.370   4.487  16.654  0.00  0.00    +0.000 N 
ATOM     11  H   UNL     1       5.080   2.527  16.117  0.00  0.00    +0.000 HD
ENDROOT
BRANCH  10  12
ATOM     12  C   UNL     1       6.662   4.845  16.097  0.00  0.00    +0.000 C 
BRANCH  12  13
ATOM     13  C   UNL     1       6.702   4.644  14.609  0.00  0.00    +0.000 A 
ATOM     14  C   UNL     1       5.789   3.806  13.958  0.00  0.00    +0.000 A 
ATOM     15  C   UNL     1       5.912   3.580  12.590  0.00  0.00    +0.000 A 
ATOM     16  C   UNL     1       6.936   4.216  11.911  0.00  0.00    +0.000 A 
ATOM     17  N   UNL     1       7.810   5.064  12.495  0.00  0.00    +0.000 NA
ATOM     18  C   UNL     1       7.669   5.263  13.825  0.00  0.00    +0.000 A 
ENDBRANCH  12  13
ENDBRANCH  10  12
TORSDOF 2
ENDMDL
