MODEL 1
REMARK VINA RESULT:      -8.0      0.000      0.000
REMARK  Name = 
REMARK  9 active torsions:
REMARK  status: ('A' for Active; 'I' for Inactive)
REMARK    1  A    between atoms: C_1  and  C_2
REMARK    2  A    between atoms: C_2  and  C_3
REMARK    3  A    between atoms: C_3  and  C_4
REMARK    4  A    between atoms: C_4  and  N_5
REMARK    5  A    between atoms: C_14  and  C_15
REMARK    6  A    between atoms: N_17  and  C_18
REMARK    7  A    between atoms: C_18  and  C_19
REMARK    8  A    between atoms: C_19  and  O_20
REMARK    9  A    between atoms: C_22  and  C_23
REMARK                            x       y       z     vdW  Elec       q    Type
REMARK                         _______ _______ _______ _____ _____    ______ ____
ROOT
ATOM      1  N   UNK     1       2.893   5.791  19.533  0.00  0.00    +0.000 N 
ATOM      2  C   UNK     1       2.398   7.052  19.218  0.00  0.00    +0.000 A 
ATOM      3  C   UNK     1       1.429   7.875  19.835  0.00  0.00    +0.000 A 
ATOM      4  C   UNK     1       1.201   9.156  19.316  0.00  0.00    +0.000 A 
ATOM      5  C   UNK     1       1.895   9.609  18.202  0.00  0.00    +0.000 A 
ATOM      6  C   UNK     1       2.813   8.774  17.564  0.00  0.00    +0.000 A 
ATOM      7  C   UNK     1       3.063   7.482  18.074  0.00  0.00    +0.000 A 
ATOM      8  C   UNK     1       3.897   6.407  17.642  0.00  0.00    +0.000 A 
ATOM      9  C   UNK     1       4.737   6.277  16.529  0.00  0.00    +0.000 A 
ATOM     10  C   UNK     1       5.406   5.087  16.380  0.00  0.00    +0.000 A 
ATOM     11  N   UNK     1       5.304   4.046  17.236  0.00  0.00    +0.000 NA
ATOM     12  C   UNK     1       4.479   4.126  18.328  0.00  0.00    +0.000 A 
ATOM     13  C   UNK     1       4.447   2.882  19.161  0.00  0.00    +0.000 C 
ATOM     14  C   UNK     1       3.770   5.338  18.545  0.00  0.00    +0.000 A 
ENDROOT
BRANCH  10  15
ATOM     15  C   UNK     1       6.293   4.906  15.184  0.00  0.00    +0.000 C 
ATOM     16  O   UNK     1       7.364   5.502  15.095  0.00  0.00    +0.000 OA
ATOM     17  N   UNK     1       5.832   4.047  14.201  0.00  0.00    +0.000 N 
ATOM     18  H   UNK     1       4.934   3.607  14.357  0.00  0.00    +0.000 HD
BRANCH  17  19
ATOM     19  C   UNK     1       6.567   3.850  12.962  0.00  0.00    +0.000 C 
BRANCH  19  20
ATOM     20  C   UNK     1       5.806   2.964  11.976  0.00  0.00    +0.000 C 
BRANCH  20  21
ATOM     21  O   UNK     1       6.628   1.875  11.557  0.00  0.00    +0.000 OA
ATOM     22  H   UNK     1       6.558   1.206  12.262  0.00  0.00    +0.000 HD
ENDBRANCH  20  21
ENDBRANCH  19  20
ENDBRANCH  17  19
ENDBRANCH  10  15
BRANCH   1  23
ATOM     23  C   UNK     1       2.490   5.070  20.733  0.00  0.00    +0.000 C 
BRANCH  23  24
ATOM     24  C   UNK     1       1.138   4.357  20.676  0.00  0.00    +0.000 C 
BRANCH  24  26
ATOM     25  C   UNK     1       0.803   2.620  18.922  0.00  0.00    +0.000 C 
ATOM     26  C   UNK     1       1.180   2.862  20.380  0.00  0.00    +0.000 C 
ENDBRANCH  24  26
ENDBRANCH  23  24
ENDBRANCH   1  23
TORSDOF 7
ENDMDL
MODEL 2
REMARK VINA RESULT:      -7.7      3.219      6.485
REMARK  Name = 
REMARK  9 active torsions:
REMARK  status: ('A' for Active; 'I' for Inactive)
REMARK    1  A    between atoms: C_1  and  C_2
REMARK    2  A    between atoms: C_2  and  C_3
REMARK    3  A    between atoms: C_3  and  C_4
REMARK    4  A    between atoms: C_4  and  N_5
REMARK    5  A    between atoms: C_14  and  C_15
REMARK    6  A    between atoms: N_17  and  C_18
REMARK    7  A    between atoms: C_18  and  C_19
REMARK    8  A    between atoms: C_19  and  O_20
REMARK    9  A    between atoms: C_22  and  C_23
REMARK                            x       y       z     vdW  Elec       q    Type
REMARK                         _______ _______ _______ _____ _____    ______ ____
ROOT
ATOM      1  N   UNK     1       4.240   4.310  18.399  0.00  0.00    +0.000 N 
ATOM      2  C   UNK     1       5.003   4.507  17.253  0.00  0.00    +0.000 A 
ATOM      3  C   UNK     1       5.965   3.703  16.601  0.00  0.00    +0.000 A 
ATOM      4  C   UNK     1       6.514   4.151  15.393  0.00  0.00    +0.000 A 
ATOM      5  C   UNK     1       6.140   5.373  14.849  0.00  0.00    +0.000 A 
ATOM      6  C   UNK     1       5.230   6.188  15.523  0.00  0.00    +0.000 A 
ATOM      7  C   UNK     1       4.659   5.753  16.738  0.00  0.00    +0.000 A 
ATOM      8  C   UNK     1       3.747   6.352  17.657  0.00  0.00    +0.000 A 
ATOM      9  C   UNK     1       3.129   7.610  17.661  0.00  0.00    +0.000 A 
ATOM     10  C   UNK     1       2.300   7.900  18.718  0.00  0.00    +0.000 A 
ATOM     11  N   UNK     1       2.047   7.054  19.741  0.00  0.00    +0.000 NA
ATOM     12  C   UNK     1       2.646   5.822  19.783  0.00  0.00    +0.000 A 
ATOM     13  C   UNK     1       2.294   5.015  20.995  0.00  0.00    +0.000 C 
ATOM     14  C   UNK     1       3.504   5.456  18.711  0.00  0.00    +0.000 A 
ENDROOT
BRANCH  10  15
ATOM     15  C   UNK     1       1.644   9.249  18.765  0.00  0.00    +0.000 C 
ATOM     16  O   UNK     1       1.915  10.113  17.934  0.00  0.00    +0.000 OA
ATOM     17  N   UNK     1       0.737   9.456  19.789  0.00  0.00    +0.000 N 
ATOM     18  H   UNK     1       0.584   8.689  20.431  0.00  0.00    +0.000 HD
BRANCH  17  19
ATOM     19  C   UNK     1       0.095  10.746  19.984  0.00  0.00    +0.000 C 
BRANCH  19  20
ATOM     20  C   UNK     1      -1.130  10.921  19.086  0.00  0.00    +0.000 C 
BRANCH  20  21
ATOM     21  O   UNK     1      -0.774  11.628  17.898  0.00  0.00    +0.000 OA
ATOM     22  H   UNK     1      -0.003  12.173  18.139  0.00  0.00    +0.000 HD
ENDBRANCH  20  21
ENDBRANCH  19  20
ENDBRANCH  17  19
ENDBRANCH  10  15
BRANCH   1  23
ATOM     23  C   UNK     1       4.268   3.064  19.153  0.00  0.00    +0.000 C 
BRANCH  23  24
ATOM     24  C   UNK     1       3.435   1.911  18.592  0.00  0.00    +0.000 C 
BRANCH  24  26
ATOM     25  C   UNK     1       0.994   2.371  18.773  0.00  0.00    +0.000 C 
ATOM     26  C   UNK     1       2.182   2.303  17.818  0.00  0.00    +0.000 C 
ENDBRANCH  24  26
ENDBRANCH  23  24
ENDBRANCH   1  23
TORSDOF 7
ENDMDL
MODEL 3
REMARK VINA RESULT:      -7.6      3.487      6.281
REMARK  Name = 
REMARK  9 active torsions:
REMARK  status: ('A' for Active; 'I' for Inactive)
REMARK    1  A    between atoms: C_1  and  C_2
REMARK    2  A    between atoms: C_2  and  C_3
REMARK    3  A    between atoms: C_3  and  C_4
REMARK    4  A    between atoms: C_4  and  N_5
REMARK    5  A    between atoms: C_14  and  C_15
REMARK    6  A    between atoms: N_17  and  C_18
REMARK    7  A    between atoms: C_18  and  C_19
REMARK    8  A    between atoms: C_19  and  O_20
REMARK    9  A    between atoms: C_22  and  C_23
REMARK                            x       y       z     vdW  Elec       q    Type
REMARK                         _______ _______ _______ _____ _____    ______ ____
ROOT
ATOM      1  N   UNK     1       4.197   4.231  18.538  0.00  0.00    +0.000 N 
ATOM      2  C   UNK     1       4.895   4.609  17.396  0.00  0.00    +0.000 A 
ATOM      3  C   UNK     1       5.865   3.946  16.611  0.00  0.00    +0.000 A 
ATOM      4  C   UNK     1       6.333   4.570  15.447  0.00  0.00    +0.000 A 
ATOM      5  C   UNK     1       5.872   5.826  15.075  0.00  0.00    +0.000 A 
ATOM      6  C   UNK     1       4.953   6.499  15.881  0.00  0.00    +0.000 A 
ATOM      7  C   UNK     1       4.464   5.887  17.055  0.00  0.00    +0.000 A 
ATOM      8  C   UNK     1       3.565   6.317  18.077  0.00  0.00    +0.000 A 
ATOM      9  C   UNK     1       2.885   7.527  18.262  0.00  0.00    +0.000 A 
ATOM     10  C   UNK     1       2.092   7.639  19.379  0.00  0.00    +0.000 A 
ATOM     11  N   UNK     1       1.931   6.661  20.298  0.00  0.00    +0.000 NA
ATOM     12  C   UNK     1       2.595   5.469  20.163  0.00  0.00    +0.000 A 
ATOM     13  C   UNK     1       2.342   4.501  21.278  0.00  0.00    +0.000 C 
ATOM     14  C   UNK     1       3.419   5.286  19.020  0.00  0.00    +0.000 A 
ENDROOT
BRANCH  10  15
ATOM     15  C   UNK     1       1.371   8.932  19.621  0.00  0.00    +0.000 C 
ATOM     16  O   UNK     1       0.656   9.082  20.609  0.00  0.00    +0.000 OA
ATOM     17  N   UNK     1       1.552   9.923  18.673  0.00  0.00    +0.000 N 
ATOM     18  H   UNK     1       2.152   9.706  17.887  0.00  0.00    +0.000 HD
BRANCH  17  19
ATOM     19  C   UNK     1       0.846  11.192  18.757  0.00  0.00    +0.000 C 
BRANCH  19  20
ATOM     20  C   UNK     1       1.774  12.384  18.533  0.00  0.00    +0.000 C 
BRANCH  20  21
ATOM     21  O   UNK     1       2.632  12.138  17.418  0.00  0.00    +0.000 OA
ATOM     22  H   UNK     1       2.570  12.934  16.859  0.00  0.00    +0.000 HD
ENDBRANCH  20  21
ENDBRANCH  19  20
ENDBRANCH  17  19
ENDBRANCH  10  15
BRANCH   1  23
ATOM     23  C   UNK     1       4.325   2.905  19.130  0.00  0.00    +0.000 C 
BRANCH  23  24
ATOM     24  C   UNK     1       3.261   1.880  18.735  0.00  0.00    +0.000 C 
BRANCH  24  26
ATOM     25  C   UNK     1       0.812   2.339  18.734  0.00  0.00    +0.000 C 
ATOM     26  C   UNK     1       2.094   2.408  17.909  0.00  0.00    +0.000 C 
ENDBRANCH  24  26
ENDBRANCH  23  24
ENDBRANCH   1  23
TORSDOF 7
ENDMDL
MODEL 4
REMARK VINA RESULT:      -7.5      3.253      6.722
REMARK  Name = 
REMARK  9 active torsions:
REMARK  status: ('A' for Active; 'I' for Inactive)
REMARK    1  A    between atoms: C_1  and  C_2
REMARK    2  A    between atoms: C_2  and  C_3
REMARK    3  A    between atoms: C_3  and  C_4
REMARK    4  A    between atoms: C_4  and  N_5
REMARK    5  A    between atoms: C_14  and  C_15
REMARK    6  A    between atoms: N_17  and  C_18
REMARK    7  A    between atoms: C_18  and  C_19
REMARK    8  A    between atoms: C_19  and  O_20
REMARK    9  A    between atoms: C_22  and  C_23
REMARK                            x       y       z     vdW  Elec       q    Type
REMARK                         _______ _______ _______ _____ _____    ______ ____
ROOT
ATOM      1  N   UNK     1       4.271   4.245  18.464  0.00  0.00    +0.000 N 
ATOM      2  C   UNK     1       5.009   4.495  17.312  0.00  0.00    +0.000 A 
ATOM      3  C   UNK     1       5.981   3.737  16.621  0.00  0.00    +0.000 A 
ATOM      4  C   UNK     1       6.497   4.235  15.418  0.00  0.00    +0.000 A 
ATOM      5  C   UNK     1       6.082   5.461  14.917  0.00  0.00    +0.000 A 
ATOM      6  C   UNK     1       5.162   6.232  15.629  0.00  0.00    +0.000 A 
ATOM      7  C   UNK     1       4.624   5.746  16.840  0.00  0.00    +0.000 A 
ATOM      8  C   UNK     1       3.712   6.293  17.791  0.00  0.00    +0.000 A 
ATOM      9  C   UNK     1       3.061   7.533  17.843  0.00  0.00    +0.000 A 
ATOM     10  C   UNK     1       2.243   7.770  18.921  0.00  0.00    +0.000 A 
ATOM     11  N   UNK     1       2.030   6.888  19.922  0.00  0.00    +0.000 NA
ATOM     12  C   UNK     1       2.662   5.672  19.919  0.00  0.00    +0.000 A 
ATOM     13  C   UNK     1       2.352   4.820  21.111  0.00  0.00    +0.000 C 
ATOM     14  C   UNK     1       3.511   5.361  18.822  0.00  0.00    +0.000 A 
ENDROOT
BRANCH  10  15
ATOM     15  C   UNK     1       1.552   9.099  19.018  0.00  0.00    +0.000 C 
ATOM     16  O   UNK     1       1.530   9.872  18.063  0.00  0.00    +0.000 OA
ATOM     17  N   UNK     1       0.959   9.396  20.233  0.00  0.00    +0.000 N 
ATOM     18  H   UNK     1       1.036   8.702  20.965  0.00  0.00    +0.000 HD
BRANCH  17  19
ATOM     19  C   UNK     1       0.327  10.683  20.473  0.00  0.00    +0.000 C 
BRANCH  19  20
ATOM     20  C   UNK     1      -0.102  10.851  21.930  0.00  0.00    +0.000 C 
BRANCH  20  21
ATOM     21  O   UNK     1       0.584   9.911  22.757  0.00  0.00    +0.000 OA
ATOM     22  H   UNK     1       0.761   9.141  22.188  0.00  0.00    +0.000 HD
ENDBRANCH  20  21
ENDBRANCH  19  20
ENDBRANCH  17  19
ENDBRANCH  10  15
BRANCH   1  23
ATOM     23  C   UNK     1       4.345   2.978  19.181  0.00  0.00    +0.000 C 
BRANCH  23  24
ATOM     24  C   UNK     1       3.302   1.924  18.807  0.00  0.00    +0.000 C 
BRANCH  24  26
ATOM     25  C   UNK     1       0.864   2.419  18.681  0.00  0.00    +0.000 C 
ATOM     26  C   UNK     1       2.172   2.392  17.897  0.00  0.00    +0.000 C 
ENDBRANCH  24  26
ENDBRANCH  23  24
ENDBRANCH   1  23
TORSDOF 7
ENDMDL
MODEL 5
REMARK VINA RESULT:      -7.4      1.123      1.204
REMARK  Name = 
REMARK  9 active torsions:
REMARK  status: ('A' for Active; 'I' for Inactive)
REMARK    1  A    between atoms: C_1  and  C_2
REMARK    2  A    between atoms: C_2  and  C_3
REMARK    3  A    between atoms: C_3  and  C_4
REMARK    4  A    between atoms: C_4  and  N_5
REMARK    5  A    between atoms: C_14  and  C_15
REMARK    6  A    between atoms: N_17  and  C_18
REMARK    7  A    between atoms: C_18  and  C_19
REMARK    8  A    between atoms: C_19  and  O_20
REMARK    9  A    between atoms: C_22  and  C_23
REMARK                            x       y       z     vdW  Elec       q    Type
REMARK                         _______ _______ _______ _____ _____    ______ ____
ROOT
ATOM      1  N   UNK     1       2.899   5.673  19.636  0.00  0.00    +0.000 N 
ATOM      2  C   UNK     1       2.449   6.917  19.208  0.00  0.00    +0.000 A 
ATOM      3  C   UNK     1       1.445   7.785  19.694  0.00  0.00    +0.000 A 
ATOM      4  C   UNK     1       1.279   9.035  19.083  0.00  0.00    +0.000 A 
ATOM      5  C   UNK     1       2.067   9.413  18.005  0.00  0.00    +0.000 A 
ATOM      6  C   UNK     1       3.022   8.533  17.495  0.00  0.00    +0.000 A 
ATOM      7  C   UNK     1       3.212   7.271  18.098  0.00  0.00    +0.000 A 
ATOM      8  C   UNK     1       4.063   6.166  17.801  0.00  0.00    +0.000 A 
ATOM      9  C   UNK     1       4.988   5.962  16.769  0.00  0.00    +0.000 A 
ATOM     10  C   UNK     1       5.650   4.758  16.747  0.00  0.00    +0.000 A 
ATOM     11  N   UNK     1       5.464   3.771  17.651  0.00  0.00    +0.000 NA
ATOM     12  C   UNK     1       4.554   3.924  18.665  0.00  0.00    +0.000 A 
ATOM     13  C   UNK     1       4.437   2.732  19.564  0.00  0.00    +0.000 C 
ATOM     14  C   UNK     1       3.847   5.154  18.751  0.00  0.00    +0.000 A 
ENDROOT
BRANCH  10  15
ATOM     15  C   UNK     1       6.629   4.498  15.639  0.00  0.00    +0.000 C 
ATOM     16  O   UNK     1       7.840   4.557  15.839  0.00  0.00    +0.000 OA
ATOM     17  N   UNK     1       6.090   4.200  14.400  0.00  0.00    +0.000 N 
ATOM     18  H   UNK     1       5.081   4.183  14.328  0.00  0.00    +0.000 HD
BRANCH  17  19
ATOM     19  C   UNK     1       6.936   4.004  13.233  0.00  0.00    +0.000 C 
BRANCH  19  20
ATOM     20  C   UNK     1       7.374   5.330  12.611  0.00  0.00    +0.000 C 
BRANCH  20  21
ATOM     21  O   UNK     1       8.576   5.791  13.228  0.00  0.00    +0.000 OA
ATOM     22  H   UNK     1       8.587   6.756  13.091  0.00  0.00    +0.000 HD
ENDBRANCH  20  21
ENDBRANCH  19  20
ENDBRANCH  17  19
ENDBRANCH  10  15
BRANCH   1  23
ATOM     23  C   UNK     1       2.389   5.028  20.839  0.00  0.00    +0.000 C 
BRANCH  23  24
ATOM     24  C   UNK     1       1.039   4.322  20.712  0.00  0.00    +0.000 C 
BRANCH  24  26
ATOM     25  C   UNK     1       0.833   2.780  18.766  0.00  0.00    +0.000 C 
ATOM     26  C   UNK     1       1.083   2.865  20.269  0.00  0.00    +0.000 C 
ENDBRANCH  24  26
ENDBRANCH  23  24
ENDBRANCH   1  23
TORSDOF 7
ENDMDL
MODEL 6
REMARK VINA RESULT:      -7.4      3.691      6.377
REMARK  Name = 
REMARK  9 active torsions:
REMARK  status: ('A' for Active; 'I' for Inactive)
REMARK    1  A    between atoms: C_1  and  C_2
REMARK    2  A    between atoms: C_2  and  C_3
REMARK    3  A    between atoms: C_3  and  C_4
REMARK    4  A    between atoms: C_4  and  N_5
REMARK    5  A    between atoms: C_14  and  C_15
REMARK    6  A    between atoms: N_17  and  C_18
REMARK    7  A    between atoms: C_18  and  C_19
REMARK    8  A    between atoms: C_19  and  O_20
REMARK    9  A    between atoms: C_22  and  C_23
REMARK                            x       y       z     vdW  Elec       q    Type
REMARK                         _______ _______ _______ _____ _____    ______ ____
ROOT
ATOM      1  N   UNK     1       4.118   4.112  18.693  0.00  0.00    +0.000 N 
ATOM      2  C   UNK     1       4.769   4.616  17.573  0.00  0.00    +0.000 A 
ATOM      3  C   UNK     1       5.724   4.055  16.695  0.00  0.00    +0.000 A 
ATOM      4  C   UNK     1       6.140   4.800  15.584  0.00  0.00    +0.000 A 
ATOM      5  C   UNK     1       5.643   6.076  15.354  0.00  0.00    +0.000 A 
ATOM      6  C   UNK     1       4.741   6.647  16.251  0.00  0.00    +0.000 A 
ATOM      7  C   UNK     1       4.302   5.912  17.374  0.00  0.00    +0.000 A 
ATOM      8  C   UNK     1       3.432   6.219  18.461  0.00  0.00    +0.000 A 
ATOM      9  C   UNK     1       2.736   7.390  18.787  0.00  0.00    +0.000 A 
ATOM     10  C   UNK     1       1.980   7.374  19.935  0.00  0.00    +0.000 A 
ATOM     11  N   UNK     1       1.868   6.307  20.757  0.00  0.00    +0.000 NA
ATOM     12  C   UNK     1       2.548   5.149  20.483  0.00  0.00    +0.000 A 
ATOM     13  C   UNK     1       2.351   4.070  21.504  0.00  0.00    +0.000 C 
ATOM     14  C   UNK     1       3.337   5.097  19.302  0.00  0.00    +0.000 A 
ENDROOT
BRANCH  10  15
ATOM     15  C   UNK     1       1.243   8.621  20.326  0.00  0.00    +0.000 C 
ATOM     16  O   UNK     1       0.979   8.856  21.503  0.00  0.00    +0.000 OA
ATOM     17  N   UNK     1       0.880   9.470  19.295  0.00  0.00    +0.000 N 
ATOM     18  H   UNK     1       1.133   9.189  18.356  0.00  0.00    +0.000 HD
BRANCH  17  19
ATOM     19  C   UNK     1       0.097  10.670  19.541  0.00  0.00    +0.000 C 
BRANCH  19  20
ATOM     20  C   UNK     1      -1.119  10.763  18.620  0.00  0.00    +0.000 C 
BRANCH  20  21
ATOM     21  O   UNK     1      -0.826  10.168  17.356  0.00  0.00    +0.000 OA
ATOM     22  H   UNK     1      -1.278  10.722  16.694  0.00  0.00    +0.000 HD
ENDBRANCH  20  21
ENDBRANCH  19  20
ENDBRANCH  17  19
ENDBRANCH  10  15
BRANCH   1  23
ATOM     23  C   UNK     1       4.290   2.737  19.146  0.00  0.00    +0.000 C 
BRANCH  23  24
ATOM     24  C   UNK     1       3.241   1.730  18.673  0.00  0.00    +0.000 C 
BRANCH  24  26
ATOM     25  C   UNK     1       0.828   2.349  18.663  0.00  0.00    +0.000 C 
ATOM     26  C   UNK     1       2.104   2.292  17.828  0.00  0.00    +0.000 C 
ENDBRANCH  24  26
ENDBRANCH  23  24
ENDBRANCH   1  23
TORSDOF 7
ENDMDL
MODEL 7
REMARK VINA RESULT:      -7.3      3.848      6.655
REMARK  Name = 
REMARK  9 active torsions:
REMARK  status: ('A' for Active; 'I' for Inactive)
REMARK    1  A    between atoms: C_1  and  C_2
REMARK    2  A    between atoms: C_2  and  C_3
REMARK    3  A    between atoms: C_3  and  C_4
REMARK    4  A    between atoms: C_4  and  N_5
REMARK    5  A    between atoms: C_14  and  C_15
REMARK    6  A    between atoms: N_17  and  C_18
REMARK    7  A    between atoms: C_18  and  C_19
REMARK    8  A    between atoms: C_19  and  O_20
REMARK    9  A    between atoms: C_22  and  C_23
REMARK                            x       y       z     vdW  Elec       q    Type
REMARK                         _______ _______ _______ _____ _____    ______ ____
ROOT
ATOM      1  N   UNK     1       4.016   4.154  18.732  0.00  0.00    +0.000 N 
ATOM      2  C   UNK     1       4.674   4.654  17.614  0.00  0.00    +0.000 A 
ATOM      3  C   UNK     1       5.628   4.088  16.739  0.00  0.00    +0.000 A 
ATOM      4  C   UNK     1       6.053   4.831  15.630  0.00  0.00    +0.000 A 
ATOM      5  C   UNK     1       5.566   6.110  15.399  0.00  0.00    +0.000 A 
ATOM      6  C   UNK     1       4.665   6.687  16.294  0.00  0.00    +0.000 A 
ATOM      7  C   UNK     1       4.218   5.954  17.415  0.00  0.00    +0.000 A 
ATOM      8  C   UNK     1       3.346   6.266  18.500  0.00  0.00    +0.000 A 
ATOM      9  C   UNK     1       2.657   7.442  18.825  0.00  0.00    +0.000 A 
ATOM     10  C   UNK     1       1.898   7.430  19.970  0.00  0.00    +0.000 A 
ATOM     11  N   UNK     1       1.776   6.363  20.791  0.00  0.00    +0.000 NA
ATOM     12  C   UNK     1       2.449   5.200  20.518  0.00  0.00    +0.000 A 
ATOM     13  C   UNK     1       2.241   4.122  21.537  0.00  0.00    +0.000 C 
ATOM     14  C   UNK     1       3.240   5.144  19.340  0.00  0.00    +0.000 A 
ENDROOT
BRANCH  10  15
ATOM     15  C   UNK     1       1.169   8.682  20.360  0.00  0.00    +0.000 C 
ATOM     16  O   UNK     1       0.755   8.841  21.507  0.00  0.00    +0.000 OA
ATOM     17  N   UNK     1       0.988   9.624  19.363  0.00  0.00    +0.000 N 
ATOM     18  H   UNK     1       1.355   9.402  18.447  0.00  0.00    +0.000 HD
BRANCH  17  19
ATOM     19  C   UNK     1       0.231  10.843  19.601  0.00  0.00    +0.000 C 
BRANCH  19  20
ATOM     20  C   UNK     1       1.139  12.055  19.802  0.00  0.00    +0.000 C 
BRANCH  20  21
ATOM     21  O   UNK     1       1.528  12.158  21.172  0.00  0.00    +0.000 OA
ATOM     22  H   UNK     1       0.697  12.226  21.676  0.00  0.00    +0.000 HD
ENDBRANCH  20  21
ENDBRANCH  19  20
ENDBRANCH  17  19
ENDBRANCH  10  15
BRANCH   1  23
ATOM     23  C   UNK     1       4.177   2.778  19.184  0.00  0.00    +0.000 C 
BRANCH  23  24
ATOM     24  C   UNK     1       3.401   1.713  18.409  0.00  0.00    +0.000 C 
BRANCH  24  26
ATOM     25  C   UNK     1       0.993   2.286  18.685  0.00  0.00    +0.000 C 
ATOM     26  C   UNK     1       2.145   2.190  17.689  0.00  0.00    +0.000 C 
ENDBRANCH  24  26
ENDBRANCH  23  24
ENDBRANCH   1  23
TORSDOF 7
ENDMDL
MODEL 8
REMARK VINA RESULT:      -7.3      1.356      3.892
REMARK  Name = 
REMARK  9 active torsions:
REMARK  status: ('A' for Active; 'I' for Inactive)
REMARK    1  A    between atoms: C_1  and  C_2
REMARK    2  A    between atoms: C_2  and  C_3
REMARK    3  A    between atoms: C_3  and  C_4
REMARK    4  A    between atoms: C_4  and  N_5
REMARK    5  A    between atoms: C_14  and  C_15
REMARK    6  A    between atoms: N_17  and  C_18
REMARK    7  A    between atoms: C_18  and  C_19
REMARK    8  A    between atoms: C_19  and  O_20
REMARK    9  A    between atoms: C_22  and  C_23
REMARK                            x       y       z     vdW  Elec       q    Type
REMARK                         _______ _______ _______ _____ _____    ______ ____
ROOT
ATOM      1  N   UNK     1       3.569   5.513  18.566  0.00  0.00    +0.000 N 
ATOM      2  C   UNK     1       2.897   4.307  18.733  0.00  0.00    +0.000 A 
ATOM      3  C   UNK     1       2.031   3.833  19.744  0.00  0.00    +0.000 A 
ATOM      4  C   UNK     1       1.433   2.576  19.587  0.00  0.00    +0.000 A 
ATOM      5  C   UNK     1       1.698   1.794  18.470  0.00  0.00    +0.000 A 
ATOM      6  C   UNK     1       2.595   2.243  17.500  0.00  0.00    +0.000 A 
ATOM      7  C   UNK     1       3.203   3.509  17.634  0.00  0.00    +0.000 A 
ATOM      8  C   UNK     1       4.160   4.220  16.850  0.00  0.00    +0.000 A 
ATOM      9  C   UNK     1       4.842   3.868  15.678  0.00  0.00    +0.000 A 
ATOM     10  C   UNK     1       5.731   4.782  15.168  0.00  0.00    +0.000 A 
ATOM     11  N   UNK     1       5.983   5.989  15.722  0.00  0.00    +0.000 NA
ATOM     12  C   UNK     1       5.351   6.364  16.879  0.00  0.00    +0.000 A 
ATOM     13  C   UNK     1       5.760   7.712  17.388  0.00  0.00    +0.000 C 
ATOM     14  C   UNK     1       4.408   5.467  17.449  0.00  0.00    +0.000 A 
ENDROOT
BRANCH  10  15
ATOM     15  C   UNK     1       6.496   4.424  13.928  0.00  0.00    +0.000 C 
ATOM     16  O   UNK     1       7.489   5.065  13.591  0.00  0.00    +0.000 OA
ATOM     17  N   UNK     1       6.016   3.350  13.198  0.00  0.00    +0.000 N 
ATOM     18  H   UNK     1       5.187   2.889  13.548  0.00  0.00    +0.000 HD
BRANCH  17  19
ATOM     19  C   UNK     1       6.628   2.957  11.939  0.00  0.00    +0.000 C 
BRANCH  19  20
ATOM     20  C   UNK     1       5.882   1.801  11.273  0.00  0.00    +0.000 C 
BRANCH  20  21
ATOM     21  O   UNK     1       6.631   0.592  11.402  0.00  0.00    +0.000 OA
ATOM     22  H   UNK     1       5.975  -0.128  11.367  0.00  0.00    +0.000 HD
ENDBRANCH  20  21
ENDBRANCH  19  20
ENDBRANCH  17  19
ENDBRANCH  10  15
BRANCH   1  23
ATOM     23  C   UNK     1       3.407   6.633  19.484  0.00  0.00    +0.000 C 
BRANCH  23  24
ATOM     24  C   UNK     1       2.213   7.554  19.228  0.00  0.00    +0.000 C 
BRANCH  24  26
ATOM     25  C   UNK     1       1.499   9.614  18.022  0.00  0.00    +0.000 C 
ATOM     26  C   UNK     1       2.188   8.260  17.877  0.00  0.00    +0.000 C 
ENDBRANCH  24  26
ENDBRANCH  23  24
ENDBRANCH   1  23
TORSDOF 7
ENDMDL
MODEL 9
REMARK VINA RESULT:      -7.3      3.576      6.877
REMARK  Name = 
REMARK  9 active torsions:
REMARK  status: ('A' for Active; 'I' for Inactive)
REMARK    1  A    between atoms: C_1  and  C_2
REMARK    2  A    between atoms: C_2  and  C_3
REMARK    3  A    between atoms: C_3  and  C_4
REMARK    4  A    between atoms: C_4  and  N_5
REMARK    5  A    between atoms: C_14  and  C_15
REMARK    6  A    between atoms: N_17  and  C_18
REMARK    7  A    between atoms: C_18  and  C_19
REMARK    8  A    between atoms: C_19  and  O_20
REMARK    9  A    between atoms: C_22  and  C_23
REMARK                            x       y       z     vdW  Elec       q    Type
REMARK                         _______ _______ _______ _____ _____    ______ ____
ROOT
ATOM      1  N   UNK     1       4.207   4.731  18.367  0.00  0.00    +0.000 N 
ATOM      2  C   UNK     1       3.522   4.147  19.428  0.00  0.00    +0.000 A 
ATOM      3  C   UNK     1       3.574   2.856  19.998  0.00  0.00    +0.000 A 
ATOM      4  C   UNK     1       2.802   2.588  21.136  0.00  0.00    +0.000 A 
ATOM      5  C   UNK     1       1.983   3.562  21.688  0.00  0.00    +0.000 A 
ATOM      6  C   UNK     1       1.893   4.821  21.091  0.00  0.00    +0.000 A 
ATOM      7  C   UNK     1       2.667   5.115  19.948  0.00  0.00    +0.000 A 
ATOM      8  C   UNK     1       2.773   6.266  19.112  0.00  0.00    +0.000 A 
ATOM      9  C   UNK     1       2.106   7.497  19.143  0.00  0.00    +0.000 A 
ATOM     10  C   UNK     1       2.425   8.411  18.168  0.00  0.00    +0.000 A 
ATOM     11  N   UNK     1       3.336   8.196  17.193  0.00  0.00    +0.000 NA
ATOM     12  C   UNK     1       3.997   6.997  17.117  0.00  0.00    +0.000 A 
ATOM     13  C   UNK     1       4.947   6.897  15.963  0.00  0.00    +0.000 C 
ATOM     14  C   UNK     1       3.721   6.015  18.106  0.00  0.00    +0.000 A 
ENDROOT
BRANCH  10  15
ATOM     15  C   UNK     1       1.709   9.729  18.158  0.00  0.00    +0.000 C 
ATOM     16  O   UNK     1       2.194  10.708  17.594  0.00  0.00    +0.000 OA
ATOM     17  N   UNK     1       0.493   9.773  18.817  0.00  0.00    +0.000 N 
ATOM     18  H   UNK     1       0.177   8.920  19.260  0.00  0.00    +0.000 HD
BRANCH  17  19
ATOM     19  C   UNK     1      -0.257  11.013  18.941  0.00  0.00    +0.000 C 
BRANCH  19  20
ATOM     20  C   UNK     1      -1.460  11.054  17.999  0.00  0.00    +0.000 C 
BRANCH  20  21
ATOM     21  O   UNK     1      -1.491  12.294  17.292  0.00  0.00    +0.000 OA
ATOM     22  H   UNK     1      -2.083  12.874  17.805  0.00  0.00    +0.000 HD
ENDBRANCH  20  21
ENDBRANCH  19  20
ENDBRANCH  17  19
ENDBRANCH  10  15
BRANCH   1  23
ATOM     23  C   UNK     1       5.261   4.037  17.640  0.00  0.00    +0.000 C 
BRANCH  23  24
ATOM     24  C   UNK     1       6.691   4.516  17.895  0.00  0.00    +0.000 C 
BRANCH  24  26
ATOM     25  C   UNK     1       7.932   6.510  18.726  0.00  0.00    +0.000 C 
ATOM     26  C   UNK     1       6.881   5.460  19.077  0.00  0.00    +0.000 C 
ENDBRANCH  24  26
ENDBRANCH  23  24
ENDBRANCH   1  23
TORSDOF 7
ENDMDL
