MODEL 1
REMARK VINA RESULT:      -6.7      0.000      0.000
REMARK  Name = 
REMARK  11 active torsions:
REMARK  status: ('A' for Active; 'I' for Inactive)
REMARK    1  A    between atoms: C_1  and  O_2
REMARK    2  A    between atoms: O_2  and  C_3
REMARK    3  A    between atoms: C_6  and  N_7
REMARK    4  A    between atoms: N_7  and  C_8
REMARK    5  A    between atoms: N_7  and  C_9
REMARK    6  A    between atoms: C_9  and  N_10
REMARK    7  A    between atoms: N_10  and  C_11
REMARK    8  A    between atoms: N_15  and  C_16
REMARK    9  A    between atoms: N_15  and  C_17
REMARK   10  A    between atoms: N_20  and  C_21
REMARK   11  A    between atoms: N_20  and  C_22
REMARK                            x       y       z     vdW  Elec       q    Type
REMARK                         _______ _______ _______ _____ _____    ______ ____
ROOT
ATOM      1  N   UNL     1       2.247   8.399  18.832  0.00  0.00    +0.000 N 
ATOM      2  C   UNL     1       2.432   9.197  17.627  0.00  0.00    +0.000 C 
ATOM      3  C   UNL     1       2.689   7.075  18.638  0.00  0.00    +0.000 A 
ATOM      4  N   UNL     1       2.170   6.070  19.345  0.00  0.00    +0.000 NA
ATOM      5  C   UNL     1       2.607   4.842  19.068  0.00  0.00    +0.000 A 
ATOM      6  N   UNL     1       2.081   3.756  19.740  0.00  0.00    +0.000 N 
ATOM      7  C   UNL     1       2.564   2.413  19.479  0.00  0.00    +0.000 C 
ATOM      8  C   UNL     1       1.026   3.913  20.718  0.00  0.00    +0.000 C 
ATOM      9  N   UNL     1       3.523   4.600  18.135  0.00  0.00    +0.000 NA
ATOM     10  C   UNL     1       4.011   5.636  17.468  0.00  0.00    +0.000 A 
ATOM     11  N   UNL     1       4.874   5.419  16.404  0.00  0.00    +0.000 N 
ATOM     12  C   UNL     1       5.356   4.075  16.145  0.00  0.00    +0.000 C 
ATOM     13  C   UNL     1       5.740   6.515  16.002  0.00  0.00    +0.000 C 
ATOM     14  N   UNL     1       3.628   6.874  17.720  0.00  0.00    +0.000 NA
ENDROOT
BRANCH   1  15
ATOM     15  C   UNL     1       1.013   8.516  19.595  0.00  0.00    +0.000 C 
BRANCH  15  16
ATOM     16  N   UNL     1       0.507   9.902  19.697  0.00  0.00    +0.000 N 
ATOM     17  C   UNL     1       0.989  10.676  20.836  0.00  0.00    +0.000 C 
BRANCH  16  21
ATOM     18  C   UNL     1      -2.881  11.162  17.467  0.00  0.00    +0.000 A 
ATOM     19  C   UNL     1      -2.057  10.143  17.010  0.00  0.00    +0.000 A 
ATOM     20  C   UNL     1      -0.986   9.689  17.790  0.00  0.00    +0.000 A 
ATOM     21  C   UNL     1      -0.652  10.275  19.020  0.00  0.00    +0.000 A 
ATOM     22  C   UNL     1      -1.513  11.293  19.465  0.00  0.00    +0.000 A 
ATOM     23  C   UNL     1      -2.617  11.731  18.707  0.00  0.00    +0.000 A 
BRANCH  18  25
ATOM     24  C   UNL     1      -5.136  11.798  17.177  0.00  0.00    +0.000 C 
ATOM     25  O   UNL     1      -3.861  11.550  16.599  0.00  0.00    +0.000 OA
ENDBRANCH  18  25
ENDBRANCH  16  21
ENDBRANCH  15  16
ENDBRANCH   1  15
TORSDOF 4
ENDMDL
MODEL 2
REMARK VINA RESULT:      -6.6      0.476      1.064
REMARK  Name = 
REMARK  11 active torsions:
REMARK  status: ('A' for Active; 'I' for Inactive)
REMARK    1  A    between atoms: C_1  and  O_2
REMARK    2  A    between atoms: O_2  and  C_3
REMARK    3  A    between atoms: C_6  and  N_7
REMARK    4  A    between atoms: N_7  and  C_8
REMARK    5  A    between atoms: N_7  and  C_9
REMARK    6  A    between atoms: C_9  and  N_10
REMARK    7  A    between atoms: N_10  and  C_11
REMARK    8  A    between atoms: N_15  and  C_16
REMARK    9  A    between atoms: N_15  and  C_17
REMARK   10  A    between atoms: N_20  and  C_21
REMARK   11  A    between atoms: N_20  and  C_22
REMARK                            x       y       z     vdW  Elec       q    Type
REMARK                         _______ _______ _______ _____ _____    ______ ____
ROOT
ATOM      1  N   UNL     1       2.232   8.205  18.978  0.00  0.00    +0.000 N 
ATOM      2  C   UNL     1       2.416   9.051  17.806  0.00  0.00    +0.000 C 
ATOM      3  C   UNL     1       2.674   6.890  18.731  0.00  0.00    +0.000 A 
ATOM      4  N   UNL     1       2.155   5.857  19.397  0.00  0.00    +0.000 NA
ATOM      5  C   UNL     1       2.593   4.642  19.070  0.00  0.00    +0.000 A 
ATOM      6  N   UNL     1       2.067   3.529  19.700  0.00  0.00    +0.000 N 
ATOM      7  C   UNL     1       2.549   2.197  19.384  0.00  0.00    +0.000 C 
ATOM      8  C   UNL     1       1.013   3.646  20.684  0.00  0.00    +0.000 C 
ATOM      9  N   UNL     1       3.507   4.437  18.128  0.00  0.00    +0.000 NA
ATOM     10  C   UNL     1       3.995   5.498  17.502  0.00  0.00    +0.000 A 
ATOM     11  N   UNL     1       4.856   5.325  16.430  0.00  0.00    +0.000 N 
ATOM     12  C   UNL     1       5.338   3.992  16.117  0.00  0.00    +0.000 C 
ATOM     13  C   UNL     1       5.722   6.436  16.071  0.00  0.00    +0.000 C 
ATOM     14  N   UNL     1       3.612   6.725  17.805  0.00  0.00    +0.000 NA
ENDROOT
BRANCH   1  15
ATOM     15  C   UNL     1       0.999   8.291  19.747  0.00  0.00    +0.000 C 
BRANCH  15  16
ATOM     16  N   UNL     1       0.601   9.676  20.077  0.00  0.00    +0.000 N 
ATOM     17  C   UNL     1       1.036  10.174  21.378  0.00  0.00    +0.000 C 
BRANCH  16  21
ATOM     18  C   UNL     1      -2.777  11.402  18.167  0.00  0.00    +0.000 A 
ATOM     19  C   UNL     1      -2.342  11.854  19.405  0.00  0.00    +0.000 A 
ATOM     20  C   UNL     1      -1.185  11.324  19.989  0.00  0.00    +0.000 A 
ATOM     21  C   UNL     1      -0.456  10.281  19.399  0.00  0.00    +0.000 A 
ATOM     22  C   UNL     1      -0.910   9.856  18.139  0.00  0.00    +0.000 A 
ATOM     23  C   UNL     1      -2.050  10.408  17.524  0.00  0.00    +0.000 A 
BRANCH  18  25
ATOM     24  C   UNL     1      -4.611  11.250  16.688  0.00  0.00    +0.000 C 
ATOM     25  O   UNL     1      -3.943  11.959  17.723  0.00  0.00    +0.000 OA
ENDBRANCH  18  25
ENDBRANCH  16  21
ENDBRANCH  15  16
ENDBRANCH   1  15
TORSDOF 4
ENDMDL
MODEL 3
REMARK VINA RESULT:      -6.6      1.498      2.031
REMARK  Name = 
REMARK  11 active torsions:
REMARK  status: ('A' for Active; 'I' for Inactive)
REMARK    1  A    between atoms: C_1  and  O_2
REMARK    2  A    between atoms: O_2  and  C_3
REMARK    3  A    between atoms: C_6  and  N_7
REMARK    4  A    between atoms: N_7  and  C_8
REMARK    5  A    between atoms: N_7  and  C_9
REMARK    6  A    between atoms: C_9  and  N_10
REMARK    7  A    between atoms: N_10  and  C_11
REMARK    8  A    between atoms: N_15  and  C_16
REMARK    9  A    between atoms: N_15  and  C_17
REMARK   10  A    between atoms: N_20  and  C_21
REMARK   11  A    between atoms: N_20  and  C_22
REMARK                            x       y       z     vdW  Elec       q    Type
REMARK                         _______ _______ _______ _____ _____    ______ ____
ROOT
ATOM      1  N   UNL     1       2.089   8.104  19.165  0.00  0.00    +0.000 N 
ATOM      2  C   UNL     1       1.913   8.791  17.892  0.00  0.00    +0.000 C 
ATOM      3  C   UNL     1       2.729   6.861  18.987  0.00  0.00    +0.000 A 
ATOM      4  N   UNL     1       2.534   5.862  19.849  0.00  0.00    +0.000 NA
ATOM      5  C   UNL     1       3.137   4.703  19.584  0.00  0.00    +0.000 A 
ATOM      6  N   UNL     1       2.944   3.620  20.420  0.00  0.00    +0.000 N 
ATOM      7  C   UNL     1       3.615   2.357  20.170  0.00  0.00    +0.000 C 
ATOM      8  C   UNL     1       2.062   3.697  21.564  0.00  0.00    +0.000 C 
ATOM      9  N   UNL     1       3.907   4.523  18.515  0.00  0.00    +0.000 NA
ATOM     10  C   UNL     1       4.073   5.551  17.696  0.00  0.00    +0.000 A 
ATOM     11  N   UNL     1       4.765   5.374  16.507  0.00  0.00    +0.000 N 
ATOM     12  C   UNL     1       5.436   4.111  16.260  0.00  0.00    +0.000 C 
ATOM     13  C   UNL     1       5.331   6.552  15.872  0.00  0.00    +0.000 C 
ATOM     14  N   UNL     1       3.517   6.726  17.926  0.00  0.00    +0.000 NA
ENDROOT
BRANCH   1  15
ATOM     15  C   UNL     1       1.006   8.090  20.136  0.00  0.00    +0.000 C 
BRANCH  15  16
ATOM     16  N   UNL     1       0.968   9.288  21.002  0.00  0.00    +0.000 N 
ATOM     17  C   UNL     1       1.583   9.145  22.318  0.00  0.00    +0.000 C 
BRANCH  16  21
ATOM     18  C   UNL     1      -2.000  12.260  20.375  0.00  0.00    +0.000 A 
ATOM     19  C   UNL     1      -1.333  12.154  21.588  0.00  0.00    +0.000 A 
ATOM     20  C   UNL     1      -0.307  11.216  21.756  0.00  0.00    +0.000 A 
ATOM     21  C   UNL     1       0.049  10.305  20.751  0.00  0.00    +0.000 A 
ATOM     22  C   UNL     1      -0.632  10.447  19.529  0.00  0.00    +0.000 A 
ATOM     23  C   UNL     1      -1.639  11.413  19.336  0.00  0.00    +0.000 A 
BRANCH  18  25
ATOM     24  C   UNL     1      -4.310  12.658  20.087  0.00  0.00    +0.000 C 
ATOM     25  O   UNL     1      -3.013  13.177  20.348  0.00  0.00    +0.000 OA
ENDBRANCH  18  25
ENDBRANCH  16  21
ENDBRANCH  15  16
ENDBRANCH   1  15
TORSDOF 4
ENDMDL
MODEL 4
REMARK VINA RESULT:      -6.6      1.796      2.406
REMARK  Name = 
REMARK  11 active torsions:
REMARK  status: ('A' for Active; 'I' for Inactive)
REMARK    1  A    between atoms: C_1  and  O_2
REMARK    2  A    between atoms: O_2  and  C_3
REMARK    3  A    between atoms: C_6  and  N_7
REMARK    4  A    between atoms: N_7  and  C_8
REMARK    5  A    between atoms: N_7  and  C_9
REMARK    6  A    between atoms: C_9  and  N_10
REMARK    7  A    between atoms: N_10  and  C_11
REMARK    8  A    between atoms: N_15  and  C_16
REMARK    9  A    between atoms: N_15  and  C_17
REMARK   10  A    between atoms: N_20  and  C_21
REMARK   11  A    between atoms: N_20  and  C_22
REMARK                            x       y       z     vdW  Elec       q    Type
REMARK                         _______ _______ _______ _____ _____    ______ ____
ROOT
ATOM      1  N   UNL     1       2.157   8.151  19.077  0.00  0.00    +0.000 N 
ATOM      2  C   UNL     1       1.960   8.822  17.799  0.00  0.00    +0.000 C 
ATOM      3  C   UNL     1       2.773   6.896  18.903  0.00  0.00    +0.000 A 
ATOM      4  N   UNL     1       2.584   5.913  19.785  0.00  0.00    +0.000 NA
ATOM      5  C   UNL     1       3.162   4.741  19.523  0.00  0.00    +0.000 A 
ATOM      6  N   UNL     1       2.973   3.674  20.380  0.00  0.00    +0.000 N 
ATOM      7  C   UNL     1       3.617   2.397  20.133  0.00  0.00    +0.000 C 
ATOM      8  C   UNL     1       2.122   3.783  21.545  0.00  0.00    +0.000 C 
ATOM      9  N   UNL     1       3.902   4.532  18.438  0.00  0.00    +0.000 NA
ATOM     10  C   UNL     1       4.063   5.545  17.599  0.00  0.00    +0.000 A 
ATOM     11  N   UNL     1       4.721   5.338  16.396  0.00  0.00    +0.000 N 
ATOM     12  C   UNL     1       5.366   4.061  16.152  0.00  0.00    +0.000 C 
ATOM     13  C   UNL     1       5.290   6.498  15.728  0.00  0.00    +0.000 C 
ATOM     14  N   UNL     1       3.531   6.732  17.824  0.00  0.00    +0.000 NA
ENDROOT
BRANCH   1  15
ATOM     15  C   UNL     1       1.099   8.170  20.075  0.00  0.00    +0.000 C 
BRANCH  15  16
ATOM     16  N   UNL     1       1.118   9.369  20.940  0.00  0.00    +0.000 N 
ATOM     17  C   UNL     1       1.304   9.125  22.367  0.00  0.00    +0.000 C 
BRANCH  16  21
ATOM     18  C   UNL     1      -0.608  13.078  19.797  0.00  0.00    +0.000 A 
ATOM     19  C   UNL     1       0.635  13.022  20.414  0.00  0.00    +0.000 A 
ATOM     20  C   UNL     1       1.222  11.788  20.719  0.00  0.00    +0.000 A 
ATOM     21  C   UNL     1       0.571  10.568  20.486  0.00  0.00    +0.000 A 
ATOM     22  C   UNL     1      -0.677  10.655  19.847  0.00  0.00    +0.000 A 
ATOM     23  C   UNL     1      -1.261  11.889  19.498  0.00  0.00    +0.000 A 
BRANCH  18  25
ATOM     24  C   UNL     1      -0.207  15.254  18.973  0.00  0.00    +0.000 C 
ATOM     25  O   UNL     1      -1.098  14.336  19.593  0.00  0.00    +0.000 OA
ENDBRANCH  18  25
ENDBRANCH  16  21
ENDBRANCH  15  16
ENDBRANCH   1  15
TORSDOF 4
ENDMDL
MODEL 5
REMARK VINA RESULT:      -6.5      1.764      2.313
REMARK  Name = 
REMARK  11 active torsions:
REMARK  status: ('A' for Active; 'I' for Inactive)
REMARK    1  A    between atoms: C_1  and  O_2
REMARK    2  A    between atoms: O_2  and  C_3
REMARK    3  A    between atoms: C_6  and  N_7
REMARK    4  A    between atoms: N_7  and  C_8
REMARK    5  A    between atoms: N_7  and  C_9
REMARK    6  A    between atoms: C_9  and  N_10
REMARK    7  A    between atoms: N_10  and  C_11
REMARK    8  A    between atoms: N_15  and  C_16
REMARK    9  A    between atoms: N_15  and  C_17
REMARK   10  A    between atoms: N_20  and  C_21
REMARK   11  A    between atoms: N_20  and  C_22
REMARK                            x       y       z     vdW  Elec       q    Type
REMARK                         _______ _______ _______ _____ _____    ______ ____
ROOT
ATOM      1  N   UNL     1       2.134   8.178  19.076  0.00  0.00    +0.000 N 
ATOM      2  C   UNL     1       1.947   8.843  17.793  0.00  0.00    +0.000 C 
ATOM      3  C   UNL     1       2.749   6.921  18.912  0.00  0.00    +0.000 A 
ATOM      4  N   UNL     1       2.553   5.943  19.798  0.00  0.00    +0.000 NA
ATOM      5  C   UNL     1       3.131   4.769  19.545  0.00  0.00    +0.000 A 
ATOM      6  N   UNL     1       2.936   3.706  20.407  0.00  0.00    +0.000 N 
ATOM      7  C   UNL     1       3.580   2.427  20.171  0.00  0.00    +0.000 C 
ATOM      8  C   UNL     1       2.077   3.822  21.565  0.00  0.00    +0.000 C 
ATOM      9  N   UNL     1       3.879   4.554  18.467  0.00  0.00    +0.000 NA
ATOM     10  C   UNL     1       4.048   5.562  17.624  0.00  0.00    +0.000 A 
ATOM     11  N   UNL     1       4.714   5.348  16.427  0.00  0.00    +0.000 N 
ATOM     12  C   UNL     1       5.359   4.070  16.194  0.00  0.00    +0.000 C 
ATOM     13  C   UNL     1       5.288   6.504  15.757  0.00  0.00    +0.000 C 
ATOM     14  N   UNL     1       3.515   6.751  17.840  0.00  0.00    +0.000 NA
ENDROOT
BRANCH   1  15
ATOM     15  C   UNL     1       1.069   8.203  20.066  0.00  0.00    +0.000 C 
BRANCH  15  16
ATOM     16  N   UNL     1       1.083   9.406  20.925  0.00  0.00    +0.000 N 
ATOM     17  C   UNL     1       1.093   9.165  22.364  0.00  0.00    +0.000 C 
BRANCH  16  21
ATOM     18  C   UNL     1      -0.076  13.078  19.131  0.00  0.00    +0.000 A 
ATOM     19  C   UNL     1      -0.854  11.936  19.000  0.00  0.00    +0.000 A 
ATOM     20  C   UNL     1      -0.496  10.752  19.657  0.00  0.00    +0.000 A 
ATOM     21  C   UNL     1       0.681  10.638  20.411  0.00  0.00    +0.000 A 
ATOM     22  C   UNL     1       1.440  11.813  20.539  0.00  0.00    +0.000 A 
ATOM     23  C   UNL     1       1.069  13.021  19.916  0.00  0.00    +0.000 A 
BRANCH  18  25
ATOM     24  C   UNL     1      -0.253  15.427  18.989  0.00  0.00    +0.000 C 
ATOM     25  O   UNL     1      -0.500  14.155  18.406  0.00  0.00    +0.000 OA
ENDBRANCH  18  25
ENDBRANCH  16  21
ENDBRANCH  15  16
ENDBRANCH   1  15
TORSDOF 4
ENDMDL
MODEL 6
REMARK VINA RESULT:      -6.5      2.623      4.277
REMARK  Name = 
REMARK  11 active torsions:
REMARK  status: ('A' for Active; 'I' for Inactive)
REMARK    1  A    between atoms: C_1  and  O_2
REMARK    2  A    between atoms: O_2  and  C_3
REMARK    3  A    between atoms: C_6  and  N_7
REMARK    4  A    between atoms: N_7  and  C_8
REMARK    5  A    between atoms: N_7  and  C_9
REMARK    6  A    between atoms: C_9  and  N_10
REMARK    7  A    between atoms: N_10  and  C_11
REMARK    8  A    between atoms: N_15  and  C_16
REMARK    9  A    between atoms: N_15  and  C_17
REMARK   10  A    between atoms: N_20  and  C_21
REMARK   11  A    between atoms: N_20  and  C_22
REMARK                            x       y       z     vdW  Elec       q    Type
REMARK                         _______ _______ _______ _____ _____    ______ ____
ROOT
ATOM      1  N   UNL     1       1.871   6.503  19.654  0.00  0.00    +0.000 N 
ATOM      2  C   UNL     1       1.189   5.869  20.775  0.00  0.00    +0.000 C 
ATOM      3  C   UNL     1       2.758   5.606  19.025  0.00  0.00    +0.000 A 
ATOM      4  N   UNL     1       3.829   6.052  18.368  0.00  0.00    +0.000 NA
ATOM      5  C   UNL     1       4.644   5.137  17.843  0.00  0.00    +0.000 A 
ATOM      6  N   UNL     1       5.790   5.536  17.181  0.00  0.00    +0.000 N 
ATOM      7  C   UNL     1       6.677   4.561  16.573  0.00  0.00    +0.000 C 
ATOM      8  C   UNL     1       6.156   6.932  17.080  0.00  0.00    +0.000 C 
ATOM      9  N   UNL     1       4.422   3.831  17.950  0.00  0.00    +0.000 NA
ATOM     10  C   UNL     1       3.338   3.443  18.607  0.00  0.00    +0.000 A 
ATOM     11  N   UNL     1       3.133   2.094  18.851  0.00  0.00    +0.000 N 
ATOM     12  C   UNL     1       4.020   1.121  18.241  0.00  0.00    +0.000 C 
ATOM     13  C   UNL     1       1.776   1.657  19.135  0.00  0.00    +0.000 C 
ATOM     14  N   UNL     1       2.488   4.309  19.126  0.00  0.00    +0.000 NA
ENDROOT
BRANCH   1  15
ATOM     15  C   UNL     1       2.381   7.858  19.790  0.00  0.00    +0.000 C 
BRANCH  15  16
ATOM     16  N   UNL     1       1.396   8.903  19.438  0.00  0.00    +0.000 N 
ATOM     17  C   UNL     1       1.425   9.369  18.055  0.00  0.00    +0.000 C 
BRANCH  16  21
ATOM     18  C   UNL     1      -0.613  11.099  22.467  0.00  0.00    +0.000 A 
ATOM     19  C   UNL     1      -0.069   9.849  22.726  0.00  0.00    +0.000 A 
ATOM     20  C   UNL     1       0.652   9.168  21.737  0.00  0.00    +0.000 A 
ATOM     21  C   UNL     1       0.803   9.672  20.437  0.00  0.00    +0.000 A 
ATOM     22  C   UNL     1       0.256  10.946  20.209  0.00  0.00    +0.000 A 
ATOM     23  C   UNL     1      -0.438  11.658  21.207  0.00  0.00    +0.000 A 
BRANCH  18  25
ATOM     24  C   UNL     1      -2.637  12.102  23.155  0.00  0.00    +0.000 C 
ATOM     25  O   UNL     1      -1.335  11.642  23.492  0.00  0.00    +0.000 OA
ENDBRANCH  18  25
ENDBRANCH  16  21
ENDBRANCH  15  16
ENDBRANCH   1  15
TORSDOF 4
ENDMDL
MODEL 7
REMARK VINA RESULT:      -6.5      4.092      9.295
REMARK  Name = 
REMARK  11 active torsions:
REMARK  status: ('A' for Active; 'I' for Inactive)
REMARK    1  A    between atoms: C_1  and  O_2
REMARK    2  A    between atoms: O_2  and  C_3
REMARK    3  A    between atoms: C_6  and  N_7
REMARK    4  A    between atoms: N_7  and  C_8
REMARK    5  A    between atoms: N_7  and  C_9
REMARK    6  A    between atoms: C_9  and  N_10
REMARK    7  A    between atoms: N_10  and  C_11
REMARK    8  A    between atoms: N_15  and  C_16
REMARK    9  A    between atoms: N_15  and  C_17
REMARK   10  A    between atoms: N_20  and  C_21
REMARK   11  A    between atoms: N_20  and  C_22
REMARK                            x       y       z     vdW  Elec       q    Type
REMARK                         _______ _______ _______ _____ _____    ______ ____
ROOT
ATOM      1  N   UNL     1      -1.363  12.115  20.304  0.00  0.00    +0.000 N 
ATOM      2  C   UNL     1      -0.893  11.774  21.641  0.00  0.00    +0.000 C 
ATOM      3  C   UNL     1      -2.761  12.297  20.288  0.00  0.00    +0.000 A 
ATOM      4  N   UNL     1      -3.464  12.090  19.174  0.00  0.00    +0.000 NA
ATOM      5  C   UNL     1      -4.786  12.237  19.254  0.00  0.00    +0.000 A 
ATOM      6  N   UNL     1      -5.573  12.001  18.142  0.00  0.00    +0.000 N 
ATOM      7  C   UNL     1      -7.012  12.184  18.196  0.00  0.00    +0.000 C 
ATOM      8  C   UNL     1      -4.999  11.554  16.892  0.00  0.00    +0.000 C 
ATOM      9  N   UNL     1      -5.404  12.576  20.381  0.00  0.00    +0.000 NA
ATOM     10  C   UNL     1      -4.657  12.776  21.457  0.00  0.00    +0.000 A 
ATOM     11  N   UNL     1      -5.266  13.009  22.680  0.00  0.00    +0.000 N 
ATOM     12  C   UNL     1      -6.705  13.193  22.730  0.00  0.00    +0.000 C 
ATOM     13  C   UNL     1      -4.484  13.671  23.710  0.00  0.00    +0.000 C 
ATOM     14  N   UNL     1      -3.341  12.666  21.424  0.00  0.00    +0.000 NA
ENDROOT
BRANCH   1  15
ATOM     15  C   UNL     1      -0.835  11.407  19.148  0.00  0.00    +0.000 C 
BRANCH  15  16
ATOM     16  N   UNL     1       0.623  11.168  19.214  0.00  0.00    +0.000 N 
ATOM     17  C   UNL     1       1.473  12.300  18.859  0.00  0.00    +0.000 C 
BRANCH  16  21
ATOM     18  C   UNL     1       2.339   7.283  19.269  0.00  0.00    +0.000 A 
ATOM     19  C   UNL     1       1.716   7.811  20.392  0.00  0.00    +0.000 A 
ATOM     20  C   UNL     1       1.093   9.063  20.337  0.00  0.00    +0.000 A 
ATOM     21  C   UNL     1       1.121   9.867  19.188  0.00  0.00    +0.000 A 
ATOM     22  C   UNL     1       1.743   9.300  18.062  0.00  0.00    +0.000 A 
ATOM     23  C   UNL     1       2.340   8.024  18.094  0.00  0.00    +0.000 A 
BRANCH  18  25
ATOM     24  C   UNL     1       2.229   5.131  20.234  0.00  0.00    +0.000 C 
ATOM     25  O   UNL     1       2.952   6.077  19.458  0.00  0.00    +0.000 OA
ENDBRANCH  18  25
ENDBRANCH  16  21
ENDBRANCH  15  16
ENDBRANCH   1  15
TORSDOF 4
ENDMDL
MODEL 8
REMARK VINA RESULT:      -6.5      2.745      4.733
REMARK  Name = 
REMARK  11 active torsions:
REMARK  status: ('A' for Active; 'I' for Inactive)
REMARK    1  A    between atoms: C_1  and  O_2
REMARK    2  A    between atoms: O_2  and  C_3
REMARK    3  A    between atoms: C_6  and  N_7
REMARK    4  A    between atoms: N_7  and  C_8
REMARK    5  A    between atoms: N_7  and  C_9
REMARK    6  A    between atoms: C_9  and  N_10
REMARK    7  A    between atoms: N_10  and  C_11
REMARK    8  A    between atoms: N_15  and  C_16
REMARK    9  A    between atoms: N_15  and  C_17
REMARK   10  A    between atoms: N_20  and  C_21
REMARK   11  A    between atoms: N_20  and  C_22
REMARK                            x       y       z     vdW  Elec       q    Type
REMARK                         _______ _______ _______ _____ _____    ______ ____
ROOT
ATOM      1  N   UNL     1       1.775   7.906  19.264  0.00  0.00    +0.000 N 
ATOM      2  C   UNL     1       1.517   7.998  20.696  0.00  0.00    +0.000 C 
ATOM      3  C   UNL     1       2.531   6.757  18.957  0.00  0.00    +0.000 A 
ATOM      4  N   UNL     1       3.314   6.722  17.878  0.00  0.00    +0.000 NA
ATOM      5  C   UNL     1       4.033   5.617  17.684  0.00  0.00    +0.000 A 
ATOM      6  N   UNL     1       4.891   5.535  16.604  0.00  0.00    +0.000 N 
ATOM      7  C   UNL     1       5.660   4.330  16.353  0.00  0.00    +0.000 C 
ATOM      8  C   UNL     1       5.064   6.644  15.691  0.00  0.00    +0.000 C 
ATOM      9  N   UNL     1       3.989   4.577  18.512  0.00  0.00    +0.000 NA
ATOM     10  C   UNL     1       3.188   4.662  19.564  0.00  0.00    +0.000 A 
ATOM     11  N   UNL     1       3.204   3.656  20.518  0.00  0.00    +0.000 N 
ATOM     12  C   UNL     1       3.973   2.452  20.265  0.00  0.00    +0.000 C 
ATOM     13  C   UNL     1       2.040   3.522  21.379  0.00  0.00    +0.000 C 
ATOM     14  N   UNL     1       2.439   5.725  19.789  0.00  0.00    +0.000 NA
ENDROOT
BRANCH   1  15
ATOM     15  C   UNL     1       2.159   9.096  18.520  0.00  0.00    +0.000 C 
BRANCH  15  16
ATOM     16  N   UNL     1       1.177  10.198  18.614  0.00  0.00    +0.000 N 
ATOM     17  C   UNL     1      -0.105   9.969  17.955  0.00  0.00    +0.000 C 
BRANCH  16  21
ATOM     18  C   UNL     1       2.700  14.041  19.589  0.00  0.00    +0.000 A 
ATOM     19  C   UNL     1       2.976  13.446  18.365  0.00  0.00    +0.000 A 
ATOM     20  C   UNL     1       2.409  12.211  18.030  0.00  0.00    +0.000 A 
ATOM     21  C   UNL     1       1.601  11.489  18.921  0.00  0.00    +0.000 A 
ATOM     22  C   UNL     1       1.326  12.122  20.145  0.00  0.00    +0.000 A 
ATOM     23  C   UNL     1       1.859  13.383  20.478  0.00  0.00    +0.000 A 
BRANCH  18  25
ATOM     24  C   UNL     1       4.194  15.677  18.773  0.00  0.00    +0.000 C 
ATOM     25  O   UNL     1       3.349  15.220  19.821  0.00  0.00    +0.000 OA
ENDBRANCH  18  25
ENDBRANCH  16  21
ENDBRANCH  15  16
ENDBRANCH   1  15
TORSDOF 4
ENDMDL
MODEL 9
REMARK VINA RESULT:      -6.5      2.032      2.413
REMARK  Name = 
REMARK  11 active torsions:
REMARK  status: ('A' for Active; 'I' for Inactive)
REMARK    1  A    between atoms: C_1  and  O_2
REMARK    2  A    between atoms: O_2  and  C_3
REMARK    3  A    between atoms: C_6  and  N_7
REMARK    4  A    between atoms: N_7  and  C_8
REMARK    5  A    between atoms: N_7  and  C_9
REMARK    6  A    between atoms: C_9  and  N_10
REMARK    7  A    between atoms: N_10  and  C_11
REMARK    8  A    between atoms: N_15  and  C_16
REMARK    9  A    between atoms: N_15  and  C_17
REMARK   10  A    between atoms: N_20  and  C_21
REMARK   11  A    between atoms: N_20  and  C_22
REMARK                            x       y       z     vdW  Elec       q    Type
REMARK                         _______ _______ _______ _____ _____    ______ ____
ROOT
ATOM      1  N   UNL     1       1.982   8.209  19.285  0.00  0.00    +0.000 N 
ATOM      2  C   UNL     1       1.782   8.921  18.029  0.00  0.00    +0.000 C 
ATOM      3  C   UNL     1       2.631   6.977  19.072  0.00  0.00    +0.000 A 
ATOM      4  N   UNL     1       2.457   5.958  19.916  0.00  0.00    +0.000 NA
ATOM      5  C   UNL     1       3.068   4.812  19.618  0.00  0.00    +0.000 A 
ATOM      6  N   UNL     1       2.898   3.709  20.434  0.00  0.00    +0.000 N 
ATOM      7  C   UNL     1       3.577   2.459  20.148  0.00  0.00    +0.000 C 
ATOM      8  C   UNL     1       2.030   3.753  21.591  0.00  0.00    +0.000 C 
ATOM      9  N   UNL     1       3.827   4.662  18.536  0.00  0.00    +0.000 NA
ATOM     10  C   UNL     1       3.972   5.708  17.737  0.00  0.00    +0.000 A 
ATOM     11  N   UNL     1       4.649   5.563  16.536  0.00  0.00    +0.000 N 
ATOM     12  C   UNL     1       5.329   4.312  16.253  0.00  0.00    +0.000 C 
ATOM     13  C   UNL     1       5.195   6.760  15.918  0.00  0.00    +0.000 C 
ATOM     14  N   UNL     1       3.406   6.872  17.999  0.00  0.00    +0.000 NA
ENDROOT
BRANCH   1  15
ATOM     15  C   UNL     1       0.911   8.164  20.269  0.00  0.00    +0.000 C 
BRANCH  15  16
ATOM     16  N   UNL     1       0.986   9.241  21.279  0.00  0.00    +0.000 N 
ATOM     17  C   UNL     1       1.912   9.016  22.386  0.00  0.00    +0.000 C 
BRANCH  16  21
ATOM     18  C   UNL     1      -1.992  12.254  21.574  0.00  0.00    +0.000 A 
ATOM     19  C   UNL     1      -1.483  11.863  20.343  0.00  0.00    +0.000 A 
ATOM     20  C   UNL     1      -0.554  10.819  20.256  0.00  0.00    +0.000 A 
ATOM     21  C   UNL     1      -0.046  10.170  21.391  0.00  0.00    +0.000 A 
ATOM     22  C   UNL     1      -0.591  10.575  22.621  0.00  0.00    +0.000 A 
ATOM     23  C   UNL     1      -1.556  11.598  22.718  0.00  0.00    +0.000 A 
BRANCH  18  25
ATOM     24  C   UNL     1      -4.203  13.026  21.878  0.00  0.00    +0.000 C 
ATOM     25  O   UNL     1      -2.853  13.314  21.536  0.00  0.00    +0.000 OA
ENDBRANCH  18  25
ENDBRANCH  16  21
ENDBRANCH  15  16
ENDBRANCH   1  15
TORSDOF 4
ENDMDL
