MODEL 1
REMARK VINA RESULT:      -7.8      0.000      0.000
REMARK  Name = 
REMARK  6 active torsions:
REMARK  status: ('A' for Active; 'I' for Inactive)
REMARK    1  A    between atoms: C_1  and  C_2
REMARK    2  A    between atoms: C_5  and  O_6
REMARK    3  A    between atoms: O_6  and  C_7
REMARK    4  A    between atoms: C_9  and  C_10
REMARK    5  A    between atoms: C_17  and  C_19
REMARK    6  A    between atoms: N_21  and  C_22
REMARK                            x       y       z     vdW  Elec       q    Type
REMARK                         _______ _______ _______ _____ _____    ______ ____
ROOT
ATOM      1  C   UNL     1      -1.036  11.386  23.121  0.00  0.00    +0.000 C 
ATOM      2  C   UNL     1      -1.036  10.433  21.919  0.00  0.00    +0.000 C 
ATOM      3  C   UNL     1      -0.427   9.093  22.363  0.00  0.00    +0.000 C 
ATOM      4  C   UNL     1       0.120   8.334  21.161  0.00  0.00    +0.000 C 
ATOM      5  C   UNL     1       1.291   9.091  20.510  0.00  0.00    +0.000 C 
ATOM      6  C   UNL     1       1.094  10.620  20.639  0.00  0.00    +0.000 C 
ATOM      7  N   UNL     1      -0.320  10.997  20.764  0.00  0.00    +0.000 N 
ATOM      8  C   UNL     1      -0.914  11.667  19.684  0.00  0.00    +0.000 C 
ATOM      9  O   UNL     1      -0.245  11.965  18.696  0.00  0.00    +0.000 OA
ENDROOT
BRANCH   8  10
ATOM     10  C   UNL     1      -2.323  12.056  19.755  0.00  0.00    +0.000 A 
ATOM     11  C   UNL     1      -2.980  12.846  20.677  0.00  0.00    +0.000 A 
ATOM     12  N   UNL     1      -4.282  12.939  20.306  0.00  0.00    +0.000 N 
ATOM     13  C   UNL     1      -5.348  13.477  21.116  0.00  0.00    +0.000 C 
ATOM     14  N   UNL     1      -4.517  12.414  19.099  0.00  0.00    +0.000 NA
ATOM     15  C   UNL     1      -3.340  11.836  18.787  0.00  0.00    +0.000 A 
ATOM     16  N   UNL     1      -3.217  11.066  17.586  0.00  0.00    +0.000 N 
ATOM     17  N   UNL     1      -2.375   9.990  17.487  0.00  0.00    +0.000 NA
ATOM     18  C   UNL     1      -2.506   9.629  16.213  0.00  0.00    +0.000 A 
ATOM     19  C   UNL     1      -3.436  10.451  15.583  0.00  0.00    +0.000 A 
ATOM     20  N   UNL     1      -3.959  11.310  16.456  0.00  0.00    +0.000 NA
ENDBRANCH   8  10
BRANCH   5  21
ATOM     21  O   UNL     1       1.427   8.733  19.118  0.00  0.00    +0.000 OA
BRANCH  21  22
ATOM     22  C   UNL     1       2.321   7.701  18.907  0.00  0.00    +0.000 A 
ATOM     23  C   UNL     1       3.086   7.716  17.750  0.00  0.00    +0.000 A 
ATOM     24  C   UNL     1       4.019   6.693  17.558  0.00  0.00    +0.000 A 
ATOM     25  C   UNL     1       4.159   5.707  18.522  0.00  0.00    +0.000 A 
ATOM     26  C   UNL     1       3.350   5.775  19.643  0.00  0.00    +0.000 A 
ATOM     27  N   UNL     1       2.424   6.734  19.840  0.00  0.00    +0.000 NA
BRANCH  24  28
ATOM     28  C   UNL     1       4.795   6.659  16.364  0.00  0.00    +0.000 C 
ATOM     29  N   UNL     1       5.401   6.639  15.385  0.00  0.00    +0.000 NA
ENDBRANCH  24  28
ENDBRANCH  21  22
ENDBRANCH   5  21
TORSDOF 4
ENDMDL
MODEL 2
REMARK VINA RESULT:      -7.6      2.718      4.284
REMARK  Name = 
REMARK  6 active torsions:
REMARK  status: ('A' for Active; 'I' for Inactive)
REMARK    1  A    between atoms: C_1  and  C_2
REMARK    2  A    between atoms: C_5  and  O_6
REMARK    3  A    between atoms: O_6  and  C_7
REMARK    4  A    between atoms: C_9  and  C_10
REMARK    5  A    between atoms: C_17  and  C_19
REMARK    6  A    between atoms: N_21  and  C_22
REMARK                            x       y       z     vdW  Elec       q    Type
REMARK                         _______ _______ _______ _____ _____    ______ ____
ROOT
ATOM      1  C   UNL     1       1.079  10.200  21.602  0.00  0.00    +0.000 C 
ATOM      2  C   UNL     1       0.671   9.015  20.717  0.00  0.00    +0.000 C 
ATOM      3  C   UNL     1       0.898   7.718  21.509  0.00  0.00    +0.000 C 
ATOM      4  C   UNL     1       1.067   6.538  20.561  0.00  0.00    +0.000 C 
ATOM      5  C   UNL     1       2.335   6.690  19.703  0.00  0.00    +0.000 C 
ATOM      6  C   UNL     1       2.615   8.181  19.399  0.00  0.00    +0.000 C 
ATOM      7  N   UNL     1       1.397   9.002  19.437  0.00  0.00    +0.000 N 
ATOM      8  C   UNL     1       0.920   9.517  18.223  0.00  0.00    +0.000 C 
ATOM      9  O   UNL     1       1.540   9.320  17.179  0.00  0.00    +0.000 OA
ENDROOT
BRANCH   8  10
ATOM     10  C   UNL     1      -0.295  10.332  18.206  0.00  0.00    +0.000 A 
ATOM     11  C   UNL     1      -1.602   9.972  17.941  0.00  0.00    +0.000 A 
ATOM     12  N   UNL     1      -2.381  11.075  18.073  0.00  0.00    +0.000 N 
ATOM     13  C   UNL     1      -3.761  11.180  17.662  0.00  0.00    +0.000 C 
ATOM     14  N   UNL     1      -1.722  12.120  18.583  0.00  0.00    +0.000 NA
ATOM     15  C   UNL     1      -0.447  11.684  18.617  0.00  0.00    +0.000 A 
ATOM     16  N   UNL     1       0.603  12.573  19.018  0.00  0.00    +0.000 N 
ATOM     17  N   UNL     1       1.874  12.481  18.516  0.00  0.00    +0.000 NA
ATOM     18  C   UNL     1       2.529  13.415  19.199  0.00  0.00    +0.000 A 
ATOM     19  C   UNL     1       1.654  14.072  20.059  0.00  0.00    +0.000 A 
ATOM     20  N   UNL     1       0.415  13.612  19.896  0.00  0.00    +0.000 NA
ENDBRANCH   8  10
BRANCH   5  21
ATOM     21  O   UNL     1       2.213   5.956  18.466  0.00  0.00    +0.000 OA
BRANCH  21  22
ATOM     22  C   UNL     1       2.277   4.587  18.638  0.00  0.00    +0.000 A 
ATOM     23  C   UNL     1       3.305   4.065  19.410  0.00  0.00    +0.000 A 
ATOM     24  C   UNL     1       3.344   2.684  19.617  0.00  0.00    +0.000 A 
ATOM     25  C   UNL     1       2.361   1.881  19.058  0.00  0.00    +0.000 A 
ATOM     26  C   UNL     1       1.377   2.493  18.301  0.00  0.00    +0.000 A 
ATOM     27  N   UNL     1       1.331   3.818  18.063  0.00  0.00    +0.000 NA
BRANCH  24  28
ATOM     28  C   UNL     1       4.405   2.112  20.375  0.00  0.00    +0.000 C 
ATOM     29  N   UNL     1       5.247   1.635  21.001  0.00  0.00    +0.000 NA
ENDBRANCH  24  28
ENDBRANCH  21  22
ENDBRANCH   5  21
TORSDOF 4
ENDMDL
MODEL 3
REMARK VINA RESULT:      -7.4      1.032      2.087
REMARK  Name = 
REMARK  6 active torsions:
REMARK  status: ('A' for Active; 'I' for Inactive)
REMARK    1  A    between atoms: C_1  and  C_2
REMARK    2  A    between atoms: C_5  and  O_6
REMARK    3  A    between atoms: O_6  and  C_7
REMARK    4  A    between atoms: C_9  and  C_10
REMARK    5  A    between atoms: C_17  and  C_19
REMARK    6  A    between atoms: N_21  and  C_22
REMARK                            x       y       z     vdW  Elec       q    Type
REMARK                         _______ _______ _______ _____ _____    ______ ____
ROOT
ATOM      1  C   UNL     1      -1.109  11.853  23.103  0.00  0.00    +0.000 C 
ATOM      2  C   UNL     1      -1.132  10.758  22.029  0.00  0.00    +0.000 C 
ATOM      3  C   UNL     1      -0.533   9.477  22.630  0.00  0.00    +0.000 C 
ATOM      4  C   UNL     1      -0.007   8.567  21.528  0.00  0.00    +0.000 C 
ATOM      5  C   UNL     1       1.165   9.223  20.777  0.00  0.00    +0.000 C 
ATOM      6  C   UNL     1       0.986  10.759  20.716  0.00  0.00    +0.000 C 
ATOM      7  N   UNL     1      -0.423  11.165  20.806  0.00  0.00    +0.000 N 
ATOM      8  C   UNL     1      -1.020  11.704  19.657  0.00  0.00    +0.000 C 
ATOM      9  O   UNL     1      -0.359  11.868  18.633  0.00  0.00    +0.000 OA
ENDROOT
BRANCH   8  10
ATOM     10  C   UNL     1      -2.424  12.115  19.692  0.00  0.00    +0.000 A 
ATOM     11  C   UNL     1      -3.084  12.946  20.576  0.00  0.00    +0.000 A 
ATOM     12  N   UNL     1      -4.378  13.045  20.180  0.00  0.00    +0.000 N 
ATOM     13  C   UNL     1      -5.448  13.626  20.954  0.00  0.00    +0.000 C 
ATOM     14  N   UNL     1      -4.602  12.483  18.988  0.00  0.00    +0.000 NA
ATOM     15  C   UNL     1      -3.429  11.877  18.716  0.00  0.00    +0.000 A 
ATOM     16  N   UNL     1      -3.300  11.064  17.543  0.00  0.00    +0.000 N 
ATOM     17  N   UNL     1      -2.473   9.973  17.495  0.00  0.00    +0.000 NA
ATOM     18  C   UNL     1      -2.590   9.571  16.232  0.00  0.00    +0.000 A 
ATOM     19  C   UNL     1      -3.497  10.385  15.559  0.00  0.00    +0.000 A 
ATOM     20  N   UNL     1      -4.020  11.280  16.394  0.00  0.00    +0.000 NA
ENDBRANCH   8  10
BRANCH   5  21
ATOM     21  O   UNL     1       1.282   8.694  19.439  0.00  0.00    +0.000 OA
BRANCH  21  22
ATOM     22  C   UNL     1       2.038   7.540  19.376  0.00  0.00    +0.000 A 
ATOM     23  C   UNL     1       1.787   6.533  20.297  0.00  0.00    +0.000 A 
ATOM     24  C   UNL     1       2.524   5.349  20.205  0.00  0.00    +0.000 A 
ATOM     25  C   UNL     1       3.472   5.211  19.203  0.00  0.00    +0.000 A 
ATOM     26  C   UNL     1       3.654   6.272  18.332  0.00  0.00    +0.000 A 
ATOM     27  N   UNL     1       2.977   7.432  18.414  0.00  0.00    +0.000 NA
BRANCH  24  28
ATOM     28  C   UNL     1       2.315   4.310  21.157  0.00  0.00    +0.000 C 
ATOM     29  N   UNL     1       2.168   3.457  21.917  0.00  0.00    +0.000 NA
ENDBRANCH  24  28
ENDBRANCH  21  22
ENDBRANCH   5  21
TORSDOF 4
ENDMDL
MODEL 4
REMARK VINA RESULT:      -7.3      2.026      3.177
REMARK  Name = 
REMARK  6 active torsions:
REMARK  status: ('A' for Active; 'I' for Inactive)
REMARK    1  A    between atoms: C_1  and  C_2
REMARK    2  A    between atoms: C_5  and  O_6
REMARK    3  A    between atoms: O_6  and  C_7
REMARK    4  A    between atoms: C_9  and  C_10
REMARK    5  A    between atoms: C_17  and  C_19
REMARK    6  A    between atoms: N_21  and  C_22
REMARK                            x       y       z     vdW  Elec       q    Type
REMARK                         _______ _______ _______ _____ _____    ______ ____
ROOT
ATOM      1  C   UNL     1       0.363  10.892  21.582  0.00  0.00    +0.000 C 
ATOM      2  C   UNL     1       0.130   9.578  20.824  0.00  0.00    +0.000 C 
ATOM      3  C   UNL     1       0.534   8.412  21.740  0.00  0.00    +0.000 C 
ATOM      4  C   UNL     1       0.872   7.178  20.913  0.00  0.00    +0.000 C 
ATOM      5  C   UNL     1       2.110   7.421  20.033  0.00  0.00    +0.000 C 
ATOM      6  C   UNL     1       2.178   8.898  19.578  0.00  0.00    +0.000 C 
ATOM      7  N   UNL     1       0.857   9.539  19.545  0.00  0.00    +0.000 N 
ATOM      8  C   UNL     1       0.318   9.857  18.290  0.00  0.00    +0.000 C 
ATOM      9  O   UNL     1       0.965   9.645  17.265  0.00  0.00    +0.000 OA
ENDROOT
BRANCH   8  10
ATOM     10  C   UNL     1      -0.999  10.487  18.203  0.00  0.00    +0.000 A 
ATOM     11  C   UNL     1      -2.237   9.926  17.960  0.00  0.00    +0.000 A 
ATOM     12  N   UNL     1      -3.167  10.913  18.001  0.00  0.00    +0.000 N 
ATOM     13  C   UNL     1      -4.540  10.790  17.575  0.00  0.00    +0.000 C 
ATOM     14  N   UNL     1      -2.670  12.078  18.432  0.00  0.00    +0.000 NA
ATOM     15  C   UNL     1      -1.347  11.831  18.507  0.00  0.00    +0.000 A 
ATOM     16  N   UNL     1      -0.441  12.888  18.843  0.00  0.00    +0.000 N 
ATOM     17  N   UNL     1       0.839  12.940  18.357  0.00  0.00    +0.000 NA
ATOM     18  C   UNL     1       1.343  14.007  18.970  0.00  0.00    +0.000 A 
ATOM     19  C   UNL     1       0.370  14.597  19.771  0.00  0.00    +0.000 A 
ATOM     20  N   UNL     1      -0.788  13.954  19.637  0.00  0.00    +0.000 NA
ENDBRANCH   8  10
BRANCH   5  21
ATOM     21  O   UNL     1       2.099   6.556  18.877  0.00  0.00    +0.000 OA
BRANCH  21  22
ATOM     22  C   UNL     1       3.252   5.808  18.746  0.00  0.00    +0.000 A 
ATOM     23  C   UNL     1       4.267   6.294  17.934  0.00  0.00    +0.000 A 
ATOM     24  C   UNL     1       5.450   5.557  17.836  0.00  0.00    +0.000 A 
ATOM     25  C   UNL     1       5.580   4.376  18.550  0.00  0.00    +0.000 A 
ATOM     26  C   UNL     1       4.512   3.970  19.332  0.00  0.00    +0.000 A 
ATOM     27  N   UNL     1       3.351   4.647  19.424  0.00  0.00    +0.000 NA
BRANCH  24  28
ATOM     28  C   UNL     1       6.497   6.010  16.984  0.00  0.00    +0.000 C 
ATOM     29  N   UNL     1       7.362   6.365  16.311  0.00  0.00    +0.000 NA
ENDBRANCH  24  28
ENDBRANCH  21  22
ENDBRANCH   5  21
TORSDOF 4
ENDMDL
MODEL 5
REMARK VINA RESULT:      -7.2      2.781      4.824
REMARK  Name = 
REMARK  6 active torsions:
REMARK  status: ('A' for Active; 'I' for Inactive)
REMARK    1  A    between atoms: C_1  and  C_2
REMARK    2  A    between atoms: C_5  and  O_6
REMARK    3  A    between atoms: O_6  and  C_7
REMARK    4  A    between atoms: C_9  and  C_10
REMARK    5  A    between atoms: C_17  and  C_19
REMARK    6  A    between atoms: N_21  and  C_22
REMARK                            x       y       z     vdW  Elec       q    Type
REMARK                         _______ _______ _______ _____ _____    ______ ____
ROOT
ATOM      1  C   UNL     1      -3.204  12.312  19.641  0.00  0.00    +0.000 C 
ATOM      2  C   UNL     1      -1.674  12.206  19.695  0.00  0.00    +0.000 C 
ATOM      3  C   UNL     1      -1.175  11.699  18.333  0.00  0.00    +0.000 C 
ATOM      4  C   UNL     1       0.192  11.043  18.478  0.00  0.00    +0.000 C 
ATOM      5  C   UNL     1       0.113   9.780  19.354  0.00  0.00    +0.000 C 
ATOM      6  C   UNL     1      -0.968   9.938  20.448  0.00  0.00    +0.000 C 
ATOM      7  N   UNL     1      -1.216  11.344  20.796  0.00  0.00    +0.000 N 
ATOM      8  C   UNL     1      -0.799  11.786  22.060  0.00  0.00    +0.000 C 
ATOM      9  O   UNL     1      -0.291  10.998  22.856  0.00  0.00    +0.000 OA
ENDROOT
BRANCH   8  10
ATOM     10  C   UNL     1      -1.014  13.179  22.450  0.00  0.00    +0.000 A 
ATOM     11  C   UNL     1      -2.087  13.766  23.093  0.00  0.00    +0.000 A 
ATOM     12  N   UNL     1      -1.813  15.084  23.260  0.00  0.00    +0.000 N 
ATOM     13  C   UNL     1      -2.760  16.090  23.676  0.00  0.00    +0.000 C 
ATOM     14  N   UNL     1      -0.555  15.399  22.937  0.00  0.00    +0.000 NA
ATOM     15  C   UNL     1      -0.086  14.255  22.400  0.00  0.00    +0.000 A 
ATOM     16  N   UNL     1       1.227  14.217  21.830  0.00  0.00    +0.000 N 
ATOM     17  N   UNL     1       1.545  13.407  20.772  0.00  0.00    +0.000 NA
ATOM     18  C   UNL     1       2.849  13.618  20.621  0.00  0.00    +0.000 A 
ATOM     19  C   UNL     1       3.285  14.563  21.545  0.00  0.00    +0.000 A 
ATOM     20  N   UNL     1       2.258  15.017  22.260  0.00  0.00    +0.000 NA
ENDBRANCH   8  10
BRANCH   5  21
ATOM     21  O   UNL     1       1.389   9.497  19.967  0.00  0.00    +0.000 OA
BRANCH  21  22
ATOM     22  C   UNL     1       1.921   8.283  19.580  0.00  0.00    +0.000 A 
ATOM     23  C   UNL     1       1.760   7.191  20.421  0.00  0.00    +0.000 A 
ATOM     24  C   UNL     1       2.262   5.954  20.008  0.00  0.00    +0.000 A 
ATOM     25  C   UNL     1       2.895   5.850  18.779  0.00  0.00    +0.000 A 
ATOM     26  C   UNL     1       3.011   6.995  18.010  0.00  0.00    +0.000 A 
ATOM     27  N   UNL     1       2.560   8.204  18.395  0.00  0.00    +0.000 NA
BRANCH  24  28
ATOM     28  C   UNL     1       2.144   4.822  20.863  0.00  0.00    +0.000 C 
ATOM     29  N   UNL     1       2.072   3.896  21.546  0.00  0.00    +0.000 NA
ENDBRANCH  24  28
ENDBRANCH  21  22
ENDBRANCH   5  21
TORSDOF 4
ENDMDL
MODEL 6
REMARK VINA RESULT:      -7.1      3.536      4.816
REMARK  Name = 
REMARK  6 active torsions:
REMARK  status: ('A' for Active; 'I' for Inactive)
REMARK    1  A    between atoms: C_1  and  C_2
REMARK    2  A    between atoms: C_5  and  O_6
REMARK    3  A    between atoms: O_6  and  C_7
REMARK    4  A    between atoms: C_9  and  C_10
REMARK    5  A    between atoms: C_17  and  C_19
REMARK    6  A    between atoms: N_21  and  C_22
REMARK                            x       y       z     vdW  Elec       q    Type
REMARK                         _______ _______ _______ _____ _____    ______ ____
ROOT
ATOM      1  C   UNL     1      -1.161  10.990  23.098  0.00  0.00    +0.000 C 
ATOM      2  C   UNL     1      -1.124  11.127  21.570  0.00  0.00    +0.000 C 
ATOM      3  C   UNL     1      -0.010  10.217  21.029  0.00  0.00    +0.000 C 
ATOM      4  C   UNL     1       0.460  10.705  19.664  0.00  0.00    +0.000 C 
ATOM      5  C   UNL     1       1.114  12.094  19.765  0.00  0.00    +0.000 C 
ATOM      6  C   UNL     1       0.446  12.935  20.879  0.00  0.00    +0.000 C 
ATOM      7  N   UNL     1      -0.939  12.522  21.142  0.00  0.00    +0.000 N 
ATOM      8  C   UNL     1      -1.964  13.402  20.765  0.00  0.00    +0.000 C 
ATOM      9  O   UNL     1      -1.692  14.499  20.277  0.00  0.00    +0.000 OA
ENDROOT
BRANCH   8  10
ATOM     10  C   UNL     1      -3.361  13.034  20.996  0.00  0.00    +0.000 A 
ATOM     11  C   UNL     1      -4.182  13.301  22.074  0.00  0.00    +0.000 A 
ATOM     12  N   UNL     1      -5.406  12.774  21.816  0.00  0.00    +0.000 N 
ATOM     13  C   UNL     1      -6.475  12.631  22.774  0.00  0.00    +0.000 C 
ATOM     14  N   UNL     1      -5.524  12.323  20.563  0.00  0.00    +0.000 NA
ATOM     15  C   UNL     1      -4.270  12.437  20.082  0.00  0.00    +0.000 A 
ATOM     16  N   UNL     1      -3.961  11.951  18.770  0.00  0.00    +0.000 N 
ATOM     17  N   UNL     1      -2.728  11.447  18.447  0.00  0.00    +0.000 NA
ATOM     18  C   UNL     1      -2.845  11.197  17.146  0.00  0.00    +0.000 A 
ATOM     19  C   UNL     1      -4.133  11.509  16.718  0.00  0.00    +0.000 A 
ATOM     20  N   UNL     1      -4.877  11.906  17.748  0.00  0.00    +0.000 NA
ENDBRANCH   8  10
BRANCH   5  21
ATOM     21  O   UNL     1       1.027  12.797  18.507  0.00  0.00    +0.000 OA
BRANCH  21  22
ATOM     22  C   UNL     1       1.847  13.907  18.447  0.00  0.00    +0.000 A 
ATOM     23  C   UNL     1       3.200  13.717  18.205  0.00  0.00    +0.000 A 
ATOM     24  C   UNL     1       4.020  14.844  18.102  0.00  0.00    +0.000 A 
ATOM     25  C   UNL     1       3.466  16.107  18.238  0.00  0.00    +0.000 A 
ATOM     26  C   UNL     1       2.106  16.196  18.481  0.00  0.00    +0.000 A 
ATOM     27  N   UNL     1       1.298  15.127  18.611  0.00  0.00    +0.000 NA
BRANCH  24  28
ATOM     28  C   UNL     1       5.419  14.683  17.889  0.00  0.00    +0.000 C 
ATOM     29  N   UNL     1       6.553  14.578  17.708  0.00  0.00    +0.000 NA
ENDBRANCH  24  28
ENDBRANCH  21  22
ENDBRANCH   5  21
TORSDOF 4
ENDMDL
MODEL 7
REMARK VINA RESULT:      -7.1      2.162      3.633
REMARK  Name = 
REMARK  6 active torsions:
REMARK  status: ('A' for Active; 'I' for Inactive)
REMARK    1  A    between atoms: C_1  and  C_2
REMARK    2  A    between atoms: C_5  and  O_6
REMARK    3  A    between atoms: O_6  and  C_7
REMARK    4  A    between atoms: C_9  and  C_10
REMARK    5  A    between atoms: C_17  and  C_19
REMARK    6  A    between atoms: N_21  and  C_22
REMARK                            x       y       z     vdW  Elec       q    Type
REMARK                         _______ _______ _______ _____ _____    ______ ____
ROOT
ATOM      1  C   UNL     1       0.511  10.156  21.743  0.00  0.00    +0.000 C 
ATOM      2  C   UNL     1       0.338   8.996  20.754  0.00  0.00    +0.000 C 
ATOM      3  C   UNL     1       0.485   7.675  21.526  0.00  0.00    +0.000 C 
ATOM      4  C   UNL     1       0.889   6.549  20.582  0.00  0.00    +0.000 C 
ATOM      5  C   UNL     1       2.283   6.800  19.981  0.00  0.00    +0.000 C 
ATOM      6  C   UNL     1       2.533   8.315  19.790  0.00  0.00    +0.000 C 
ATOM      7  N   UNL     1       1.286   9.076  19.632  0.00  0.00    +0.000 N 
ATOM      8  C   UNL     1       1.013   9.624  18.371  0.00  0.00    +0.000 C 
ATOM      9  O   UNL     1       1.825   9.505  17.454  0.00  0.00    +0.000 OA
ENDROOT
BRANCH   8  10
ATOM     10  C   UNL     1      -0.220  10.382  18.158  0.00  0.00    +0.000 A 
ATOM     11  C   UNL     1      -1.455   9.960  17.706  0.00  0.00    +0.000 A 
ATOM     12  N   UNL     1      -2.293  11.027  17.702  0.00  0.00    +0.000 N 
ATOM     13  C   UNL     1      -3.598  11.065  17.086  0.00  0.00    +0.000 C 
ATOM     14  N   UNL     1      -1.765  12.106  18.289  0.00  0.00    +0.000 NA
ATOM     15  C   UNL     1      -0.492  11.729  18.521  0.00  0.00    +0.000 A 
ATOM     16  N   UNL     1       0.445  12.669  19.062  0.00  0.00    +0.000 N 
ATOM     17  N   UNL     1       1.780  12.631  18.758  0.00  0.00    +0.000 NA
ATOM     18  C   UNL     1       2.282  13.601  19.518  0.00  0.00    +0.000 A 
ATOM     19  C   UNL     1       1.259  14.224  20.226  0.00  0.00    +0.000 A 
ATOM     20  N   UNL     1       0.081  13.706  19.886  0.00  0.00    +0.000 NA
ENDBRANCH   8  10
BRANCH   5  21
ATOM     21  O   UNL     1       2.430   6.120  18.717  0.00  0.00    +0.000 OA
BRANCH  21  22
ATOM     22  C   UNL     1       3.727   5.720  18.463  0.00  0.00    +0.000 A 
ATOM     23  C   UNL     1       4.183   5.749  17.152  0.00  0.00    +0.000 A 
ATOM     24  C   UNL     1       5.509   5.385  16.903  0.00  0.00    +0.000 A 
ATOM     25  C   UNL     1       6.326   5.014  17.960  0.00  0.00    +0.000 A 
ATOM     26  C   UNL     1       5.781   5.013  19.232  0.00  0.00    +0.000 A 
ATOM     27  N   UNL     1       4.500   5.334  19.497  0.00  0.00    +0.000 NA
BRANCH  24  28
ATOM     28  C   UNL     1       5.999   5.370  15.565  0.00  0.00    +0.000 C 
ATOM     29  N   UNL     1       6.408   5.335  14.489  0.00  0.00    +0.000 NA
ENDBRANCH  24  28
ENDBRANCH  21  22
ENDBRANCH   5  21
TORSDOF 4
ENDMDL
MODEL 8
REMARK VINA RESULT:      -7.1      2.959      4.415
REMARK  Name = 
REMARK  6 active torsions:
REMARK  status: ('A' for Active; 'I' for Inactive)
REMARK    1  A    between atoms: C_1  and  C_2
REMARK    2  A    between atoms: C_5  and  O_6
REMARK    3  A    between atoms: O_6  and  C_7
REMARK    4  A    between atoms: C_9  and  C_10
REMARK    5  A    between atoms: C_17  and  C_19
REMARK    6  A    between atoms: N_21  and  C_22
REMARK                            x       y       z     vdW  Elec       q    Type
REMARK                         _______ _______ _______ _____ _____    ______ ____
ROOT
ATOM      1  C   UNL     1      -3.349  11.955  19.127  0.00  0.00    +0.000 C 
ATOM      2  C   UNL     1      -1.856  11.774  18.825  0.00  0.00    +0.000 C 
ATOM      3  C   UNL     1      -1.697  10.582  17.868  0.00  0.00    +0.000 C 
ATOM      4  C   UNL     1      -0.294   9.998  17.974  0.00  0.00    +0.000 C 
ATOM      5  C   UNL     1      -0.043   9.404  19.371  0.00  0.00    +0.000 C 
ATOM      6  C   UNL     1      -0.805  10.205  20.452  0.00  0.00    +0.000 C 
ATOM      7  N   UNL     1      -1.059  11.595  20.049  0.00  0.00    +0.000 N 
ATOM      8  C   UNL     1      -0.358  12.606  20.722  0.00  0.00    +0.000 C 
ATOM      9  O   UNL     1       0.401  12.325  21.648  0.00  0.00    +0.000 OA
ENDROOT
BRANCH   8  10
ATOM     10  C   UNL     1      -0.568  14.006  20.351  0.00  0.00    +0.000 A 
ATOM     11  C   UNL     1      -1.561  14.886  20.735  0.00  0.00    +0.000 A 
ATOM     12  N   UNL     1      -1.315  16.085  20.148  0.00  0.00    +0.000 N 
ATOM     13  C   UNL     1      -2.231  17.199  20.103  0.00  0.00    +0.000 C 
ATOM     14  N   UNL     1      -0.127  16.131  19.536  0.00  0.00    +0.000 NA
ATOM     15  C   UNL     1       0.303  14.856  19.618  0.00  0.00    +0.000 A 
ATOM     16  N   UNL     1       1.523  14.471  18.974  0.00  0.00    +0.000 N 
ATOM     17  N   UNL     1       1.719  13.214  18.464  0.00  0.00    +0.000 NA
ATOM     18  C   UNL     1       2.980  13.260  18.045  0.00  0.00    +0.000 A 
ATOM     19  C   UNL     1       3.506  14.529  18.267  0.00  0.00    +0.000 A 
ATOM     20  N   UNL     1       2.574  15.333  18.774  0.00  0.00    +0.000 NA
ENDBRANCH   8  10
BRANCH   5  21
ATOM     21  O   UNL     1       1.367   9.390  19.679  0.00  0.00    +0.000 OA
BRANCH  21  22
ATOM     22  C   UNL     1       1.977   8.186  19.385  0.00  0.00    +0.000 A 
ATOM     23  C   UNL     1       1.809   7.128  20.266  0.00  0.00    +0.000 A 
ATOM     24  C   UNL     1       2.392   5.898  19.945  0.00  0.00    +0.000 A 
ATOM     25  C   UNL     1       3.107   5.768  18.765  0.00  0.00    +0.000 A 
ATOM     26  C   UNL     1       3.222   6.882  17.950  0.00  0.00    +0.000 A 
ATOM     27  N   UNL     1       2.694   8.084  18.248  0.00  0.00    +0.000 NA
BRANCH  24  28
ATOM     28  C   UNL     1       2.269   4.801  20.846  0.00  0.00    +0.000 C 
ATOM     29  N   UNL     1       2.155   3.901  21.556  0.00  0.00    +0.000 NA
ENDBRANCH  24  28
ENDBRANCH  21  22
ENDBRANCH   5  21
TORSDOF 4
ENDMDL
MODEL 9
REMARK VINA RESULT:      -7.0      2.778      4.650
REMARK  Name = 
REMARK  6 active torsions:
REMARK  status: ('A' for Active; 'I' for Inactive)
REMARK    1  A    between atoms: C_1  and  C_2
REMARK    2  A    between atoms: C_5  and  O_6
REMARK    3  A    between atoms: O_6  and  C_7
REMARK    4  A    between atoms: C_9  and  C_10
REMARK    5  A    between atoms: C_17  and  C_19
REMARK    6  A    between atoms: N_21  and  C_22
REMARK                            x       y       z     vdW  Elec       q    Type
REMARK                         _______ _______ _______ _____ _____    ______ ____
ROOT
ATOM      1  C   UNL     1      -2.616  12.113  19.075  0.00  0.00    +0.000 C 
ATOM      2  C   UNL     1      -1.173  11.696  18.764  0.00  0.00    +0.000 C 
ATOM      3  C   UNL     1      -1.212  10.419  17.909  0.00  0.00    +0.000 C 
ATOM      4  C   UNL     1       0.097   9.651  18.041  0.00  0.00    +0.000 C 
ATOM      5  C   UNL     1       0.303   9.144  19.479  0.00  0.00    +0.000 C 
ATOM      6  C   UNL     1      -0.307  10.133  20.500  0.00  0.00    +0.000 C 
ATOM      7  N   UNL     1      -0.374  11.507  19.984  0.00  0.00    +0.000 N 
ATOM      8  C   UNL     1       0.481  12.459  20.556  0.00  0.00    +0.000 C 
ATOM      9  O   UNL     1       1.220  12.150  21.489  0.00  0.00    +0.000 OA
ENDROOT
BRANCH   8  10
ATOM     10  C   UNL     1       0.460  13.840  20.070  0.00  0.00    +0.000 A 
ATOM     11  C   UNL     1       1.284  14.473  19.161  0.00  0.00    +0.000 A 
ATOM     12  N   UNL     1       0.853  15.751  19.015  0.00  0.00    +0.000 N 
ATOM     13  C   UNL     1       1.569  16.806  18.340  0.00  0.00    +0.000 C 
ATOM     14  N   UNL     1      -0.315  15.979  19.626  0.00  0.00    +0.000 NA
ATOM     15  C   UNL     1      -0.527  14.834  20.306  0.00  0.00    +0.000 A 
ATOM     16  N   UNL     1      -1.653  14.722  21.184  0.00  0.00    +0.000 N 
ATOM     17  N   UNL     1      -1.626  13.954  22.318  0.00  0.00    +0.000 NA
ATOM     18  C   UNL     1      -2.869  14.064  22.777  0.00  0.00    +0.000 A 
ATOM     19  C   UNL     1      -3.605  14.911  21.954  0.00  0.00    +0.000 A 
ATOM     20  N   UNL     1      -2.830  15.405  20.990  0.00  0.00    +0.000 NA
ENDBRANCH   8  10
BRANCH   5  21
ATOM     21  O   UNL     1       1.706   8.955  19.763  0.00  0.00    +0.000 OA
BRANCH  21  22
ATOM     22  C   UNL     1       2.149   7.677  19.483  0.00  0.00    +0.000 A 
ATOM     23  C   UNL     1       1.938   6.682  20.426  0.00  0.00    +0.000 A 
ATOM     24  C   UNL     1       2.350   5.381  20.123  0.00  0.00    +0.000 A 
ATOM     25  C   UNL     1       2.946   5.122  18.899  0.00  0.00    +0.000 A 
ATOM     26  C   UNL     1       3.117   6.180  18.023  0.00  0.00    +0.000 A 
ATOM     27  N   UNL     1       2.754   7.447  18.300  0.00  0.00    +0.000 NA
BRANCH  24  28
ATOM     28  C   UNL     1       2.180   4.344  21.083  0.00  0.00    +0.000 C 
ATOM     29  N   UNL     1       2.036   3.523  21.879  0.00  0.00    +0.000 NA
ENDBRANCH  24  28
ENDBRANCH  21  22
ENDBRANCH   5  21
TORSDOF 4
ENDMDL
