MODEL 1
REMARK VINA RESULT:      -8.9      0.000      0.000
REMARK  Name = 
REMARK  6 active torsions:
REMARK  status: ('A' for Active; 'I' for Inactive)
REMARK    1  A    between atoms: C_2  and  C_13
REMARK    2  A    between atoms: N_3  and  C_4
REMARK    3  A    between atoms: C_4  and  C_5
REMARK    4  A    between atoms: C_17  and  O_18
REMARK    5  A    between atoms: C_24  and  C_25
REMARK    6  A    between atoms: C_25  and  C_26
REMARK                            x       y       z     vdW  Elec       q    Type
REMARK                         _______ _______ _______ _____ _____    ______ ____
ROOT
ATOM      1  C   UNL     1       0.145  10.432  21.272  0.00  0.00    +0.000 A 
ATOM      2  C   UNL     1       0.515   9.167  21.524  0.00  0.00    +0.000 A 
ATOM      3  N   UNL     1       1.237   8.358  20.653  0.00  0.00    +0.000 N 
ATOM      4  C   UNL     1       1.617   8.891  19.403  0.00  0.00    +0.000 A 
ATOM      5  C   UNL     1       1.360  10.167  19.029  0.00  0.00    +0.000 A 
ATOM      6  C   UNL     1       0.550  11.015  19.968  0.00  0.00    +0.000 A 
ATOM      7  O   UNL     1       0.188  12.149  19.652  0.00  0.00    +0.000 OA
ATOM      8  C   UNL     1       2.238   7.989  18.352  0.00  0.00    +0.000 C 
ATOM      9  O   UNL     1       2.473   8.396  17.215  0.00  0.00    +0.000 OA
ATOM     10  N   UNL     1       2.400   6.685  18.726  0.00  0.00    +0.000 N 
ATOM     11  C   UNL     1       2.520   5.572  17.822  0.00  0.00    +0.000 C 
ATOM     12  C   UNL     1       2.146   4.414  18.735  0.00  0.00    +0.000 C 
ATOM     13  O   UNL     1       2.418   4.843  20.086  0.00  0.00    +0.000 OA
ATOM     14  C   UNL     1       2.471   6.275  20.097  0.00  0.00    +0.000 C 
ATOM     15  C   UNL     1       1.352   6.907  20.932  0.00  0.00    +0.000 C 
ENDROOT
BRANCH   1  17
ATOM     16  O   UNL     1      -0.722  10.795  23.450  0.00  0.00    +0.000 OA
ATOM     17  C   UNL     1      -0.723  11.119  22.265  0.00  0.00    +0.000 C 
ATOM     18  N   UNL     1      -1.540  12.088  21.745  0.00  0.00    +0.000 N 
ATOM     19  H   UNL     1      -1.333  12.413  20.802  0.00  0.00    +0.000 HD
BRANCH  18  20
ATOM     20  C   UNL     1      -2.457  12.849  22.564  0.00  0.00    +0.000 C 
BRANCH  20  21
ATOM     21  C   UNL     1      -3.898  12.742  22.125  0.00  0.00    +0.000 A 
ATOM     22  C   UNL     1      -4.302  12.655  20.784  0.00  0.00    +0.000 A 
ATOM     23  C   UNL     1      -5.659  12.587  20.456  0.00  0.00    +0.000 A 
ATOM     24  C   UNL     1      -6.618  12.627  21.462  0.00  0.00    +0.000 A 
ATOM     25  F   UNL     1      -7.917  12.565  21.140  0.00  0.00    +0.000 F 
ATOM     26  C   UNL     1      -6.250  12.742  22.794  0.00  0.00    +0.000 A 
ATOM     27  C   UNL     1      -4.898  12.804  23.111  0.00  0.00    +0.000 A 
ATOM     28  F   UNL     1      -4.555  12.932  24.401  0.00  0.00    +0.000 F 
ENDBRANCH  20  21
ENDBRANCH  18  20
ENDBRANCH   1  17
BRANCH   5  29
ATOM     29  O   UNL     1       1.723  10.743  17.820  0.00  0.00    +0.000 OA
ATOM     30  H   UNL     1       0.954  11.243  17.467  0.00  0.00    +0.000 HD
ENDBRANCH   5  29
BRANCH  11  31
ATOM     31  C   UNL     1       3.923   5.490  17.207  0.00  0.00    +0.000 C 
BRANCH  31  32
ATOM     32  C   UNL     1       4.693   4.176  17.481  0.00  0.00    +0.000 C 
ATOM     33  C   UNL     1       5.475   3.630  16.272  0.00  0.00    +0.000 C 
ATOM     34  C   UNL     1       6.630   4.543  15.870  0.00  0.00    +0.000 C 
ATOM     35  C   UNL     1       7.589   4.759  17.037  0.00  0.00    +0.000 C 
ATOM     36  C   UNL     1       6.877   5.240  18.299  0.00  0.00    +0.000 C 
ATOM     37  C   UNL     1       5.671   4.366  18.656  0.00  0.00    +0.000 C 
ENDBRANCH  31  32
ENDBRANCH  11  31
TORSDOF 6
ENDMDL
MODEL 2
REMARK VINA RESULT:      -8.7      4.286      5.695
REMARK  Name = 
REMARK  6 active torsions:
REMARK  status: ('A' for Active; 'I' for Inactive)
REMARK    1  A    between atoms: C_2  and  C_13
REMARK    2  A    between atoms: N_3  and  C_4
REMARK    3  A    between atoms: C_4  and  C_5
REMARK    4  A    between atoms: C_17  and  O_18
REMARK    5  A    between atoms: C_24  and  C_25
REMARK    6  A    between atoms: C_25  and  C_26
REMARK                            x       y       z     vdW  Elec       q    Type
REMARK                         _______ _______ _______ _____ _____    ______ ____
ROOT
ATOM      1  C   UNL     1       0.082  12.602  20.672  0.00  0.00    +0.000 A 
ATOM      2  C   UNL     1       0.584  12.071  19.547  0.00  0.00    +0.000 A 
ATOM      3  N   UNL     1       0.936  10.735  19.382  0.00  0.00    +0.000 N 
ATOM      4  C   UNL     1       0.759   9.857  20.473  0.00  0.00    +0.000 A 
ATOM      5  C   UNL     1       0.216  10.237  21.654  0.00  0.00    +0.000 A 
ATOM      6  C   UNL     1      -0.126  11.690  21.825  0.00  0.00    +0.000 A 
ATOM      7  O   UNL     1      -0.525  12.129  22.904  0.00  0.00    +0.000 OA
ATOM      8  C   UNL     1       1.301   8.441  20.400  0.00  0.00    +0.000 C 
ATOM      9  O   UNL     1       1.266   7.690  21.374  0.00  0.00    +0.000 OA
ATOM     10  N   UNL     1       1.927   8.116  19.231  0.00  0.00    +0.000 N 
ATOM     11  C   UNL     1       2.892   7.062  19.071  0.00  0.00    +0.000 C 
ATOM     12  C   UNL     1       3.593   7.499  17.794  0.00  0.00    +0.000 C 
ATOM     13  O   UNL     1       2.664   8.336  17.074  0.00  0.00    +0.000 OA
ATOM     14  C   UNL     1       1.679   8.809  18.001  0.00  0.00    +0.000 C 
ATOM     15  C   UNL     1       1.722  10.329  18.193  0.00  0.00    +0.000 C 
ENDROOT
BRANCH   1  17
ATOM     16  O   UNL     1      -1.263  14.556  20.678  0.00  0.00    +0.000 OA
ATOM     17  C   UNL     1      -0.134  14.072  20.716  0.00  0.00    +0.000 C 
ATOM     18  N   UNL     1       1.011  14.824  20.751  0.00  0.00    +0.000 N 
ATOM     19  H   UNL     1       1.878  14.337  20.971  0.00  0.00    +0.000 HD
BRANCH  18  20
ATOM     20  C   UNL     1       0.988  16.269  20.785  0.00  0.00    +0.000 C 
BRANCH  20  21
ATOM     21  C   UNL     1       0.847  16.908  19.424  0.00  0.00    +0.000 A 
ATOM     22  C   UNL     1      -0.381  17.303  18.870  0.00  0.00    +0.000 A 
ATOM     23  C   UNL     1      -0.433  17.863  17.590  0.00  0.00    +0.000 A 
ATOM     24  C   UNL     1       0.736  18.011  16.851  0.00  0.00    +0.000 A 
ATOM     25  F   UNL     1       0.677  18.546  15.624  0.00  0.00    +0.000 F 
ATOM     26  C   UNL     1       1.959  17.603  17.360  0.00  0.00    +0.000 A 
ATOM     27  C   UNL     1       2.002  17.052  18.635  0.00  0.00    +0.000 A 
ATOM     28  F   UNL     1       3.188  16.646  19.111  0.00  0.00    +0.000 F 
ENDBRANCH  20  21
ENDBRANCH  18  20
ENDBRANCH   1  17
BRANCH   5  29
ATOM     29  O   UNL     1       0.008   9.412  22.749  0.00  0.00    +0.000 OA
ATOM     30  H   UNL     1      -0.853   8.951  22.637  0.00  0.00    +0.000 HD
ENDBRANCH   5  29
BRANCH  11  31
ATOM     31  C   UNL     1       2.221   5.684  19.006  0.00  0.00    +0.000 C 
BRANCH  31  32
ATOM     32  C   UNL     1       2.615   4.697  20.131  0.00  0.00    +0.000 C 
ATOM     33  C   UNL     1       1.431   3.945  20.765  0.00  0.00    +0.000 C 
ATOM     34  C   UNL     1       0.763   2.985  19.785  0.00  0.00    +0.000 C 
ATOM     35  C   UNL     1       1.767   1.976  19.235  0.00  0.00    +0.000 C 
ATOM     36  C   UNL     1       3.007   2.645  18.646  0.00  0.00    +0.000 C 
ATOM     37  C   UNL     1       3.630   3.664  19.603  0.00  0.00    +0.000 C 
ENDBRANCH  31  32
ENDBRANCH  11  31
TORSDOF 6
ENDMDL
MODEL 3
REMARK VINA RESULT:      -8.6      0.822      1.021
REMARK  Name = 
REMARK  6 active torsions:
REMARK  status: ('A' for Active; 'I' for Inactive)
REMARK    1  A    between atoms: C_2  and  C_13
REMARK    2  A    between atoms: N_3  and  C_4
REMARK    3  A    between atoms: C_4  and  C_5
REMARK    4  A    between atoms: C_17  and  O_18
REMARK    5  A    between atoms: C_24  and  C_25
REMARK    6  A    between atoms: C_25  and  C_26
REMARK                            x       y       z     vdW  Elec       q    Type
REMARK                         _______ _______ _______ _____ _____    ______ ____
ROOT
ATOM      1  C   UNL     1       0.205   9.821  21.406  0.00  0.00    +0.000 A 
ATOM      2  C   UNL     1       0.752   8.611  21.590  0.00  0.00    +0.000 A 
ATOM      3  N   UNL     1       1.532   7.936  20.655  0.00  0.00    +0.000 N 
ATOM      4  C   UNL     1       1.775   8.560  19.412  0.00  0.00    +0.000 A 
ATOM      5  C   UNL     1       1.333   9.801  19.102  0.00  0.00    +0.000 A 
ATOM      6  C   UNL     1       0.464  10.499  20.110  0.00  0.00    +0.000 A 
ATOM      7  O   UNL     1      -0.061  11.584  19.858  0.00  0.00    +0.000 OA
ATOM      8  C   UNL     1       2.458   7.786  18.299  0.00  0.00    +0.000 C 
ATOM      9  O   UNL     1       2.581   8.260  17.171  0.00  0.00    +0.000 OA
ATOM     10  N   UNL     1       2.810   6.504  18.611  0.00  0.00    +0.000 N 
ATOM     11  C   UNL     1       3.032   5.449  17.658  0.00  0.00    +0.000 C 
ATOM     12  C   UNL     1       2.861   4.220  18.538  0.00  0.00    +0.000 C 
ATOM     13  O   UNL     1       3.140   4.634  19.892  0.00  0.00    +0.000 OA
ATOM     14  C   UNL     1       3.003   6.060  19.960  0.00  0.00    +0.000 C 
ATOM     15  C   UNL     1       1.852   6.505  20.869  0.00  0.00    +0.000 C 
ENDROOT
BRANCH   1  17
ATOM     16  O   UNL     1      -1.128   9.628  23.360  0.00  0.00    +0.000 OA
ATOM     17  C   UNL     1      -0.696  10.350  22.464  0.00  0.00    +0.000 C 
ATOM     18  N   UNL     1      -1.034  11.671  22.327  0.00  0.00    +0.000 N 
ATOM     19  H   UNL     1      -0.482  12.226  21.675  0.00  0.00    +0.000 HD
BRANCH  18  20
ATOM     20  C   UNL     1      -1.911  12.346  23.258  0.00  0.00    +0.000 C 
BRANCH  20  21
ATOM     21  C   UNL     1      -3.306  12.574  22.726  0.00  0.00    +0.000 A 
ATOM     22  C   UNL     1      -3.605  12.749  21.366  0.00  0.00    +0.000 A 
ATOM     23  C   UNL     1      -4.920  12.983  20.955  0.00  0.00    +0.000 A 
ATOM     24  C   UNL     1      -5.937  13.064  21.899  0.00  0.00    +0.000 A 
ATOM     25  F   UNL     1      -7.195  13.292  21.497  0.00  0.00    +0.000 F 
ATOM     26  C   UNL     1      -5.668  12.924  23.252  0.00  0.00    +0.000 A 
ATOM     27  C   UNL     1      -4.358  12.687  23.651  0.00  0.00    +0.000 A 
ATOM     28  F   UNL     1      -4.107  12.569  24.963  0.00  0.00    +0.000 F 
ENDBRANCH  20  21
ENDBRANCH  18  20
ENDBRANCH   1  17
BRANCH   5  29
ATOM     29  O   UNL     1       1.556  10.462  17.904  0.00  0.00    +0.000 OA
ATOM     30  H   UNL     1       2.159   9.916  17.351  0.00  0.00    +0.000 HD
ENDBRANCH   5  29
BRANCH  11  31
ATOM     31  C   UNL     1       4.401   5.578  16.979  0.00  0.00    +0.000 C 
BRANCH  31  32
ATOM     32  C   UNL     1       5.207   4.263  16.851  0.00  0.00    +0.000 C 
ATOM     33  C   UNL     1       5.021   3.526  15.512  0.00  0.00    +0.000 C 
ATOM     34  C   UNL     1       5.592   4.311  14.335  0.00  0.00    +0.000 C 
ATOM     35  C   UNL     1       7.074   4.610  14.545  0.00  0.00    +0.000 C 
ATOM     36  C   UNL     1       7.351   5.285  15.886  0.00  0.00    +0.000 C 
ATOM     37  C   UNL     1       6.710   4.537  17.058  0.00  0.00    +0.000 C 
ENDBRANCH  31  32
ENDBRANCH  11  31
TORSDOF 6
ENDMDL
MODEL 4
REMARK VINA RESULT:      -8.6      4.518     11.035
REMARK  Name = 
REMARK  6 active torsions:
REMARK  status: ('A' for Active; 'I' for Inactive)
REMARK    1  A    between atoms: C_2  and  C_13
REMARK    2  A    between atoms: N_3  and  C_4
REMARK    3  A    between atoms: C_4  and  C_5
REMARK    4  A    between atoms: C_17  and  O_18
REMARK    5  A    between atoms: C_24  and  C_25
REMARK    6  A    between atoms: C_25  and  C_26
REMARK                            x       y       z     vdW  Elec       q    Type
REMARK                         _______ _______ _______ _____ _____    ______ ____
ROOT
ATOM      1  C   UNL     1       3.135   6.703  18.653  0.00  0.00    +0.000 A 
ATOM      2  C   UNL     1       2.360   6.714  19.748  0.00  0.00    +0.000 A 
ATOM      3  N   UNL     1       1.496   7.743  20.106  0.00  0.00    +0.000 N 
ATOM      4  C   UNL     1       1.416   8.873  19.262  0.00  0.00    +0.000 A 
ATOM      5  C   UNL     1       2.098   8.982  18.097  0.00  0.00    +0.000 A 
ATOM      6  C   UNL     1       3.051   7.876  17.746  0.00  0.00    +0.000 A 
ATOM      7  O   UNL     1       3.782   7.953  16.758  0.00  0.00    +0.000 OA
ATOM      8  C   UNL     1       0.633  10.095  19.707  0.00  0.00    +0.000 C 
ATOM      9  O   UNL     1       0.640  11.134  19.049  0.00  0.00    +0.000 OA
ATOM     10  N   UNL     1       0.033   9.989  20.929  0.00  0.00    +0.000 N 
ATOM     11  C   UNL     1      -0.357  11.098  21.760  0.00  0.00    +0.000 C 
ATOM     12  C   UNL     1      -0.453  10.422  23.120  0.00  0.00    +0.000 C 
ATOM     13  O   UNL     1      -0.690   9.020  22.874  0.00  0.00    +0.000 OA
ATOM     14  C   UNL     1      -0.284   8.728  21.530  0.00  0.00    +0.000 C 
ATOM     15  C   UNL     1       0.901   7.759  21.463  0.00  0.00    +0.000 C 
ENDROOT
BRANCH   1  17
ATOM     16  O   UNL     1       4.651   5.056  19.441  0.00  0.00    +0.000 OA
ATOM     17  C   UNL     1       4.086   5.574  18.479  0.00  0.00    +0.000 C 
ATOM     18  N   UNL     1       4.311   5.203  17.179  0.00  0.00    +0.000 N 
ATOM     19  H   UNL     1       3.663   5.555  16.478  0.00  0.00    +0.000 HD
BRANCH  18  20
ATOM     20  C   UNL     1       5.216   4.133  16.825  0.00  0.00    +0.000 C 
BRANCH  20  21
ATOM     21  C   UNL     1       5.786   4.252  15.431  0.00  0.00    +0.000 A 
ATOM     22  C   UNL     1       5.307   3.530  14.327  0.00  0.00    +0.000 A 
ATOM     23  C   UNL     1       5.907   3.675  13.073  0.00  0.00    +0.000 A 
ATOM     24  C   UNL     1       6.997   4.523  12.920  0.00  0.00    +0.000 A 
ATOM     25  F   UNL     1       7.569   4.654  11.715  0.00  0.00    +0.000 F 
ATOM     26  C   UNL     1       7.510   5.227  13.998  0.00  0.00    +0.000 A 
ATOM     27  C   UNL     1       6.905   5.081  15.241  0.00  0.00    +0.000 A 
ATOM     28  F   UNL     1       7.420   5.754  16.280  0.00  0.00    +0.000 F 
ENDBRANCH  20  21
ENDBRANCH  18  20
ENDBRANCH   1  17
BRANCH   5  29
ATOM     29  O   UNL     1       2.043  10.062  17.228  0.00  0.00    +0.000 OA
ATOM     30  H   UNL     1       1.127  10.139  16.881  0.00  0.00    +0.000 HD
ENDBRANCH   5  29
BRANCH  11  31
ATOM     31  C   UNL     1      -1.654  11.749  21.265  0.00  0.00    +0.000 C 
BRANCH  31  32
ATOM     32  C   UNL     1      -1.898  13.199  21.748  0.00  0.00    +0.000 C 
ATOM     33  C   UNL     1      -2.957  13.972  20.940  0.00  0.00    +0.000 C 
ATOM     34  C   UNL     1      -4.356  13.390  21.113  0.00  0.00    +0.000 C 
ATOM     35  C   UNL     1      -4.761  13.365  22.584  0.00  0.00    +0.000 C 
ATOM     36  C   UNL     1      -3.726  12.670  23.465  0.00  0.00    +0.000 C 
ATOM     37  C   UNL     1      -2.310  13.204  23.233  0.00  0.00    +0.000 C 
ENDBRANCH  31  32
ENDBRANCH  11  31
TORSDOF 6
ENDMDL
MODEL 5
REMARK VINA RESULT:      -8.6      0.941      1.302
REMARK  Name = 
REMARK  6 active torsions:
REMARK  status: ('A' for Active; 'I' for Inactive)
REMARK    1  A    between atoms: C_2  and  C_13
REMARK    2  A    between atoms: N_3  and  C_4
REMARK    3  A    between atoms: C_4  and  C_5
REMARK    4  A    between atoms: C_17  and  O_18
REMARK    5  A    between atoms: C_24  and  C_25
REMARK    6  A    between atoms: C_25  and  C_26
REMARK                            x       y       z     vdW  Elec       q    Type
REMARK                         _______ _______ _______ _____ _____    ______ ____
ROOT
ATOM      1  C   UNL     1       0.095  10.596  21.470  0.00  0.00    +0.000 A 
ATOM      2  C   UNL     1       0.485   9.336  21.712  0.00  0.00    +0.000 A 
ATOM      3  N   UNL     1       1.194   8.535  20.822  0.00  0.00    +0.000 N 
ATOM      4  C   UNL     1       1.535   9.073  19.563  0.00  0.00    +0.000 A 
ATOM      5  C   UNL     1       1.255  10.346  19.196  0.00  0.00    +0.000 A 
ATOM      6  C   UNL     1       0.460  11.185  20.157  0.00  0.00    +0.000 A 
ATOM      7  O   UNL     1       0.077  12.315  19.851  0.00  0.00    +0.000 OA
ATOM      8  C   UNL     1       2.140   8.179  18.496  0.00  0.00    +0.000 C 
ATOM      9  O   UNL     1       2.341   8.588  17.354  0.00  0.00    +0.000 OA
ATOM     10  N   UNL     1       2.325   6.876  18.864  0.00  0.00    +0.000 N 
ATOM     11  C   UNL     1       2.435   5.765  17.956  0.00  0.00    +0.000 C 
ATOM     12  C   UNL     1       2.098   4.602  18.878  0.00  0.00    +0.000 C 
ATOM     13  O   UNL     1       2.400   5.033  20.222  0.00  0.00    +0.000 OA
ATOM     14  C   UNL     1       2.437   6.467  20.232  0.00  0.00    +0.000 C 
ATOM     15  C   UNL     1       1.332   7.085  21.097  0.00  0.00    +0.000 C 
ENDROOT
BRANCH   1  17
ATOM     16  O   UNL     1      -1.409  10.632  23.305  0.00  0.00    +0.000 OA
ATOM     17  C   UNL     1      -0.754  11.273  22.486  0.00  0.00    +0.000 C 
ATOM     18  N   UNL     1      -0.782  12.640  22.397  0.00  0.00    +0.000 N 
ATOM     19  H   UNL     1      -0.068  13.082  21.820  0.00  0.00    +0.000 HD
BRANCH  18  20
ATOM     20  C   UNL     1      -1.564  13.459  23.296  0.00  0.00    +0.000 C 
BRANCH  20  21
ATOM     21  C   UNL     1      -3.055  13.354  23.075  0.00  0.00    +0.000 A 
ATOM     22  C   UNL     1      -3.969  12.987  24.075  0.00  0.00    +0.000 A 
ATOM     23  C   UNL     1      -5.332  12.885  23.783  0.00  0.00    +0.000 A 
ATOM     24  C   UNL     1      -5.785  13.127  22.491  0.00  0.00    +0.000 A 
ATOM     25  F   UNL     1      -7.093  13.024  22.219  0.00  0.00    +0.000 F 
ATOM     26  C   UNL     1      -4.902  13.462  21.477  0.00  0.00    +0.000 A 
ATOM     27  C   UNL     1      -3.549  13.566  21.776  0.00  0.00    +0.000 A 
ATOM     28  F   UNL     1      -2.702  13.874  20.783  0.00  0.00    +0.000 F 
ENDBRANCH  20  21
ENDBRANCH  18  20
ENDBRANCH   1  17
BRANCH   5  29
ATOM     29  O   UNL     1       1.580  10.927  17.980  0.00  0.00    +0.000 OA
ATOM     30  H   UNL     1       0.925  10.635  17.307  0.00  0.00    +0.000 HD
ENDBRANCH   5  29
BRANCH  11  31
ATOM     31  C   UNL     1       3.822   5.699  17.306  0.00  0.00    +0.000 C 
BRANCH  31  32
ATOM     32  C   UNL     1       4.574   4.357  17.475  0.00  0.00    +0.000 C 
ATOM     33  C   UNL     1       5.187   3.799  16.178  0.00  0.00    +0.000 C 
ATOM     34  C   UNL     1       6.316   4.677  15.647  0.00  0.00    +0.000 C 
ATOM     35  C   UNL     1       7.415   4.847  16.693  0.00  0.00    +0.000 C 
ATOM     36  C   UNL     1       6.875   5.336  18.035  0.00  0.00    +0.000 C 
ATOM     37  C   UNL     1       5.691   4.500  18.527  0.00  0.00    +0.000 C 
ENDBRANCH  31  32
ENDBRANCH  11  31
TORSDOF 6
ENDMDL
MODEL 6
REMARK VINA RESULT:      -8.6      4.142      5.467
REMARK  Name = 
REMARK  6 active torsions:
REMARK  status: ('A' for Active; 'I' for Inactive)
REMARK    1  A    between atoms: C_2  and  C_13
REMARK    2  A    between atoms: N_3  and  C_4
REMARK    3  A    between atoms: C_4  and  C_5
REMARK    4  A    between atoms: C_17  and  O_18
REMARK    5  A    between atoms: C_24  and  C_25
REMARK    6  A    between atoms: C_25  and  C_26
REMARK                            x       y       z     vdW  Elec       q    Type
REMARK                         _______ _______ _______ _____ _____    ______ ____
ROOT
ATOM      1  C   UNL     1      -0.263  12.526  20.787  0.00  0.00    +0.000 A 
ATOM      2  C   UNL     1       0.212  12.000  19.648  0.00  0.00    +0.000 A 
ATOM      3  N   UNL     1       0.668  10.694  19.500  0.00  0.00    +0.000 N 
ATOM      4  C   UNL     1       0.637   9.843  20.626  0.00  0.00    +0.000 A 
ATOM      5  C   UNL     1       0.137  10.216  21.828  0.00  0.00    +0.000 A 
ATOM      6  C   UNL     1      -0.319  11.639  21.978  0.00  0.00    +0.000 A 
ATOM      7  O   UNL     1      -0.686  12.081  23.067  0.00  0.00    +0.000 OA
ATOM      8  C   UNL     1       1.294   8.476  20.559  0.00  0.00    +0.000 C 
ATOM      9  O   UNL     1       1.385   7.760  21.555  0.00  0.00    +0.000 OA
ATOM     10  N   UNL     1       1.871   8.165  19.361  0.00  0.00    +0.000 N 
ATOM     11  C   UNL     1       2.913   7.191  19.171  0.00  0.00    +0.000 C 
ATOM     12  C   UNL     1       3.493   7.642  17.838  0.00  0.00    +0.000 C 
ATOM     13  O   UNL     1       2.451   8.372  17.155  0.00  0.00    +0.000 OA
ATOM     14  C   UNL     1       1.488   8.791  18.131  0.00  0.00    +0.000 C 
ATOM     15  C   UNL     1       1.410  10.315  18.275  0.00  0.00    +0.000 C 
ENDROOT
BRANCH   1  17
ATOM     16  O   UNL     1      -1.766  14.360  20.704  0.00  0.00    +0.000 OA
ATOM     17  C   UNL     1      -0.603  13.973  20.802  0.00  0.00    +0.000 C 
ATOM     18  N   UNL     1       0.472  14.818  20.883  0.00  0.00    +0.000 N 
ATOM     19  H   UNL     1       1.365  14.408  21.151  0.00  0.00    +0.000 HD
BRANCH  18  20
ATOM     20  C   UNL     1       0.327  16.257  20.896  0.00  0.00    +0.000 C 
BRANCH  20  21
ATOM     21  C   UNL     1       0.371  16.887  19.525  0.00  0.00    +0.000 A 
ATOM     22  C   UNL     1      -0.769  17.285  18.811  0.00  0.00    +0.000 A 
ATOM     23  C   UNL     1      -0.648  17.836  17.532  0.00  0.00    +0.000 A 
ATOM     24  C   UNL     1       0.609  17.973  16.953  0.00  0.00    +0.000 A 
ATOM     25  F   UNL     1       0.718  18.499  15.726  0.00  0.00    +0.000 F 
ATOM     26  C   UNL     1       1.751  17.562  17.622  0.00  0.00    +0.000 A 
ATOM     27  C   UNL     1       1.621  17.019  18.895  0.00  0.00    +0.000 A 
ATOM     28  F   UNL     1       2.732  16.610  19.527  0.00  0.00    +0.000 F 
ENDBRANCH  20  21
ENDBRANCH  18  20
ENDBRANCH   1  17
BRANCH   5  29
ATOM     29  O   UNL     1       0.071   9.415  22.958  0.00  0.00    +0.000 OA
ATOM     30  H   UNL     1       0.199   8.478  22.688  0.00  0.00    +0.000 HD
ENDBRANCH   5  29
BRANCH  11  31
ATOM     31  C   UNL     1       2.362   5.760  19.190  0.00  0.00    +0.000 C 
BRANCH  31  32
ATOM     32  C   UNL     1       2.585   4.943  17.895  0.00  0.00    +0.000 C 
ATOM     33  C   UNL     1       3.811   4.011  17.930  0.00  0.00    +0.000 C 
ATOM     34  C   UNL     1       3.649   2.879  18.940  0.00  0.00    +0.000 C 
ATOM     35  C   UNL     1       2.397   2.057  18.645  0.00  0.00    +0.000 C 
ATOM     36  C   UNL     1       1.143   2.921  18.529  0.00  0.00    +0.000 C 
ATOM     37  C   UNL     1       1.335   4.101  17.573  0.00  0.00    +0.000 C 
ENDBRANCH  31  32
ENDBRANCH  11  31
TORSDOF 6
ENDMDL
MODEL 7
REMARK VINA RESULT:      -8.6      3.641     10.592
REMARK  Name = 
REMARK  6 active torsions:
REMARK  status: ('A' for Active; 'I' for Inactive)
REMARK    1  A    between atoms: C_2  and  C_13
REMARK    2  A    between atoms: N_3  and  C_4
REMARK    3  A    between atoms: C_4  and  C_5
REMARK    4  A    between atoms: C_17  and  O_18
REMARK    5  A    between atoms: C_24  and  C_25
REMARK    6  A    between atoms: C_25  and  C_26
REMARK                            x       y       z     vdW  Elec       q    Type
REMARK                         _______ _______ _______ _____ _____    ______ ____
ROOT
ATOM      1  C   UNL     1       0.361  10.240  18.748  0.00  0.00    +0.000 A 
ATOM      2  C   UNL     1      -0.731  10.209  17.970  0.00  0.00    +0.000 A 
ATOM      3  N   UNL     1      -1.920  10.881  18.234  0.00  0.00    +0.000 N 
ATOM      4  C   UNL     1      -2.001  11.660  19.409  0.00  0.00    +0.000 A 
ATOM      5  C   UNL     1      -0.965  11.829  20.264  0.00  0.00    +0.000 A 
ATOM      6  C   UNL     1       0.299  11.068  19.980  0.00  0.00    +0.000 A 
ATOM      7  O   UNL     1       1.246  11.088  20.767  0.00  0.00    +0.000 OA
ATOM      8  C   UNL     1      -3.332  12.255  19.831  0.00  0.00    +0.000 C 
ATOM      9  O   UNL     1      -3.462  12.839  20.906  0.00  0.00    +0.000 OA
ATOM     10  N   UNL     1      -4.380  11.989  18.997  0.00  0.00    +0.000 N 
ATOM     11  C   UNL     1      -5.769  12.026  19.371  0.00  0.00    +0.000 C 
ATOM     12  C   UNL     1      -6.389  11.171  18.275  0.00  0.00    +0.000 C 
ATOM     13  O   UNL     1      -5.493  11.227  17.145  0.00  0.00    +0.000 OA
ATOM     14  C   UNL     1      -4.204  11.639  17.619  0.00  0.00    +0.000 C 
ATOM     15  C   UNL     1      -3.132  10.556  17.446  0.00  0.00    +0.000 C 
ENDROOT
BRANCH   1  17
ATOM     16  O   UNL     1       2.248   9.653  17.435  0.00  0.00    +0.000 OA
ATOM     17  C   UNL     1       1.511   9.373  18.378  0.00  0.00    +0.000 C 
ATOM     18  N   UNL     1       1.642   8.236  19.130  0.00  0.00    +0.000 N 
ATOM     19  H   UNL     1       1.109   8.189  19.997  0.00  0.00    +0.000 HD
BRANCH  18  20
ATOM     20  C   UNL     1       2.695   7.272  18.901  0.00  0.00    +0.000 C 
BRANCH  20  21
ATOM     21  C   UNL     1       2.230   5.836  18.950  0.00  0.00    +0.000 A 
ATOM     22  C   UNL     1       2.209   4.983  17.836  0.00  0.00    +0.000 A 
ATOM     23  C   UNL     1       1.737   3.673  17.956  0.00  0.00    +0.000 A 
ATOM     24  C   UNL     1       1.265   3.217  19.182  0.00  0.00    +0.000 A 
ATOM     25  F   UNL     1       0.811   1.961  19.289  0.00  0.00    +0.000 F 
ATOM     26  C   UNL     1       1.246   4.046  20.293  0.00  0.00    +0.000 A 
ATOM     27  C   UNL     1       1.722   5.345  20.165  0.00  0.00    +0.000 A 
ATOM     28  F   UNL     1       1.684   6.143  21.242  0.00  0.00    +0.000 F 
ENDBRANCH  20  21
ENDBRANCH  18  20
ENDBRANCH   1  17
BRANCH   5  29
ATOM     29  O   UNL     1      -0.990  12.592  21.421  0.00  0.00    +0.000 OA
ATOM     30  H   UNL     1      -0.376  13.353  21.309  0.00  0.00    +0.000 HD
ENDBRANCH   5  29
BRANCH  11  31
ATOM     31  C   UNL     1      -6.297  13.464  19.451  0.00  0.00    +0.000 C 
BRANCH  31  32
ATOM     32  C   UNL     1      -7.609  13.648  20.251  0.00  0.00    +0.000 C 
ATOM     33  C   UNL     1      -7.703  12.798  21.530  0.00  0.00    +0.000 C 
ATOM     34  C   UNL     1      -6.683  13.221  22.583  0.00  0.00    +0.000 C 
ATOM     35  C   UNL     1      -6.846  14.695  22.942  0.00  0.00    +0.000 C 
ATOM     36  C   UNL     1      -6.830  15.602  21.714  0.00  0.00    +0.000 C 
ATOM     37  C   UNL     1      -7.800  15.130  20.628  0.00  0.00    +0.000 C 
ENDBRANCH  31  32
ENDBRANCH  11  31
TORSDOF 6
ENDMDL
MODEL 8
REMARK VINA RESULT:      -8.5      3.853     10.798
REMARK  Name = 
REMARK  6 active torsions:
REMARK  status: ('A' for Active; 'I' for Inactive)
REMARK    1  A    between atoms: C_2  and  C_13
REMARK    2  A    between atoms: N_3  and  C_4
REMARK    3  A    between atoms: C_4  and  C_5
REMARK    4  A    between atoms: C_17  and  O_18
REMARK    5  A    between atoms: C_24  and  C_25
REMARK    6  A    between atoms: C_25  and  C_26
REMARK                            x       y       z     vdW  Elec       q    Type
REMARK                         _______ _______ _______ _____ _____    ______ ____
ROOT
ATOM      1  C   UNL     1       0.836   9.839  19.641  0.00  0.00    +0.000 A 
ATOM      2  C   UNL     1      -0.109  10.687  19.209  0.00  0.00    +0.000 A 
ATOM      3  N   UNL     1      -1.007  11.366  20.026  0.00  0.00    +0.000 N 
ATOM      4  C   UNL     1      -0.933  11.156  21.420  0.00  0.00    +0.000 A 
ATOM      5  C   UNL     1       0.000  10.371  22.007  0.00  0.00    +0.000 A 
ATOM      6  C   UNL     1       0.940   9.620  21.106  0.00  0.00    +0.000 A 
ATOM      7  O   UNL     1       1.745   8.806  21.560  0.00  0.00    +0.000 OA
ATOM      8  C   UNL     1      -2.007  11.727  22.329  0.00  0.00    +0.000 C 
ATOM      9  O   UNL     1      -2.035  11.466  23.531  0.00  0.00    +0.000 OA
ATOM     10  N   UNL     1      -2.988  12.438  21.697  0.00  0.00    +0.000 N 
ATOM     11  C   UNL     1      -4.306  12.677  22.221  0.00  0.00    +0.000 C 
ATOM     12  C   UNL     1      -5.068  13.016  20.948  0.00  0.00    +0.000 C 
ATOM     13  O   UNL     1      -4.096  13.495  19.995  0.00  0.00    +0.000 OA
ATOM     14  C   UNL     1      -2.802  13.040  20.411  0.00  0.00    +0.000 C 
ATOM     15  C   UNL     1      -2.166  12.060  19.417  0.00  0.00    +0.000 C 
ENDROOT
BRANCH   1  17
ATOM     16  O   UNL     1       1.806   9.560  17.493  0.00  0.00    +0.000 OA
ATOM     17  C   UNL     1       1.640   9.110  18.625  0.00  0.00    +0.000 C 
ATOM     18  N   UNL     1       2.125   7.896  19.035  0.00  0.00    +0.000 N 
ATOM     19  H   UNL     1       2.099   7.700  20.034  0.00  0.00    +0.000 HD
BRANCH  18  20
ATOM     20  C   UNL     1       2.916   7.046  18.173  0.00  0.00    +0.000 C 
BRANCH  20  21
ATOM     21  C   UNL     1       2.695   5.570  18.402  0.00  0.00    +0.000 A 
ATOM     22  C   UNL     1       1.640   4.841  17.831  0.00  0.00    +0.000 A 
ATOM     23  C   UNL     1       1.486   3.481  18.113  0.00  0.00    +0.000 A 
ATOM     24  C   UNL     1       2.369   2.849  18.982  0.00  0.00    +0.000 A 
ATOM     25  F   UNL     1       2.212   1.546  19.250  0.00  0.00    +0.000 F 
ATOM     26  C   UNL     1       3.402   3.550  19.583  0.00  0.00    +0.000 A 
ATOM     27  C   UNL     1       3.551   4.901  19.293  0.00  0.00    +0.000 A 
ATOM     28  F   UNL     1       4.544   5.573  19.894  0.00  0.00    +0.000 F 
ENDBRANCH  20  21
ENDBRANCH  18  20
ENDBRANCH   1  17
BRANCH   5  29
ATOM     29  O   UNL     1       0.124  10.144  23.369  0.00  0.00    +0.000 OA
ATOM     30  H   UNL     1      -0.044  10.988  23.845  0.00  0.00    +0.000 HD
ENDBRANCH   5  29
BRANCH  11  31
ATOM     31  C   UNL     1      -4.301  13.780  23.288  0.00  0.00    +0.000 C 
BRANCH  31  32
ATOM     32  C   UNL     1      -3.582  15.090  22.888  0.00  0.00    +0.000 C 
ATOM     33  C   UNL     1      -4.492  16.331  22.843  0.00  0.00    +0.000 C 
ATOM     34  C   UNL     1      -5.012  16.718  24.224  0.00  0.00    +0.000 C 
ATOM     35  C   UNL     1      -3.859  16.971  25.192  0.00  0.00    +0.000 C 
ATOM     36  C   UNL     1      -2.872  15.807  25.244  0.00  0.00    +0.000 C 
ATOM     37  C   UNL     1      -2.411  15.371  23.850  0.00  0.00    +0.000 C 
ENDBRANCH  31  32
ENDBRANCH  11  31
TORSDOF 6
ENDMDL
MODEL 9
REMARK VINA RESULT:      -8.5      1.622      2.656
REMARK  Name = 
REMARK  6 active torsions:
REMARK  status: ('A' for Active; 'I' for Inactive)
REMARK    1  A    between atoms: C_2  and  C_13
REMARK    2  A    between atoms: N_3  and  C_4
REMARK    3  A    between atoms: C_4  and  C_5
REMARK    4  A    between atoms: C_17  and  O_18
REMARK    5  A    between atoms: C_24  and  C_25
REMARK    6  A    between atoms: C_25  and  C_26
REMARK                            x       y       z     vdW  Elec       q    Type
REMARK                         _______ _______ _______ _____ _____    ______ ____
ROOT
ATOM      1  C   UNL     1      -0.121  10.725  21.210  0.00  0.00    +0.000 A 
ATOM      2  C   UNL     1       0.247   9.469  21.502  0.00  0.00    +0.000 A 
ATOM      3  N   UNL     1       1.022   8.652  20.684  0.00  0.00    +0.000 N 
ATOM      4  C   UNL     1       1.461   9.169  19.446  0.00  0.00    +0.000 A 
ATOM      5  C   UNL     1       1.212  10.436  19.037  0.00  0.00    +0.000 A 
ATOM      6  C   UNL     1       0.346  11.291  19.918  0.00  0.00    +0.000 A 
ATOM      7  O   UNL     1      -0.010  12.415  19.565  0.00  0.00    +0.000 OA
ATOM      8  C   UNL     1       2.145   8.255  18.445  0.00  0.00    +0.000 C 
ATOM      9  O   UNL     1       2.435   8.645  17.315  0.00  0.00    +0.000 OA
ATOM     10  N   UNL     1       2.299   6.960  18.849  0.00  0.00    +0.000 N 
ATOM     11  C   UNL     1       2.476   5.833  17.972  0.00  0.00    +0.000 C 
ATOM     12  C   UNL     1       2.066   4.686  18.884  0.00  0.00    +0.000 C 
ATOM     13  O   UNL     1       2.264   5.140  20.239  0.00  0.00    +0.000 OA
ATOM     14  C   UNL     1       2.303   6.573  20.228  0.00  0.00    +0.000 C 
ATOM     15  C   UNL     1       1.135   7.207  20.994  0.00  0.00    +0.000 C 
ENDROOT
BRANCH   1  17
ATOM     16  O   UNL     1      -0.985  11.239  23.358  0.00  0.00    +0.000 OA
ATOM     17  C   UNL     1      -1.045  11.419  22.144  0.00  0.00    +0.000 C 
ATOM     18  N   UNL     1      -1.980  12.220  21.543  0.00  0.00    +0.000 N 
ATOM     19  H   UNL     1      -1.831  12.453  20.563  0.00  0.00    +0.000 HD
BRANCH  18  20
ATOM     20  C   UNL     1      -2.966  12.961  22.298  0.00  0.00    +0.000 C 
BRANCH  20  21
ATOM     21  C   UNL     1      -2.384  14.082  23.125  0.00  0.00    +0.000 A 
ATOM     22  C   UNL     1      -1.397  14.965  22.660  0.00  0.00    +0.000 A 
ATOM     23  C   UNL     1      -0.888  15.962  23.497  0.00  0.00    +0.000 A 
ATOM     24  C   UNL     1      -1.346  16.069  24.806  0.00  0.00    +0.000 A 
ATOM     25  F   UNL     1      -0.851  17.025  25.603  0.00  0.00    +0.000 F 
ATOM     26  C   UNL     1      -2.299  15.193  25.301  0.00  0.00    +0.000 A 
ATOM     27  C   UNL     1      -2.803  14.208  24.461  0.00  0.00    +0.000 A 
ATOM     28  F   UNL     1      -3.713  13.356  24.956  0.00  0.00    +0.000 F 
ENDBRANCH  20  21
ENDBRANCH  18  20
ENDBRANCH   1  17
BRANCH   5  29
ATOM     29  O   UNL     1       1.633  10.995  17.840  0.00  0.00    +0.000 OA
ATOM     30  H   UNL     1       1.962  10.275  17.256  0.00  0.00    +0.000 HD
ENDBRANCH   5  29
BRANCH  11  31
ATOM     31  C   UNL     1       3.910   5.755  17.432  0.00  0.00    +0.000 C 
BRANCH  31  32
ATOM     32  C   UNL     1       4.584   4.365  17.531  0.00  0.00    +0.000 C 
ATOM     33  C   UNL     1       5.219   3.868  16.220  0.00  0.00    +0.000 C 
ATOM     34  C   UNL     1       6.412   4.718  15.795  0.00  0.00    +0.000 C 
ATOM     35  C   UNL     1       7.475   4.754  16.890  0.00  0.00    +0.000 C 
ATOM     36  C   UNL     1       6.908   5.177  18.243  0.00  0.00    +0.000 C 
ATOM     37  C   UNL     1       5.664   4.373  18.630  0.00  0.00    +0.000 C 
ENDBRANCH  31  32
ENDBRANCH  11  31
TORSDOF 6
ENDMDL
