MODEL 1
REMARK VINA RESULT:      -6.1      0.000      0.000
REMARK  Name = 
REMARK  3 active torsions:
REMARK  status: ('A' for Active; 'I' for Inactive)
REMARK    1  A    between atoms: N_1  and  C_2
REMARK    2  A    between atoms: C_6  and  O_7
REMARK    3  A    between atoms: C_9  and  O_10
REMARK                            x       y       z     vdW  Elec       q    Type
REMARK                         _______ _______ _______ _____ _____    ______ ____
ROOT
ATOM      1  C   UNL     1       2.629   2.819  18.511  0.00  0.00    +0.000 C 
ATOM      2  C   UNL     1       1.600   3.874  18.112  0.00  0.00    +0.000 C 
ATOM      3  C   UNL     1       2.214   5.268  18.225  0.00  0.00    +0.000 C 
ATOM      4  C   UNL     1       3.577   5.398  17.584  0.00  0.00    +0.000 A 
ATOM      5  C   UNL     1       4.148   6.657  17.332  0.00  0.00    +0.000 A 
ATOM      6  C   UNL     1       5.406   6.780  16.743  0.00  0.00    +0.000 A 
ATOM      7  C   UNL     1       6.116   5.636  16.411  0.00  0.00    +0.000 A 
ATOM      8  C   UNL     1       5.592   4.377  16.668  0.00  0.00    +0.000 A 
ATOM      9  C   UNL     1       4.330   4.243  17.270  0.00  0.00    +0.000 A 
ATOM     10  C   UNL     1       3.794   2.850  17.509  0.00  0.00    +0.000 C 
ENDROOT
BRANCH   1  11
ATOM     11  N   UNL     1       2.005   1.494  18.549  0.00  0.00    +0.000 NA
ATOM     12  H   UNL     1       1.596   1.334  19.469  0.00  0.00    +0.000 HD
ATOM     13  H   UNL     1       2.720   0.777  18.428  0.00  0.00    +0.000 HD
ENDBRANCH   1  11
BRANCH   5  14
ATOM     14  O   UNL     1       3.529   7.834  17.643  0.00  0.00    +0.000 OA
ATOM     15  H   UNL     1       3.801   8.123  18.527  0.00  0.00    +0.000 HD
ENDBRANCH   5  14
BRANCH   7  16
ATOM     16  O   UNL     1       7.349   5.706  15.830  0.00  0.00    +0.000 OA
ATOM     17  H   UNL     1       8.002   5.359  16.459  0.00  0.00    +0.000 HD
ENDBRANCH   7  16
TORSDOF 3
ENDMDL
MODEL 2
REMARK VINA RESULT:      -6.1      1.996      2.165
REMARK  Name = 
REMARK  3 active torsions:
REMARK  status: ('A' for Active; 'I' for Inactive)
REMARK    1  A    between atoms: N_1  and  C_2
REMARK    2  A    between atoms: C_6  and  O_7
REMARK    3  A    between atoms: C_9  and  O_10
REMARK                            x       y       z     vdW  Elec       q    Type
REMARK                         _______ _______ _______ _____ _____    ______ ____
ROOT
ATOM      1  C   UNL     1       3.080   2.610  18.145  0.00  0.00    +0.000 C 
ATOM      2  C   UNL     1       3.074   3.567  19.334  0.00  0.00    +0.000 C 
ATOM      3  C   UNL     1       4.506   3.976  19.678  0.00  0.00    +0.000 C 
ATOM      4  C   UNL     1       5.330   4.406  18.487  0.00  0.00    +0.000 A 
ATOM      5  C   UNL     1       6.548   5.089  18.649  0.00  0.00    +0.000 A 
ATOM      6  C   UNL     1       7.312   5.484  17.553  0.00  0.00    +0.000 A 
ATOM      7  C   UNL     1       6.869   5.187  16.273  0.00  0.00    +0.000 A 
ATOM      8  C   UNL     1       5.683   4.493  16.077  0.00  0.00    +0.000 A 
ATOM      9  C   UNL     1       4.912   4.081  17.176  0.00  0.00    +0.000 A 
ATOM     10  C   UNL     1       3.617   3.347  16.909  0.00  0.00    +0.000 C 
ENDROOT
BRANCH   1  11
ATOM     11  N   UNL     1       1.728   2.097  17.903  0.00  0.00    +0.000 NA
ATOM     12  H   UNL     1       1.287   2.635  17.159  0.00  0.00    +0.000 HD
ATOM     13  H   UNL     1       1.155   2.239  18.735  0.00  0.00    +0.000 HD
ENDBRANCH   1  11
BRANCH   5  14
ATOM     14  O   UNL     1       7.069   5.406  19.872  0.00  0.00    +0.000 OA
ATOM     15  H   UNL     1       7.511   6.266  19.826  0.00  0.00    +0.000 HD
ENDBRANCH   5  14
BRANCH   7  16
ATOM     16  O   UNL     1       7.580   5.556  15.169  0.00  0.00    +0.000 OA
ATOM     17  H   UNL     1       7.731   6.514  15.210  0.00  0.00    +0.000 HD
ENDBRANCH   7  16
TORSDOF 3
ENDMDL
MODEL 3
REMARK VINA RESULT:      -6.0      2.810      4.278
REMARK  Name = 
REMARK  3 active torsions:
REMARK  status: ('A' for Active; 'I' for Inactive)
REMARK    1  A    between atoms: N_1  and  C_2
REMARK    2  A    between atoms: C_6  and  O_7
REMARK    3  A    between atoms: C_9  and  O_10
REMARK                            x       y       z     vdW  Elec       q    Type
REMARK                         _______ _______ _______ _____ _____    ______ ____
ROOT
ATOM      1  C   UNL     1       6.091   5.370  15.548  0.00  0.00    +0.000 C 
ATOM      2  C   UNL     1       6.108   6.420  16.656  0.00  0.00    +0.000 C 
ATOM      3  C   UNL     1       4.686   6.674  17.153  0.00  0.00    +0.000 C 
ATOM      4  C   UNL     1       3.899   5.418  17.445  0.00  0.00    +0.000 A 
ATOM      5  C   UNL     1       2.702   5.461  18.182  0.00  0.00    +0.000 A 
ATOM      6  C   UNL     1       1.972   4.304  18.451  0.00  0.00    +0.000 A 
ATOM      7  C   UNL     1       2.427   3.086  17.970  0.00  0.00    +0.000 A 
ATOM      8  C   UNL     1       3.591   3.011  17.219  0.00  0.00    +0.000 A 
ATOM      9  C   UNL     1       4.328   4.172  16.934  0.00  0.00    +0.000 A 
ATOM     10  C   UNL     1       5.602   4.034  16.130  0.00  0.00    +0.000 C 
ENDROOT
BRANCH   1  11
ATOM     11  N   UNL     1       7.428   5.229  14.965  0.00  0.00    +0.000 NA
ATOM     12  H   UNL     1       7.591   5.981  14.297  0.00  0.00    +0.000 HD
ATOM     13  H   UNL     1       7.478   4.361  14.432  0.00  0.00    +0.000 HD
ENDBRANCH   1  11
BRANCH   5  14
ATOM     14  O   UNL     1       2.171   6.619  18.677  0.00  0.00    +0.000 OA
ATOM     15  H   UNL     1       1.210   6.528  18.759  0.00  0.00    +0.000 HD
ENDBRANCH   5  14
BRANCH   7  16
ATOM     16  O   UNL     1       1.748   1.927  18.210  0.00  0.00    +0.000 OA
ATOM     17  H   UNL     1       2.392   1.240  18.449  0.00  0.00    +0.000 HD
ENDBRANCH   7  16
TORSDOF 3
ENDMDL
MODEL 4
REMARK VINA RESULT:      -6.0      3.183      4.632
REMARK  Name = 
REMARK  3 active torsions:
REMARK  status: ('A' for Active; 'I' for Inactive)
REMARK    1  A    between atoms: N_1  and  C_2
REMARK    2  A    between atoms: C_6  and  O_7
REMARK    3  A    between atoms: C_9  and  O_10
REMARK                            x       y       z     vdW  Elec       q    Type
REMARK                         _______ _______ _______ _____ _____    ______ ____
ROOT
ATOM      1  C   UNL     1       5.510   4.817  17.001  0.00  0.00    +0.000 C 
ATOM      2  C   UNL     1       5.938   5.006  18.453  0.00  0.00    +0.000 C 
ATOM      3  C   UNL     1       4.721   5.343  19.314  0.00  0.00    +0.000 C 
ATOM      4  C   UNL     1       3.534   4.436  19.089  0.00  0.00    +0.000 A 
ATOM      5  C   UNL     1       2.455   4.408  19.989  0.00  0.00    +0.000 A 
ATOM      6  C   UNL     1       1.356   3.575  19.783  0.00  0.00    +0.000 A 
ATOM      7  C   UNL     1       1.320   2.765  18.657  0.00  0.00    +0.000 A 
ATOM      8  C   UNL     1       2.357   2.785  17.735  0.00  0.00    +0.000 A 
ATOM      9  C   UNL     1       3.463   3.630  17.930  0.00  0.00    +0.000 A 
ATOM     10  C   UNL     1       4.577   3.599  16.908  0.00  0.00    +0.000 C 
ENDROOT
BRANCH   1  11
ATOM     11  N   UNL     1       6.686   4.642  16.146  0.00  0.00    +0.000 NA
ATOM     12  H   UNL     1       6.413   4.722  15.167  0.00  0.00    +0.000 HD
ATOM     13  H   UNL     1       7.054   3.698  16.261  0.00  0.00    +0.000 HD
ENDBRANCH   1  11
BRANCH   5  14
ATOM     14  O   UNL     1       2.399   5.185  21.112  0.00  0.00    +0.000 OA
ATOM     15  H   UNL     1       2.982   5.951  21.009  0.00  0.00    +0.000 HD
ENDBRANCH   5  14
BRANCH   7  16
ATOM     16  O   UNL     1       0.268   1.931  18.414  0.00  0.00    +0.000 OA
ATOM     17  H   UNL     1       0.589   1.179  17.889  0.00  0.00    +0.000 HD
ENDBRANCH   7  16
TORSDOF 3
ENDMDL
MODEL 5
REMARK VINA RESULT:      -5.9      3.226      5.172
REMARK  Name = 
REMARK  3 active torsions:
REMARK  status: ('A' for Active; 'I' for Inactive)
REMARK    1  A    between atoms: N_1  and  C_2
REMARK    2  A    between atoms: C_6  and  O_7
REMARK    3  A    between atoms: C_9  and  O_10
REMARK                            x       y       z     vdW  Elec       q    Type
REMARK                         _______ _______ _______ _____ _____    ______ ____
ROOT
ATOM      1  C   UNL     1       4.986   5.734  16.947  0.00  0.00    +0.000 C 
ATOM      2  C   UNL     1       5.143   4.500  16.062  0.00  0.00    +0.000 C 
ATOM      3  C   UNL     1       4.965   3.234  16.899  0.00  0.00    +0.000 C 
ATOM      4  C   UNL     1       3.750   3.253  17.797  0.00  0.00    +0.000 A 
ATOM      5  C   UNL     1       3.270   2.077  18.400  0.00  0.00    +0.000 A 
ATOM      6  C   UNL     1       2.151   2.091  19.232  0.00  0.00    +0.000 A 
ATOM      7  C   UNL     1       1.504   3.292  19.481  0.00  0.00    +0.000 A 
ATOM      8  C   UNL     1       1.965   4.475  18.921  0.00  0.00    +0.000 A 
ATOM      9  C   UNL     1       3.098   4.472  18.090  0.00  0.00    +0.000 A 
ATOM     10  C   UNL     1       3.548   5.784  17.487  0.00  0.00    +0.000 C 
ENDROOT
BRANCH   1  11
ATOM     11  N   UNL     1       5.303   6.945  16.186  0.00  0.00    +0.000 NA
ATOM     12  H   UNL     1       4.696   7.707  16.489  0.00  0.00    +0.000 HD
ATOM     13  H   UNL     1       5.095   6.792  15.200  0.00  0.00    +0.000 HD
ENDBRANCH   1  11
BRANCH   5  14
ATOM     14  O   UNL     1       3.855   0.855  18.225  0.00  0.00    +0.000 OA
ATOM     15  H   UNL     1       3.381   0.188  18.742  0.00  0.00    +0.000 HD
ENDBRANCH   5  14
BRANCH   7  16
ATOM     16  O   UNL     1       0.404   3.355  20.285  0.00  0.00    +0.000 OA
ATOM     17  H   UNL     1       0.684   3.187  21.199  0.00  0.00    +0.000 HD
ENDBRANCH   7  16
TORSDOF 3
ENDMDL
MODEL 6
REMARK VINA RESULT:      -5.9      2.767      4.410
REMARK  Name = 
REMARK  3 active torsions:
REMARK  status: ('A' for Active; 'I' for Inactive)
REMARK    1  A    between atoms: N_1  and  C_2
REMARK    2  A    between atoms: C_6  and  O_7
REMARK    3  A    between atoms: C_9  and  O_10
REMARK                            x       y       z     vdW  Elec       q    Type
REMARK                         _______ _______ _______ _____ _____    ______ ____
ROOT
ATOM      1  C   UNL     1       4.795   4.189  16.661  0.00  0.00    +0.000 C 
ATOM      2  C   UNL     1       5.393   5.378  17.408  0.00  0.00    +0.000 C 
ATOM      3  C   UNL     1       4.285   6.159  18.113  0.00  0.00    +0.000 C 
ATOM      4  C   UNL     1       3.326   5.298  18.901  0.00  0.00    +0.000 A 
ATOM      5  C   UNL     1       2.443   5.859  19.840  0.00  0.00    +0.000 A 
ATOM      6  C   UNL     1       1.554   5.068  20.566  0.00  0.00    +0.000 A 
ATOM      7  C   UNL     1       1.531   3.698  20.350  0.00  0.00    +0.000 A 
ATOM      8  C   UNL     1       2.372   3.114  19.414  0.00  0.00    +0.000 A 
ATOM      9  C   UNL     1       3.263   3.905  18.669  0.00  0.00    +0.000 A 
ATOM     10  C   UNL     1       4.175   3.218  17.677  0.00  0.00    +0.000 C 
ENDROOT
BRANCH   1  11
ATOM     11  N   UNL     1       5.828   3.523  15.862  0.00  0.00    +0.000 NA
ATOM     12  H   UNL     1       5.672   2.515  15.874  0.00  0.00    +0.000 HD
ATOM     13  H   UNL     1       6.740   3.673  16.291  0.00  0.00    +0.000 HD
ENDBRANCH   1  11
BRANCH   5  14
ATOM     14  O   UNL     1       2.384   7.199  20.102  0.00  0.00    +0.000 OA
ATOM     15  H   UNL     1       1.834   7.639  19.438  0.00  0.00    +0.000 HD
ENDBRANCH   5  14
BRANCH   7  16
ATOM     16  O   UNL     1       0.682   2.883  21.039  0.00  0.00    +0.000 OA
ATOM     17  H   UNL     1       1.145   2.556  21.828  0.00  0.00    +0.000 HD
ENDBRANCH   7  16
TORSDOF 3
ENDMDL
MODEL 7
REMARK VINA RESULT:      -5.9      1.908      2.240
REMARK  Name = 
REMARK  3 active torsions:
REMARK  status: ('A' for Active; 'I' for Inactive)
REMARK    1  A    between atoms: N_1  and  C_2
REMARK    2  A    between atoms: C_6  and  O_7
REMARK    3  A    between atoms: C_9  and  O_10
REMARK                            x       y       z     vdW  Elec       q    Type
REMARK                         _______ _______ _______ _____ _____    ______ ____
ROOT
ATOM      1  C   UNL     1       2.297   3.496  21.171  0.00  0.00    +0.000 C 
ATOM      2  C   UNL     1       1.359   4.590  20.670  0.00  0.00    +0.000 C 
ATOM      3  C   UNL     1       2.153   5.639  19.892  0.00  0.00    +0.000 C 
ATOM      4  C   UNL     1       3.103   5.062  18.868  0.00  0.00    +0.000 A 
ATOM      5  C   UNL     1       3.680   5.868  17.871  0.00  0.00    +0.000 A 
ATOM      6  C   UNL     1       4.559   5.340  16.927  0.00  0.00    +0.000 A 
ATOM      7  C   UNL     1       4.882   3.992  16.978  0.00  0.00    +0.000 A 
ATOM      8  C   UNL     1       4.348   3.173  17.962  0.00  0.00    +0.000 A 
ATOM      9  C   UNL     1       3.470   3.699  18.925  0.00  0.00    +0.000 A 
ATOM     10  C   UNL     1       2.899   2.759  19.964  0.00  0.00    +0.000 C 
ENDROOT
BRANCH   1  11
ATOM     11  N   UNL     1       1.571   2.567  22.041  0.00  0.00    +0.000 NA
ATOM     12  H   UNL     1       2.084   2.444  22.913  0.00  0.00    +0.000 HD
ATOM     13  H   UNL     1       1.532   1.648  21.602  0.00  0.00    +0.000 HD
ENDBRANCH   1  11
BRANCH   5  14
ATOM     14  O   UNL     1       3.434   7.208  17.758  0.00  0.00    +0.000 OA
ATOM     15  H   UNL     1       3.627   7.501  16.856  0.00  0.00    +0.000 HD
ENDBRANCH   5  14
BRANCH   7  16
ATOM     16  O   UNL     1       5.733   3.429  16.073  0.00  0.00    +0.000 OA
ATOM     17  H   UNL     1       5.265   3.341  15.227  0.00  0.00    +0.000 HD
ENDBRANCH   7  16
TORSDOF 3
ENDMDL
MODEL 8
REMARK VINA RESULT:      -5.8      2.361      2.630
REMARK  Name = 
REMARK  3 active torsions:
REMARK  status: ('A' for Active; 'I' for Inactive)
REMARK    1  A    between atoms: N_1  and  C_2
REMARK    2  A    between atoms: C_6  and  O_7
REMARK    3  A    between atoms: C_9  and  O_10
REMARK                            x       y       z     vdW  Elec       q    Type
REMARK                         _______ _______ _______ _____ _____    ______ ____
ROOT
ATOM      1  C   UNL     1       2.977   6.183  19.759  0.00  0.00    +0.000 C 
ATOM      2  C   UNL     1       2.280   6.337  18.410  0.00  0.00    +0.000 C 
ATOM      3  C   UNL     1       3.273   6.848  17.367  0.00  0.00    +0.000 C 
ATOM      4  C   UNL     1       4.589   6.106  17.350  0.00  0.00    +0.000 A 
ATOM      5  C   UNL     1       5.488   6.237  16.278  0.00  0.00    +0.000 A 
ATOM      6  C   UNL     1       6.705   5.556  16.260  0.00  0.00    +0.000 A 
ATOM      7  C   UNL     1       7.043   4.741  17.330  0.00  0.00    +0.000 A 
ATOM      8  C   UNL     1       6.189   4.606  18.416  0.00  0.00    +0.000 A 
ATOM      9  C   UNL     1       4.966   5.297  18.447  0.00  0.00    +0.000 A 
ATOM     10  C   UNL     1       4.062   5.100  19.643  0.00  0.00    +0.000 C 
ENDROOT
BRANCH   1  11
ATOM     11  N   UNL     1       2.001   5.837  20.796  0.00  0.00    +0.000 NA
ATOM     12  H   UNL     1       1.326   6.595  20.896  0.00  0.00    +0.000 HD
ATOM     13  H   UNL     1       2.473   5.757  21.696  0.00  0.00    +0.000 HD
ENDBRANCH   1  11
BRANCH   5  14
ATOM     14  O   UNL     1       5.246   7.033  15.193  0.00  0.00    +0.000 OA
ATOM     15  H   UNL     1       4.953   6.489  14.448  0.00  0.00    +0.000 HD
ENDBRANCH   5  14
BRANCH   7  16
ATOM     16  O   UNL     1       8.220   4.052  17.356  0.00  0.00    +0.000 OA
ATOM     17  H   UNL     1       8.408   3.734  16.458  0.00  0.00    +0.000 HD
ENDBRANCH   7  16
TORSDOF 3
ENDMDL
MODEL 9
REMARK VINA RESULT:      -5.8      3.605      5.383
REMARK  Name = 
REMARK  3 active torsions:
REMARK  status: ('A' for Active; 'I' for Inactive)
REMARK    1  A    between atoms: N_1  and  C_2
REMARK    2  A    between atoms: C_6  and  O_7
REMARK    3  A    between atoms: C_9  and  O_10
REMARK                            x       y       z     vdW  Elec       q    Type
REMARK                         _______ _______ _______ _____ _____    ______ ____
ROOT
ATOM      1  C   UNL     1       3.353   6.831  18.427  0.00  0.00    +0.000 C 
ATOM      2  C   UNL     1       3.932   5.816  17.445  0.00  0.00    +0.000 C 
ATOM      3  C   UNL     1       4.583   4.665  18.211  0.00  0.00    +0.000 C 
ATOM      4  C   UNL     1       3.729   4.099  19.321  0.00  0.00    +0.000 A 
ATOM      5  C   UNL     1       4.035   2.864  19.921  0.00  0.00    +0.000 A 
ATOM      6  C   UNL     1       3.250   2.340  20.947  0.00  0.00    +0.000 A 
ATOM      7  C   UNL     1       2.150   3.057  21.396  0.00  0.00    +0.000 A 
ATOM      8  C   UNL     1       1.833   4.289  20.842  0.00  0.00    +0.000 A 
ATOM      9  C   UNL     1       2.624   4.830  19.815  0.00  0.00    +0.000 A 
ATOM     10  C   UNL     1       2.224   6.166  19.230  0.00  0.00    +0.000 C 
ENDROOT
BRANCH   1  11
ATOM     11  N   UNL     1       2.860   8.007  17.706  0.00  0.00    +0.000 NA
ATOM     12  H   UNL     1       1.855   7.922  17.558  0.00  0.00    +0.000 HD
ATOM     13  H   UNL     1       3.281   8.039  16.777  0.00  0.00    +0.000 HD
ENDBRANCH   1  11
BRANCH   5  14
ATOM     14  O   UNL     1       5.108   2.102  19.555  0.00  0.00    +0.000 OA
ATOM     15  H   UNL     1       5.896   2.395  20.036  0.00  0.00    +0.000 HD
ENDBRANCH   5  14
BRANCH   7  16
ATOM     16  O   UNL     1       1.351   2.583  22.395  0.00  0.00    +0.000 OA
ATOM     17  H   UNL     1       0.437   2.849  22.206  0.00  0.00    +0.000 HD
ENDBRANCH   7  16
TORSDOF 3
ENDMDL
