MODEL 1
REMARK VINA RESULT:      -8.0      0.000      0.000
REMARK  Name = 
REMARK  11 active torsions:
REMARK  status: ('A' for Active; 'I' for Inactive)
REMARK    1  A    between atoms: C_1  and  C_2
REMARK    2  A    between atoms: C_5  and  N_6
REMARK    3  A    between atoms: C_7  and  C_9
REMARK    4  A    between atoms: C_9  and  O_10
REMARK    5  A    between atoms: O_10  and  C_11
REMARK    6  A    between atoms: C_11  and  C_13
REMARK    7  A    between atoms: C_13  and  S_14
REMARK    8  A    between atoms: S_14  and  C_15
REMARK    9  A    between atoms: C_15  and  C_16
REMARK   10  A    between atoms: C_21  and  C_22
REMARK   11  A    between atoms: C_25  and  C_26
REMARK                            x       y       z     vdW  Elec       q    Type
REMARK                         _______ _______ _______ _____ _____    ______ ____
ROOT
ATOM      1  C   UNL     1       2.206   7.761  18.782  0.00  0.00    +0.000 C 
ATOM      2  O   UNL     1       1.978   7.817  19.964  0.00  0.00    +0.000 OA
ENDROOT
BRANCH   1   3
ATOM      3  O   UNL     1       1.528   8.483  17.843  0.00  0.00    +0.000 OA
BRANCH   3   4
ATOM      4  C   UNL     1       1.508   9.894  18.109  0.00  0.00    +0.000 C 
BRANCH   4   6
ATOM      5  N   UNL     1      -0.789  10.462  17.407  0.00  0.00    +0.000 N 
ATOM      6  C   UNL     1       0.094  10.331  18.484  0.00  0.00    +0.000 C 
ATOM      7  O   UNL     1      -0.166  10.526  19.670  0.00  0.00    +0.000 OA
ATOM      8  H   UNL     1      -0.409  10.260  16.494  0.00  0.00    +0.000 HD
BRANCH   5  13
ATOM      9  C   UNL     1      -6.300  12.129  17.901  0.00  0.00    +0.000 C 
ATOM     10  C   UNL     1      -4.876  11.686  17.742  0.00  0.00    +0.000 A 
ATOM     11  C   UNL     1      -3.982  11.856  18.787  0.00  0.00    +0.000 A 
ATOM     12  C   UNL     1      -2.657  11.448  18.655  0.00  0.00    +0.000 A 
ATOM     13  C   UNL     1      -2.157  10.855  17.489  0.00  0.00    +0.000 A 
ATOM     14  C   UNL     1      -3.058  10.669  16.417  0.00  0.00    +0.000 A 
ATOM     15  C   UNL     1      -2.720  10.047  15.087  0.00  0.00    +0.000 C 
ATOM     16  C   UNL     1      -4.409  11.092  16.565  0.00  0.00    +0.000 A 
ENDBRANCH   5  13
ENDBRANCH   4   6
ENDBRANCH   3   4
ENDBRANCH   1   3
BRANCH   1  17
ATOM     17  C   UNL     1       3.276   6.895  18.127  0.00  0.00    +0.000 C 
BRANCH  17  18
ATOM     18  S   UNL     1       3.585   5.379  19.153  0.00  0.00    +0.000 S 
BRANCH  18  19
ATOM     19  C   UNL     1       5.434   5.338  19.284  0.00  0.00    +0.000 C 
BRANCH  19  20
ATOM     20  C   UNL     1       6.043   5.574  17.906  0.00  0.00    +0.000 C 
ATOM     21  O   UNL     1       6.688   6.600  17.696  0.00  0.00    +0.000 OA
ATOM     22  N   UNL     1       5.828   4.581  16.967  0.00  0.00    +0.000 N 
ATOM     23  C   UNL     1       6.388   4.693  15.700  0.00  0.00    +0.000 A 
ATOM     24  C   UNL     1       5.973   3.993  14.545  0.00  0.00    +0.000 A 
ATOM     25  C   UNL     1       6.853   4.387  13.563  0.00  0.00    +0.000 A 
ATOM     26  C   UNL     1       7.020   4.035  12.142  0.00  0.00    +0.000 C 
ATOM     27  O   UNL     1       7.719   5.289  14.081  0.00  0.00    +0.000 OA
ATOM     28  N   UNL     1       7.410   5.502  15.405  0.00  0.00    +0.000 NA
ATOM     29  H   UNL     1       5.083   3.905  17.078  0.00  0.00    +0.000 HD
ENDBRANCH  19  20
ENDBRANCH  18  19
ENDBRANCH  17  18
ENDBRANCH   1  17
TORSDOF 8
ENDMDL
MODEL 2
REMARK VINA RESULT:      -7.9      6.956      9.679
REMARK  Name = 
REMARK  11 active torsions:
REMARK  status: ('A' for Active; 'I' for Inactive)
REMARK    1  A    between atoms: C_1  and  C_2
REMARK    2  A    between atoms: C_5  and  N_6
REMARK    3  A    between atoms: C_7  and  C_9
REMARK    4  A    between atoms: C_9  and  O_10
REMARK    5  A    between atoms: O_10  and  C_11
REMARK    6  A    between atoms: C_11  and  C_13
REMARK    7  A    between atoms: C_13  and  S_14
REMARK    8  A    between atoms: S_14  and  C_15
REMARK    9  A    between atoms: C_15  and  C_16
REMARK   10  A    between atoms: C_21  and  C_22
REMARK   11  A    between atoms: C_25  and  C_26
REMARK                            x       y       z     vdW  Elec       q    Type
REMARK                         _______ _______ _______ _____ _____    ______ ____
ROOT
ATOM      1  C   UNL     1       7.903   6.240  18.875  0.00  0.00    +0.000 C 
ATOM      2  O   UNL     1       8.001   5.427  19.760  0.00  0.00    +0.000 OA
ENDROOT
BRANCH   1   3
ATOM      3  O   UNL     1       8.570   7.432  18.862  0.00  0.00    +0.000 OA
BRANCH   3   4
ATOM      4  C   UNL     1       8.162   8.305  17.797  0.00  0.00    +0.000 C 
BRANCH   4   6
ATOM      5  N   UNL     1       9.202   9.938  19.327  0.00  0.00    +0.000 N 
ATOM      6  C   UNL     1       8.392   9.759  18.201  0.00  0.00    +0.000 C 
ATOM      7  O   UNL     1       7.871  10.646  17.527  0.00  0.00    +0.000 OA
ATOM      8  H   UNL     1       9.551   9.096  19.762  0.00  0.00    +0.000 HD
BRANCH   5  13
ATOM      9  C   UNL     1      10.570  14.973  21.811  0.00  0.00    +0.000 C 
ATOM     10  C   UNL     1      10.237  13.672  21.143  0.00  0.00    +0.000 A 
ATOM     11  C   UNL     1       9.242  12.864  21.668  0.00  0.00    +0.000 A 
ATOM     12  C   UNL     1       8.921  11.653  21.058  0.00  0.00    +0.000 A 
ATOM     13  C   UNL     1       9.568  11.189  19.906  0.00  0.00    +0.000 A 
ATOM     14  C   UNL     1      10.581  12.004  19.355  0.00  0.00    +0.000 A 
ATOM     15  C   UNL     1      11.386  11.688  18.122  0.00  0.00    +0.000 C 
ATOM     16  C   UNL     1      10.900  13.239  19.989  0.00  0.00    +0.000 A 
ENDBRANCH   5  13
ENDBRANCH   4   6
ENDBRANCH   3   4
ENDBRANCH   1   3
BRANCH   1  17
ATOM     17  C   UNL     1       7.039   6.093  17.629  0.00  0.00    +0.000 C 
BRANCH  17  18
ATOM     18  S   UNL     1       7.436   4.500  16.762  0.00  0.00    +0.000 S 
BRANCH  18  19
ATOM     19  C   UNL     1       5.828   4.058  15.952  0.00  0.00    +0.000 C 
BRANCH  19  20
ATOM     20  C   UNL     1       4.691   4.241  16.952  0.00  0.00    +0.000 C 
ATOM     21  O   UNL     1       3.969   5.234  16.875  0.00  0.00    +0.000 OA
ATOM     22  N   UNL     1       4.544   3.241  17.897  0.00  0.00    +0.000 N 
ATOM     23  C   UNL     1       3.504   3.305  18.817  0.00  0.00    +0.000 A 
ATOM     24  C   UNL     1       3.435   2.601  20.040  0.00  0.00    +0.000 A 
ATOM     25  C   UNL     1       2.209   2.939  20.567  0.00  0.00    +0.000 A 
ATOM     26  C   UNL     1       1.484   2.553  21.790  0.00  0.00    +0.000 C 
ATOM     27  O   UNL     1       1.594   3.811  19.735  0.00  0.00    +0.000 OA
ATOM     28  N   UNL     1       2.414   4.063  18.659  0.00  0.00    +0.000 NA
ATOM     29  H   UNL     1       5.298   2.600  18.106  0.00  0.00    +0.000 HD
ENDBRANCH  19  20
ENDBRANCH  18  19
ENDBRANCH  17  18
ENDBRANCH   1  17
TORSDOF 8
ENDMDL
MODEL 3
REMARK VINA RESULT:      -7.8      3.144      9.299
REMARK  Name = 
REMARK  11 active torsions:
REMARK  status: ('A' for Active; 'I' for Inactive)
REMARK    1  A    between atoms: C_1  and  C_2
REMARK    2  A    between atoms: C_5  and  N_6
REMARK    3  A    between atoms: C_7  and  C_9
REMARK    4  A    between atoms: C_9  and  O_10
REMARK    5  A    between atoms: O_10  and  C_11
REMARK    6  A    between atoms: C_11  and  C_13
REMARK    7  A    between atoms: C_13  and  S_14
REMARK    8  A    between atoms: S_14  and  C_15
REMARK    9  A    between atoms: C_15  and  C_16
REMARK   10  A    between atoms: C_21  and  C_22
REMARK   11  A    between atoms: C_25  and  C_26
REMARK                            x       y       z     vdW  Elec       q    Type
REMARK                         _______ _______ _______ _____ _____    ______ ____
ROOT
ATOM      1  C   UNL     1       7.375   5.699  19.378  0.00  0.00    +0.000 C 
ATOM      2  O   UNL     1       7.988   5.296  20.334  0.00  0.00    +0.000 OA
ENDROOT
BRANCH   1   3
ATOM      3  O   UNL     1       7.965   6.161  18.237  0.00  0.00    +0.000 OA
BRANCH   3   4
ATOM      4  C   UNL     1       7.198   7.171  17.563  0.00  0.00    +0.000 C 
BRANCH   4   6
ATOM      5  N   UNL     1       7.206   5.547  15.705  0.00  0.00    +0.000 N 
ATOM      6  C   UNL     1       6.497   6.565  16.349  0.00  0.00    +0.000 C 
ATOM      7  O   UNL     1       5.388   6.996  16.034  0.00  0.00    +0.000 OA
ATOM      8  H   UNL     1       8.106   5.314  16.098  0.00  0.00    +0.000 HD
BRANCH   5  13
ATOM      9  C   UNL     1       5.309   2.557  11.137  0.00  0.00    +0.000 C 
ATOM     10  C   UNL     1       5.825   3.345  12.304  0.00  0.00    +0.000 A 
ATOM     11  C   UNL     1       5.197   3.244  13.534  0.00  0.00    +0.000 A 
ATOM     12  C   UNL     1       5.666   3.969  14.628  0.00  0.00    +0.000 A 
ATOM     13  C   UNL     1       6.773   4.823  14.554  0.00  0.00    +0.000 A 
ATOM     14  C   UNL     1       7.428   4.932  13.308  0.00  0.00    +0.000 A 
ATOM     15  C   UNL     1       8.635   5.788  13.025  0.00  0.00    +0.000 C 
ATOM     16  C   UNL     1       6.938   4.187  12.198  0.00  0.00    +0.000 A 
ENDBRANCH   5  13
ENDBRANCH   4   6
ENDBRANCH   3   4
ENDBRANCH   1   3
BRANCH   1  17
ATOM     17  C   UNL     1       5.856   5.762  19.262  0.00  0.00    +0.000 C 
BRANCH  17  18
ATOM     18  S   UNL     1       5.182   4.095  18.802  0.00  0.00    +0.000 S 
BRANCH  18  19
ATOM     19  C   UNL     1       3.713   4.518  17.753  0.00  0.00    +0.000 C 
BRANCH  19  20
ATOM     20  C   UNL     1       2.893   5.601  18.445  0.00  0.00    +0.000 C 
ATOM     21  O   UNL     1       2.266   5.327  19.466  0.00  0.00    +0.000 OA
ATOM     22  N   UNL     1       2.923   6.854  17.860  0.00  0.00    +0.000 N 
ATOM     23  C   UNL     1       2.242   7.912  18.452  0.00  0.00    +0.000 A 
ATOM     24  C   UNL     1       1.864   9.115  17.815  0.00  0.00    +0.000 A 
ATOM     25  C   UNL     1       1.275   9.864  18.808  0.00  0.00    +0.000 A 
ATOM     26  C   UNL     1       0.687  11.214  18.853  0.00  0.00    +0.000 C 
ATOM     27  O   UNL     1       1.268   9.150  19.957  0.00  0.00    +0.000 OA
ATOM     28  N   UNL     1       1.843   7.921  19.728  0.00  0.00    +0.000 NA
ATOM     29  H   UNL     1       3.210   6.980  16.897  0.00  0.00    +0.000 HD
ENDBRANCH  19  20
ENDBRANCH  18  19
ENDBRANCH  17  18
ENDBRANCH   1  17
TORSDOF 8
ENDMDL
MODEL 4
REMARK VINA RESULT:      -7.7      3.689      4.644
REMARK  Name = 
REMARK  11 active torsions:
REMARK  status: ('A' for Active; 'I' for Inactive)
REMARK    1  A    between atoms: C_1  and  C_2
REMARK    2  A    between atoms: C_5  and  N_6
REMARK    3  A    between atoms: C_7  and  C_9
REMARK    4  A    between atoms: C_9  and  O_10
REMARK    5  A    between atoms: O_10  and  C_11
REMARK    6  A    between atoms: C_11  and  C_13
REMARK    7  A    between atoms: C_13  and  S_14
REMARK    8  A    between atoms: S_14  and  C_15
REMARK    9  A    between atoms: C_15  and  C_16
REMARK   10  A    between atoms: C_21  and  C_22
REMARK   11  A    between atoms: C_25  and  C_26
REMARK                            x       y       z     vdW  Elec       q    Type
REMARK                         _______ _______ _______ _____ _____    ______ ____
ROOT
ATOM      1  C   UNL     1       4.548   2.862  19.864  0.00  0.00    +0.000 C 
ATOM      2  O   UNL     1       5.058   1.873  20.328  0.00  0.00    +0.000 OA
ENDROOT
BRANCH   1   3
ATOM      3  O   UNL     1       3.354   3.370  20.286  0.00  0.00    +0.000 OA
BRANCH   3   4
ATOM      4  C   UNL     1       2.635   4.073  19.261  0.00  0.00    +0.000 C 
BRANCH   4   6
ATOM      5  N   UNL     1       2.298   6.498  19.576  0.00  0.00    +0.000 N 
ATOM      6  C   UNL     1       1.831   5.215  19.880  0.00  0.00    +0.000 C 
ATOM      7  O   UNL     1       0.857   4.937  20.577  0.00  0.00    +0.000 OA
ATOM      8  H   UNL     1       3.114   6.546  18.984  0.00  0.00    +0.000 HD
BRANCH   5  13
ATOM      9  C   UNL     1      -0.011  11.404  21.576  0.00  0.00    +0.000 C 
ATOM     10  C   UNL     1       0.590  10.145  21.027  0.00  0.00    +0.000 A 
ATOM     11  C   UNL     1       0.781   9.054  21.860  0.00  0.00    +0.000 A 
ATOM     12  C   UNL     1       1.337   7.877  21.364  0.00  0.00    +0.000 A 
ATOM     13  C   UNL     1       1.728   7.725  20.028  0.00  0.00    +0.000 A 
ATOM     14  C   UNL     1       1.534   8.826  19.164  0.00  0.00    +0.000 A 
ATOM     15  C   UNL     1       1.880   8.861  17.699  0.00  0.00    +0.000 C 
ATOM     16  C   UNL     1       0.966  10.024  19.685  0.00  0.00    +0.000 A 
ENDBRANCH   5  13
ENDBRANCH   4   6
ENDBRANCH   3   4
ENDBRANCH   1   3
BRANCH   1  17
ATOM     17  C   UNL     1       5.131   3.716  18.744  0.00  0.00    +0.000 C 
BRANCH  17  18
ATOM     18  S   UNL     1       5.773   5.317  19.431  0.00  0.00    +0.000 S 
BRANCH  18  19
ATOM     19  C   UNL     1       7.469   5.433  18.692  0.00  0.00    +0.000 C 
BRANCH  19  20
ATOM     20  C   UNL     1       7.354   5.532  17.175  0.00  0.00    +0.000 C 
ATOM     21  O   UNL     1       7.657   6.582  16.611  0.00  0.00    +0.000 OA
ATOM     22  N   UNL     1       6.912   4.395  16.522  0.00  0.00    +0.000 N 
ATOM     23  C   UNL     1       6.823   4.383  15.135  0.00  0.00    +0.000 A 
ATOM     24  C   UNL     1       6.061   3.480  14.360  0.00  0.00    +0.000 A 
ATOM     25  C   UNL     1       6.334   3.823  13.056  0.00  0.00    +0.000 A 
ATOM     26  C   UNL     1       5.908   3.289  11.751  0.00  0.00    +0.000 C 
ATOM     27  O   UNL     1       7.176   4.882  13.043  0.00  0.00    +0.000 OA
ATOM     28  N   UNL     1       7.457   5.251  14.339  0.00  0.00    +0.000 NA
ATOM     29  H   UNL     1       6.418   3.663  17.016  0.00  0.00    +0.000 HD
ENDBRANCH  19  20
ENDBRANCH  18  19
ENDBRANCH  17  18
ENDBRANCH   1  17
TORSDOF 8
ENDMDL
MODEL 5
REMARK VINA RESULT:      -7.7      2.971      3.725
REMARK  Name = 
REMARK  11 active torsions:
REMARK  status: ('A' for Active; 'I' for Inactive)
REMARK    1  A    between atoms: C_1  and  C_2
REMARK    2  A    between atoms: C_5  and  N_6
REMARK    3  A    between atoms: C_7  and  C_9
REMARK    4  A    between atoms: C_9  and  O_10
REMARK    5  A    between atoms: O_10  and  C_11
REMARK    6  A    between atoms: C_11  and  C_13
REMARK    7  A    between atoms: C_13  and  S_14
REMARK    8  A    between atoms: S_14  and  C_15
REMARK    9  A    between atoms: C_15  and  C_16
REMARK   10  A    between atoms: C_21  and  C_22
REMARK   11  A    between atoms: C_25  and  C_26
REMARK                            x       y       z     vdW  Elec       q    Type
REMARK                         _______ _______ _______ _____ _____    ______ ____
ROOT
ATOM      1  C   UNL     1       1.951   5.483  19.812  0.00  0.00    +0.000 C 
ATOM      2  O   UNL     1       2.338   5.847  18.730  0.00  0.00    +0.000 OA
ENDROOT
BRANCH   1   3
ATOM      3  O   UNL     1       1.518   6.332  20.789  0.00  0.00    +0.000 OA
BRANCH   3   4
ATOM      4  C   UNL     1       1.829   7.710  20.531  0.00  0.00    +0.000 C 
BRANCH   4   6
ATOM      5  N   UNL     1       0.602   9.825  20.194  0.00  0.00    +0.000 N 
ATOM      6  C   UNL     1       0.613   8.582  20.834  0.00  0.00    +0.000 C 
ATOM      7  O   UNL     1      -0.251   8.143  21.593  0.00  0.00    +0.000 OA
ATOM      8  H   UNL     1       1.394  10.026  19.601  0.00  0.00    +0.000 HD
BRANCH   5  13
ATOM      9  C   UNL     1      -3.442  13.904  20.824  0.00  0.00    +0.000 C 
ATOM     10  C   UNL     1      -2.405  12.839  20.631  0.00  0.00    +0.000 A 
ATOM     11  C   UNL     1      -1.481  12.589  21.632  0.00  0.00    +0.000 A 
ATOM     12  C   UNL     1      -0.512  11.601  21.468  0.00  0.00    +0.000 A 
ATOM     13  C   UNL     1      -0.414  10.819  20.311  0.00  0.00    +0.000 A 
ATOM     14  C   UNL     1      -1.354  11.057  19.283  0.00  0.00    +0.000 A 
ATOM     15  C   UNL     1      -1.420  10.322  17.970  0.00  0.00    +0.000 C 
ATOM     16  C   UNL     1      -2.337  12.071  19.463  0.00  0.00    +0.000 A 
ENDBRANCH   5  13
ENDBRANCH   4   6
ENDBRANCH   3   4
ENDBRANCH   1   3
BRANCH   1  17
ATOM     17  C   UNL     1       1.869   4.035  20.281  0.00  0.00    +0.000 C 
BRANCH  17  18
ATOM     18  S   UNL     1       1.513   2.918  18.841  0.00  0.00    +0.000 S 
BRANCH  18  19
ATOM     19  C   UNL     1       3.088   1.955  18.667  0.00  0.00    +0.000 C 
BRANCH  19  20
ATOM     20  C   UNL     1       4.275   2.876  18.923  0.00  0.00    +0.000 C 
ATOM     21  O   UNL     1       4.988   2.688  19.907  0.00  0.00    +0.000 OA
ATOM     22  N   UNL     1       4.476   3.882  17.995  0.00  0.00    +0.000 N 
ATOM     23  C   UNL     1       5.564   4.739  18.126  0.00  0.00    +0.000 A 
ATOM     24  C   UNL     1       5.701   6.005  17.514  0.00  0.00    +0.000 A 
ATOM     25  C   UNL     1       6.951   6.439  17.889  0.00  0.00    +0.000 A 
ATOM     26  C   UNL     1       7.742   7.647  17.594  0.00  0.00    +0.000 C 
ATOM     27  O   UNL     1       7.518   5.515  18.698  0.00  0.00    +0.000 OA
ATOM     28  N   UNL     1       6.640   4.468  18.871  0.00  0.00    +0.000 NA
ATOM     29  H   UNL     1       3.737   4.178  17.370  0.00  0.00    +0.000 HD
ENDBRANCH  19  20
ENDBRANCH  18  19
ENDBRANCH  17  18
ENDBRANCH   1  17
TORSDOF 8
ENDMDL
MODEL 6
REMARK VINA RESULT:      -7.4      3.006      9.262
REMARK  Name = 
REMARK  11 active torsions:
REMARK  status: ('A' for Active; 'I' for Inactive)
REMARK    1  A    between atoms: C_1  and  C_2
REMARK    2  A    between atoms: C_5  and  N_6
REMARK    3  A    between atoms: C_7  and  C_9
REMARK    4  A    between atoms: C_9  and  O_10
REMARK    5  A    between atoms: O_10  and  C_11
REMARK    6  A    between atoms: C_11  and  C_13
REMARK    7  A    between atoms: C_13  and  S_14
REMARK    8  A    between atoms: S_14  and  C_15
REMARK    9  A    between atoms: C_15  and  C_16
REMARK   10  A    between atoms: C_21  and  C_22
REMARK   11  A    between atoms: C_25  and  C_26
REMARK                            x       y       z     vdW  Elec       q    Type
REMARK                         _______ _______ _______ _____ _____    ______ ____
ROOT
ATOM      1  C   UNL     1       0.370   8.988  21.544  0.00  0.00    +0.000 C 
ATOM      2  O   UNL     1      -0.565   8.228  21.576  0.00  0.00    +0.000 OA
ENDROOT
BRANCH   1   3
ATOM      3  O   UNL     1       1.538   8.728  20.888  0.00  0.00    +0.000 OA
BRANCH   3   4
ATOM      4  C   UNL     1       1.733   7.335  20.594  0.00  0.00    +0.000 C 
BRANCH   4   6
ATOM      5  N   UNL     1       3.270   6.109  19.101  0.00  0.00    +0.000 N 
ATOM      6  C   UNL     1       2.378   7.181  19.219  0.00  0.00    +0.000 C 
ATOM      7  O   UNL     1       2.076   7.981  18.334  0.00  0.00    +0.000 OA
ATOM      8  H   UNL     1       3.401   5.548  19.930  0.00  0.00    +0.000 HD
BRANCH   5  13
ATOM      9  C   UNL     1       6.299   4.826  14.350  0.00  0.00    +0.000 C 
ATOM     10  C   UNL     1       5.502   5.128  15.584  0.00  0.00    +0.000 A 
ATOM     11  C   UNL     1       5.497   6.413  16.102  0.00  0.00    +0.000 A 
ATOM     12  C   UNL     1       4.760   6.709  17.247  0.00  0.00    +0.000 A 
ATOM     13  C   UNL     1       3.999   5.751  17.929  0.00  0.00    +0.000 A 
ATOM     14  C   UNL     1       3.990   4.438  17.410  0.00  0.00    +0.000 A 
ATOM     15  C   UNL     1       3.233   3.272  17.991  0.00  0.00    +0.000 C 
ATOM     16  C   UNL     1       4.748   4.149  16.240  0.00  0.00    +0.000 A 
ENDBRANCH   5  13
ENDBRANCH   4   6
ENDBRANCH   3   4
ENDBRANCH   1   3
BRANCH   1  17
ATOM     17  C   UNL     1       0.422  10.356  22.214  0.00  0.00    +0.000 C 
BRANCH  17  18
ATOM     18  S   UNL     1       0.475  11.694  20.928  0.00  0.00    +0.000 S 
BRANCH  18  19
ATOM     19  C   UNL     1      -1.274  11.748  20.316  0.00  0.00    +0.000 C 
BRANCH  19  20
ATOM     20  C   UNL     1      -1.347  11.105  18.935  0.00  0.00    +0.000 C 
ATOM     21  O   UNL     1      -0.413  10.409  18.541  0.00  0.00    +0.000 OA
ATOM     22  N   UNL     1      -2.498  11.351  18.208  0.00  0.00    +0.000 N 
ATOM     23  C   UNL     1      -2.667  10.765  16.959  0.00  0.00    +0.000 A 
ATOM     24  C   UNL     1      -3.566  11.194  15.957  0.00  0.00    +0.000 A 
ATOM     25  C   UNL     1      -3.416  10.279  14.940  0.00  0.00    +0.000 A 
ATOM     26  C   UNL     1      -4.053  10.105  13.623  0.00  0.00    +0.000 C 
ATOM     27  O   UNL     1      -2.467   9.380  15.289  0.00  0.00    +0.000 OA
ATOM     28  N   UNL     1      -1.978   9.701  16.535  0.00  0.00    +0.000 NA
ATOM     29  H   UNL     1      -3.105  12.129  18.432  0.00  0.00    +0.000 HD
ENDBRANCH  19  20
ENDBRANCH  18  19
ENDBRANCH  17  18
ENDBRANCH   1  17
TORSDOF 8
ENDMDL
MODEL 7
REMARK VINA RESULT:      -7.3      3.342      4.404
REMARK  Name = 
REMARK  11 active torsions:
REMARK  status: ('A' for Active; 'I' for Inactive)
REMARK    1  A    between atoms: C_1  and  C_2
REMARK    2  A    between atoms: C_5  and  N_6
REMARK    3  A    between atoms: C_7  and  C_9
REMARK    4  A    between atoms: C_9  and  O_10
REMARK    5  A    between atoms: O_10  and  C_11
REMARK    6  A    between atoms: C_11  and  C_13
REMARK    7  A    between atoms: C_13  and  S_14
REMARK    8  A    between atoms: S_14  and  C_15
REMARK    9  A    between atoms: C_15  and  C_16
REMARK   10  A    between atoms: C_21  and  C_22
REMARK   11  A    between atoms: C_25  and  C_26
REMARK                            x       y       z     vdW  Elec       q    Type
REMARK                         _______ _______ _______ _____ _____    ______ ____
ROOT
ATOM      1  C   UNL     1       1.355   3.307  19.814  0.00  0.00    +0.000 C 
ATOM      2  O   UNL     1       0.620   2.518  19.275  0.00  0.00    +0.000 OA
ENDROOT
BRANCH   1   3
ATOM      3  O   UNL     1       1.342   4.649  19.564  0.00  0.00    +0.000 OA
BRANCH   3   4
ATOM      4  C   UNL     1       2.023   5.424  20.564  0.00  0.00    +0.000 C 
BRANCH   4   6
ATOM      5  N   UNL     1       0.982   7.643  20.853  0.00  0.00    +0.000 N 
ATOM      6  C   UNL     1       1.972   6.905  20.195  0.00  0.00    +0.000 C 
ATOM      7  O   UNL     1       2.782   7.335  19.376  0.00  0.00    +0.000 OA
ATOM      8  H   UNL     1       0.401   7.131  21.499  0.00  0.00    +0.000 HD
BRANCH   5  13
ATOM      9  C   UNL     1      -0.023  13.269  19.998  0.00  0.00    +0.000 C 
ATOM     10  C   UNL     1       0.230  11.813  20.251  0.00  0.00    +0.000 A 
ATOM     11  C   UNL     1       0.650  10.998  19.214  0.00  0.00    +0.000 A 
ATOM     12  C   UNL     1       0.891   9.643  19.434  0.00  0.00    +0.000 A 
ATOM     13  C   UNL     1       0.727   9.037  20.686  0.00  0.00    +0.000 A 
ATOM     14  C   UNL     1       0.305   9.856  21.756  0.00  0.00    +0.000 A 
ATOM     15  C   UNL     1       0.078   9.399  23.173  0.00  0.00    +0.000 C 
ATOM     16  C   UNL     1       0.061  11.239  21.516  0.00  0.00    +0.000 A 
ENDBRANCH   5  13
ENDBRANCH   4   6
ENDBRANCH   3   4
ENDBRANCH   1   3
BRANCH   1  17
ATOM     17  C   UNL     1       2.411   2.963  20.857  0.00  0.00    +0.000 C 
BRANCH  17  18
ATOM     18  S   UNL     1       3.983   2.435  20.022  0.00  0.00    +0.000 S 
BRANCH  18  19
ATOM     19  C   UNL     1       3.569   2.595  18.222  0.00  0.00    +0.000 C 
BRANCH  19  20
ATOM     20  C   UNL     1       4.533   3.579  17.567  0.00  0.00    +0.000 C 
ATOM     21  O   UNL     1       4.837   4.614  18.158  0.00  0.00    +0.000 OA
ATOM     22  N   UNL     1       5.017   3.220  16.322  0.00  0.00    +0.000 N 
ATOM     23  C   UNL     1       5.938   4.037  15.675  0.00  0.00    +0.000 A 
ATOM     24  C   UNL     1       6.233   4.020  14.293  0.00  0.00    +0.000 A 
ATOM     25  C   UNL     1       7.234   4.952  14.140  0.00  0.00    +0.000 A 
ATOM     26  C   UNL     1       8.021   5.424  12.987  0.00  0.00    +0.000 C 
ATOM     27  O   UNL     1       7.502   5.517  15.341  0.00  0.00    +0.000 OA
ATOM     28  N   UNL     1       6.672   4.967  16.292  0.00  0.00    +0.000 NA
ATOM     29  H   UNL     1       4.549   2.524  15.756  0.00  0.00    +0.000 HD
ENDBRANCH  19  20
ENDBRANCH  18  19
ENDBRANCH  17  18
ENDBRANCH   1  17
TORSDOF 8
ENDMDL
MODEL 8
REMARK VINA RESULT:      -7.3      6.127      8.713
REMARK  Name = 
REMARK  11 active torsions:
REMARK  status: ('A' for Active; 'I' for Inactive)
REMARK    1  A    between atoms: C_1  and  C_2
REMARK    2  A    between atoms: C_5  and  N_6
REMARK    3  A    between atoms: C_7  and  C_9
REMARK    4  A    between atoms: C_9  and  O_10
REMARK    5  A    between atoms: O_10  and  C_11
REMARK    6  A    between atoms: C_11  and  C_13
REMARK    7  A    between atoms: C_13  and  S_14
REMARK    8  A    between atoms: S_14  and  C_15
REMARK    9  A    between atoms: C_15  and  C_16
REMARK   10  A    between atoms: C_21  and  C_22
REMARK   11  A    between atoms: C_25  and  C_26
REMARK                            x       y       z     vdW  Elec       q    Type
REMARK                         _______ _______ _______ _____ _____    ______ ____
ROOT
ATOM      1  C   UNL     1       7.284   5.269  18.391  0.00  0.00    +0.000 C 
ATOM      2  O   UNL     1       7.694   4.226  17.948  0.00  0.00    +0.000 OA
ENDROOT
BRANCH   1   3
ATOM      3  O   UNL     1       7.698   6.494  17.955  0.00  0.00    +0.000 OA
BRANCH   3   4
ATOM      4  C   UNL     1       8.377   7.262  18.961  0.00  0.00    +0.000 C 
BRANCH   4   6
ATOM      5  N   UNL     1       9.363   9.507  19.242  0.00  0.00    +0.000 N 
ATOM      6  C   UNL     1       8.433   8.730  18.545  0.00  0.00    +0.000 C 
ATOM      7  O   UNL     1       7.683   9.115  17.649  0.00  0.00    +0.000 OA
ATOM      8  H   UNL     1       9.902   9.028  19.948  0.00  0.00    +0.000 HD
BRANCH   5  13
ATOM      9  C   UNL     1      10.389  15.109  18.264  0.00  0.00    +0.000 C 
ATOM     10  C   UNL     1      10.114  13.663  18.548  0.00  0.00    +0.000 A 
ATOM     11  C   UNL     1      10.307  12.718  17.554  0.00  0.00    +0.000 A 
ATOM     12  C   UNL     1      10.058  11.370  17.804  0.00  0.00    +0.000 A 
ATOM     13  C   UNL     1       9.609  10.898  19.044  0.00  0.00    +0.000 A 
ATOM     14  C   UNL     1       9.413  11.849  20.070  0.00  0.00    +0.000 A 
ATOM     15  C   UNL     1       8.942  11.544  21.468  0.00  0.00    +0.000 C 
ATOM     16  C   UNL     1       9.670  13.223  19.800  0.00  0.00    +0.000 A 
ENDBRANCH   5  13
ENDBRANCH   4   6
ENDBRANCH   3   4
ENDBRANCH   1   3
BRANCH   1  17
ATOM     17  C   UNL     1       6.244   5.414  19.496  0.00  0.00    +0.000 C 
BRANCH  17  18
ATOM     18  S   UNL     1       4.768   4.351  19.125  0.00  0.00    +0.000 S 
BRANCH  18  19
ATOM     19  C   UNL     1       3.805   5.385  17.925  0.00  0.00    +0.000 C 
BRANCH  19  20
ATOM     20  C   UNL     1       4.639   5.612  16.669  0.00  0.00    +0.000 C 
ATOM     21  O   UNL     1       4.994   6.751  16.374  0.00  0.00    +0.000 OA
ATOM     22  N   UNL     1       4.954   4.482  15.935  0.00  0.00    +0.000 N 
ATOM     23  C   UNL     1       5.751   4.592  14.802  0.00  0.00    +0.000 A 
ATOM     24  C   UNL     1       5.850   3.640  13.762  0.00  0.00    +0.000 A 
ATOM     25  C   UNL     1       6.793   4.158  12.905  0.00  0.00    +0.000 A 
ATOM     26  C   UNL     1       7.397   3.685  11.647  0.00  0.00    +0.000 C 
ATOM     27  O   UNL     1       7.211   5.356  13.376  0.00  0.00    +0.000 OA
ATOM     28  N   UNL     1       6.539   5.640  14.543  0.00  0.00    +0.000 NA
ATOM     29  H   UNL     1       4.431   3.622  16.043  0.00  0.00    +0.000 HD
ENDBRANCH  19  20
ENDBRANCH  18  19
ENDBRANCH  17  18
ENDBRANCH   1  17
TORSDOF 8
ENDMDL
MODEL 9
REMARK VINA RESULT:      -7.3      3.384      5.000
REMARK  Name = 
REMARK  11 active torsions:
REMARK  status: ('A' for Active; 'I' for Inactive)
REMARK    1  A    between atoms: C_1  and  C_2
REMARK    2  A    between atoms: C_5  and  N_6
REMARK    3  A    between atoms: C_7  and  C_9
REMARK    4  A    between atoms: C_9  and  O_10
REMARK    5  A    between atoms: O_10  and  C_11
REMARK    6  A    between atoms: C_11  and  C_13
REMARK    7  A    between atoms: C_13  and  S_14
REMARK    8  A    between atoms: S_14  and  C_15
REMARK    9  A    between atoms: C_15  and  C_16
REMARK   10  A    between atoms: C_21  and  C_22
REMARK   11  A    between atoms: C_25  and  C_26
REMARK                            x       y       z     vdW  Elec       q    Type
REMARK                         _______ _______ _______ _____ _____    ______ ____
ROOT
ATOM      1  C   UNL     1       1.957   2.599  21.060  0.00  0.00    +0.000 C 
ATOM      2  O   UNL     1       2.429   1.900  21.921  0.00  0.00    +0.000 OA
ENDROOT
BRANCH   1   3
ATOM      3  O   UNL     1       1.475   3.857  21.283  0.00  0.00    +0.000 OA
BRANCH   3   4
ATOM      4  C   UNL     1       2.460   4.888  21.106  0.00  0.00    +0.000 C 
BRANCH   4   6
ATOM      5  N   UNL     1       1.736   7.239  20.909  0.00  0.00    +0.000 N 
ATOM      6  C   UNL     1       1.884   6.014  20.250  0.00  0.00    +0.000 C 
ATOM      7  O   UNL     1       1.603   5.776  19.077  0.00  0.00    +0.000 OA
ATOM      8  H   UNL     1       2.020   7.260  21.877  0.00  0.00    +0.000 HD
BRANCH   5  13
ATOM      9  C   UNL     1      -0.234  12.081  18.445  0.00  0.00    +0.000 C 
ATOM     10  C   UNL     1       0.256  10.829  19.109  0.00  0.00    +0.000 A 
ATOM     11  C   UNL     1       1.285  10.102  18.532  0.00  0.00    +0.000 A 
ATOM     12  C   UNL     1       1.751   8.937  19.138  0.00  0.00    +0.000 A 
ATOM     13  C   UNL     1       1.224   8.441  20.336  0.00  0.00    +0.000 A 
ATOM     14  C   UNL     1       0.178   9.174  20.940  0.00  0.00    +0.000 A 
ATOM     15  C   UNL     1      -0.516   8.812  22.227  0.00  0.00    +0.000 C 
ATOM     16  C   UNL     1      -0.290  10.362  20.309  0.00  0.00    +0.000 A 
ENDBRANCH   5  13
ENDBRANCH   4   6
ENDBRANCH   3   4
ENDBRANCH   1   3
BRANCH   1  17
ATOM     17  C   UNL     1       1.817   2.221  19.590  0.00  0.00    +0.000 C 
BRANCH  17  18
ATOM     18  S   UNL     1       3.493   2.091  18.803  0.00  0.00    +0.000 S 
BRANCH  18  19
ATOM     19  C   UNL     1       3.283   3.041  17.225  0.00  0.00    +0.000 C 
BRANCH  19  20
ATOM     20  C   UNL     1       4.559   3.822  16.932  0.00  0.00    +0.000 C 
ATOM     21  O   UNL     1       5.395   3.352  16.162  0.00  0.00    +0.000 OA
ATOM     22  N   UNL     1       4.683   5.046  17.565  0.00  0.00    +0.000 N 
ATOM     23  C   UNL     1       5.793   5.845  17.318  0.00  0.00    +0.000 A 
ATOM     24  C   UNL     1       6.252   6.904  18.133  0.00  0.00    +0.000 A 
ATOM     25  C   UNL     1       7.330   7.424  17.455  0.00  0.00    +0.000 A 
ATOM     26  C   UNL     1       8.252   8.544  17.712  0.00  0.00    +0.000 C 
ATOM     27  O   UNL     1       7.530   6.708  16.324  0.00  0.00    +0.000 OA
ATOM     28  N   UNL     1       6.591   5.705  16.254  0.00  0.00    +0.000 NA
ATOM     29  H   UNL     1       4.132   5.273  18.383  0.00  0.00    +0.000 HD
ENDBRANCH  19  20
ENDBRANCH  18  19
ENDBRANCH  17  18
ENDBRANCH   1  17
TORSDOF 8
ENDMDL
