MODEL 1
REMARK VINA RESULT:      -7.0      0.000      0.000
REMARK  Name = 
REMARK  11 active torsions:
REMARK  status: ('A' for Active; 'I' for Inactive)
REMARK    1  A    between atoms: C_1  and  C_2
REMARK    2  A    between atoms: C_2  and  C_3
REMARK    3  A    between atoms: C_3  and  C_4
REMARK    4  A    between atoms: C_4  and  C_5
REMARK    5  A    between atoms: C_5  and  C_6
REMARK    6  A    between atoms: C_6  and  C_7
REMARK    7  A    between atoms: C_7  and  C_8
REMARK    8  A    between atoms: C_8  and  N_9
REMARK    9  A    between atoms: C_10  and  C_11
REMARK   10  A    between atoms: C_14  and  O_15
REMARK   11  A    between atoms: O_15  and  C_16
REMARK                            x       y       z     vdW  Elec       q    Type
REMARK                         _______ _______ _______ _____ _____    ______ ____
ROOT
ATOM      1  N   UNL     1       3.048   4.788  18.558  0.00  0.00    +0.000 N 
ATOM      2  C   UNL     1       4.312   4.240  18.238  0.00  0.00    +0.000 A 
ATOM      3  C   UNL     1       4.535   3.279  19.211  0.00  0.00    +0.000 A 
ATOM      4  N   UNL     1       3.421   3.219  20.016  0.00  0.00    +0.000 N 
ATOM      5  C   UNL     1       3.209   2.408  21.103  0.00  0.00    +0.000 A 
ATOM      6  C   UNL     1       2.044   2.541  21.742  0.00  0.00    +0.000 A 
ATOM      7  C   UNL     1       1.089   3.528  21.199  0.00  0.00    +0.000 A 
ATOM      8  N   UNL     1       1.274   4.280  20.164  0.00  0.00    +0.000 NA
ATOM      9  C   UNL     1       2.521   4.102  19.577  0.00  0.00    +0.000 A 
ENDROOT
BRANCH   2  10
ATOM     10  C   UNL     1       5.259   4.578  17.117  0.00  0.00    +0.000 A 
ATOM     11  C   UNL     1       5.013   4.126  15.816  0.00  0.00    +0.000 A 
ATOM     12  C   UNL     1       5.916   4.425  14.790  0.00  0.00    +0.000 A 
ATOM     13  C   UNL     1       7.050   5.199  15.040  0.00  0.00    +0.000 A 
ATOM     14  C   UNL     1       7.286   5.665  16.332  0.00  0.00    +0.000 A 
ATOM     15  C   UNL     1       6.388   5.363  17.362  0.00  0.00    +0.000 A 
BRANCH  13  16
ATOM     16  O   UNL     1       7.867   5.419  13.968  0.00  0.00    +0.000 OA
ATOM     17  C   UNL     1       7.449   4.837  12.735  0.00  0.00    +0.000 C 
ENDBRANCH  13  16
ENDBRANCH   2  10
BRANCH   1  18
ATOM     18  C   UNL     1       2.408   5.967  17.950  0.00  0.00    +0.000 C 
BRANCH  18  19
ATOM     19  C   UNL     1       3.276   7.224  17.847  0.00  0.00    +0.000 C 
BRANCH  19  20
ATOM     20  C   UNL     1       2.482   8.531  17.858  0.00  0.00    +0.000 C 
BRANCH  20  21
ATOM     21  C   UNL     1       1.581   8.626  19.084  0.00  0.00    +0.000 C 
BRANCH  21  22
ATOM     22  C   UNL     1       0.643   9.825  19.011  0.00  0.00    +0.000 C 
BRANCH  22  23
ATOM     23  C   UNL     1       0.140  10.168  20.411  0.00  0.00    +0.000 C 
BRANCH  23  25
ATOM     24  C   UNL     1      -0.253   9.329  22.738  0.00  0.00    +0.000 C 
ATOM     25  C   UNL     1       0.169   8.952  21.328  0.00  0.00    +0.000 C 
ENDBRANCH  23  25
ENDBRANCH  22  23
ENDBRANCH  21  22
ENDBRANCH  20  21
ENDBRANCH  19  20
ENDBRANCH  18  19
ENDBRANCH   1  18
TORSDOF 9
ENDMDL
MODEL 2
REMARK VINA RESULT:      -7.0      2.502      7.112
REMARK  Name = 
REMARK  11 active torsions:
REMARK  status: ('A' for Active; 'I' for Inactive)
REMARK    1  A    between atoms: C_1  and  C_2
REMARK    2  A    between atoms: C_2  and  C_3
REMARK    3  A    between atoms: C_3  and  C_4
REMARK    4  A    between atoms: C_4  and  C_5
REMARK    5  A    between atoms: C_5  and  C_6
REMARK    6  A    between atoms: C_6  and  C_7
REMARK    7  A    between atoms: C_7  and  C_8
REMARK    8  A    between atoms: C_8  and  N_9
REMARK    9  A    between atoms: C_10  and  C_11
REMARK   10  A    between atoms: C_14  and  O_15
REMARK   11  A    between atoms: O_15  and  C_16
REMARK                            x       y       z     vdW  Elec       q    Type
REMARK                         _______ _______ _______ _____ _____    ______ ____
ROOT
ATOM      1  N   UNL     1       3.716   5.503  19.201  0.00  0.00    +0.000 N 
ATOM      2  C   UNL     1       2.576   6.191  19.679  0.00  0.00    +0.000 A 
ATOM      3  C   UNL     1       1.931   5.277  20.498  0.00  0.00    +0.000 A 
ATOM      4  N   UNL     1       2.697   4.137  20.552  0.00  0.00    +0.000 N 
ATOM      5  C   UNL     1       2.439   2.979  21.243  0.00  0.00    +0.000 A 
ATOM      6  C   UNL     1       3.331   1.992  21.130  0.00  0.00    +0.000 A 
ATOM      7  C   UNL     1       4.521   2.254  20.294  0.00  0.00    +0.000 A 
ATOM      8  N   UNL     1       4.780   3.348  19.658  0.00  0.00    +0.000 NA
ATOM      9  C   UNL     1       3.789   4.311  19.802  0.00  0.00    +0.000 A 
ENDROOT
BRANCH   2  10
ATOM     10  C   UNL     1       2.104   7.593  19.400  0.00  0.00    +0.000 A 
ATOM     11  C   UNL     1       1.518   8.363  20.412  0.00  0.00    +0.000 A 
ATOM     12  C   UNL     1       1.060   9.653  20.130  0.00  0.00    +0.000 A 
ATOM     13  C   UNL     1       1.206  10.201  18.854  0.00  0.00    +0.000 A 
ATOM     14  C   UNL     1       1.806   9.442  17.852  0.00  0.00    +0.000 A 
ATOM     15  C   UNL     1       2.261   8.149  18.128  0.00  0.00    +0.000 A 
BRANCH  13  16
ATOM     16  O   UNL     1       0.713  11.464  18.691  0.00  0.00    +0.000 OA
ATOM     17  C   UNL     1       0.356  12.156  19.885  0.00  0.00    +0.000 C 
ENDBRANCH  13  16
ENDBRANCH   2  10
BRANCH   1  18
ATOM     18  C   UNL     1       4.654   5.949  18.158  0.00  0.00    +0.000 C 
BRANCH  18  19
ATOM     19  C   UNL     1       4.393   5.413  16.747  0.00  0.00    +0.000 C 
BRANCH  19  20
ATOM     20  C   UNL     1       5.425   4.389  16.271  0.00  0.00    +0.000 C 
BRANCH  20  21
ATOM     21  C   UNL     1       6.743   5.057  15.896  0.00  0.00    +0.000 C 
BRANCH  21  22
ATOM     22  C   UNL     1       7.100   4.833  14.431  0.00  0.00    +0.000 C 
BRANCH  22  23
ATOM     23  C   UNL     1       6.081   3.893  13.793  0.00  0.00    +0.000 C 
BRANCH  23  25
ATOM     24  C   UNL     1       5.481   2.583  11.744  0.00  0.00    +0.000 C 
ATOM     25  C   UNL     1       6.374   3.671  12.315  0.00  0.00    +0.000 C 
ENDBRANCH  23  25
ENDBRANCH  22  23
ENDBRANCH  21  22
ENDBRANCH  20  21
ENDBRANCH  19  20
ENDBRANCH  18  19
ENDBRANCH   1  18
TORSDOF 9
ENDMDL
MODEL 3
REMARK VINA RESULT:      -7.0      1.068      1.763
REMARK  Name = 
REMARK  11 active torsions:
REMARK  status: ('A' for Active; 'I' for Inactive)
REMARK    1  A    between atoms: C_1  and  C_2
REMARK    2  A    between atoms: C_2  and  C_3
REMARK    3  A    between atoms: C_3  and  C_4
REMARK    4  A    between atoms: C_4  and  C_5
REMARK    5  A    between atoms: C_5  and  C_6
REMARK    6  A    between atoms: C_6  and  C_7
REMARK    7  A    between atoms: C_7  and  C_8
REMARK    8  A    between atoms: C_8  and  N_9
REMARK    9  A    between atoms: C_10  and  C_11
REMARK   10  A    between atoms: C_14  and  O_15
REMARK   11  A    between atoms: O_15  and  C_16
REMARK                            x       y       z     vdW  Elec       q    Type
REMARK                         _______ _______ _______ _____ _____    ______ ____
ROOT
ATOM      1  N   UNL     1       3.062   4.721  18.524  0.00  0.00    +0.000 N 
ATOM      2  C   UNL     1       4.340   4.188  18.235  0.00  0.00    +0.000 A 
ATOM      3  C   UNL     1       4.560   3.244  19.225  0.00  0.00    +0.000 A 
ATOM      4  N   UNL     1       3.433   3.177  20.010  0.00  0.00    +0.000 N 
ATOM      5  C   UNL     1       3.214   2.378  21.105  0.00  0.00    +0.000 A 
ATOM      6  C   UNL     1       2.035   2.501  21.721  0.00  0.00    +0.000 A 
ATOM      7  C   UNL     1       1.075   3.467  21.147  0.00  0.00    +0.000 A 
ATOM      8  N   UNL     1       1.268   4.207  20.106  0.00  0.00    +0.000 NA
ATOM      9  C   UNL     1       2.527   4.041  19.544  0.00  0.00    +0.000 A 
ENDROOT
BRANCH   2  10
ATOM     10  C   UNL     1       5.301   4.526  17.126  0.00  0.00    +0.000 A 
ATOM     11  C   UNL     1       6.210   5.581  17.267  0.00  0.00    +0.000 A 
ATOM     12  C   UNL     1       7.077   5.900  16.218  0.00  0.00    +0.000 A 
ATOM     13  C   UNL     1       7.072   5.158  15.035  0.00  0.00    +0.000 A 
ATOM     14  C   UNL     1       6.180   4.096  14.901  0.00  0.00    +0.000 A 
ATOM     15  C   UNL     1       5.307   3.777  15.947  0.00  0.00    +0.000 A 
BRANCH  13  16
ATOM     16  O   UNL     1       7.953   5.566  14.075  0.00  0.00    +0.000 OA
ATOM     17  C   UNL     1       7.745   5.034  12.769  0.00  0.00    +0.000 C 
ENDBRANCH  13  16
ENDBRANCH   2  10
BRANCH   1  18
ATOM     18  C   UNL     1       2.415   5.882  17.890  0.00  0.00    +0.000 C 
BRANCH  18  19
ATOM     19  C   UNL     1       2.568   7.218  18.621  0.00  0.00    +0.000 C 
BRANCH  19  20
ATOM     20  C   UNL     1       2.130   8.431  17.798  0.00  0.00    +0.000 C 
BRANCH  20  21
ATOM     21  C   UNL     1       1.410   9.461  18.661  0.00  0.00    +0.000 C 
BRANCH  21  22
ATOM     22  C   UNL     1       0.079   9.884  18.054  0.00  0.00    +0.000 C 
BRANCH  22  23
ATOM     23  C   UNL     1      -0.854  10.377  19.157  0.00  0.00    +0.000 C 
BRANCH  23  25
ATOM     24  C   UNL     1      -0.857  12.734  18.310  0.00  0.00    +0.000 C 
ATOM     25  C   UNL     1      -1.717  11.538  18.682  0.00  0.00    +0.000 C 
ENDBRANCH  23  25
ENDBRANCH  22  23
ENDBRANCH  21  22
ENDBRANCH  20  21
ENDBRANCH  19  20
ENDBRANCH  18  19
ENDBRANCH   1  18
TORSDOF 9
ENDMDL
MODEL 4
REMARK VINA RESULT:      -7.0      0.971      1.474
REMARK  Name = 
REMARK  11 active torsions:
REMARK  status: ('A' for Active; 'I' for Inactive)
REMARK    1  A    between atoms: C_1  and  C_2
REMARK    2  A    between atoms: C_2  and  C_3
REMARK    3  A    between atoms: C_3  and  C_4
REMARK    4  A    between atoms: C_4  and  C_5
REMARK    5  A    between atoms: C_5  and  C_6
REMARK    6  A    between atoms: C_6  and  C_7
REMARK    7  A    between atoms: C_7  and  C_8
REMARK    8  A    between atoms: C_8  and  N_9
REMARK    9  A    between atoms: C_10  and  C_11
REMARK   10  A    between atoms: C_14  and  O_15
REMARK   11  A    between atoms: O_15  and  C_16
REMARK                            x       y       z     vdW  Elec       q    Type
REMARK                         _______ _______ _______ _____ _____    ______ ____
ROOT
ATOM      1  N   UNL     1       3.005   4.739  18.544  0.00  0.00    +0.000 N 
ATOM      2  C   UNL     1       4.300   4.245  18.262  0.00  0.00    +0.000 A 
ATOM      3  C   UNL     1       4.541   3.305  19.251  0.00  0.00    +0.000 A 
ATOM      4  N   UNL     1       3.412   3.204  20.029  0.00  0.00    +0.000 N 
ATOM      5  C   UNL     1       3.209   2.395  21.121  0.00  0.00    +0.000 A 
ATOM      6  C   UNL     1       2.024   2.483  21.730  0.00  0.00    +0.000 A 
ATOM      7  C   UNL     1       1.039   3.421  21.152  0.00  0.00    +0.000 A 
ATOM      8  N   UNL     1       1.217   4.169  20.113  0.00  0.00    +0.000 NA
ATOM      9  C   UNL     1       2.484   4.041  19.559  0.00  0.00    +0.000 A 
ENDROOT
BRANCH   2  10
ATOM     10  C   UNL     1       5.257   4.613  17.160  0.00  0.00    +0.000 A 
ATOM     11  C   UNL     1       5.075   4.120  15.863  0.00  0.00    +0.000 A 
ATOM     12  C   UNL     1       5.989   4.449  14.856  0.00  0.00    +0.000 A 
ATOM     13  C   UNL     1       7.071   5.292  15.120  0.00  0.00    +0.000 A 
ATOM     14  C   UNL     1       7.242   5.797  16.407  0.00  0.00    +0.000 A 
ATOM     15  C   UNL     1       6.333   5.466  17.418  0.00  0.00    +0.000 A 
BRANCH  13  16
ATOM     16  O   UNL     1       7.903   5.535  14.066  0.00  0.00    +0.000 OA
ATOM     17  C   UNL     1       7.540   4.927  12.829  0.00  0.00    +0.000 C 
ENDBRANCH  13  16
ENDBRANCH   2  10
BRANCH   1  18
ATOM     18  C   UNL     1       2.328   5.882  17.908  0.00  0.00    +0.000 C 
BRANCH  18  19
ATOM     19  C   UNL     1       2.593   7.253  18.536  0.00  0.00    +0.000 C 
BRANCH  19  20
ATOM     20  C   UNL     1       2.038   8.426  17.725  0.00  0.00    +0.000 C 
BRANCH  20  21
ATOM     21  C   UNL     1       1.437   9.495  18.630  0.00  0.00    +0.000 C 
BRANCH  21  22
ATOM     22  C   UNL     1       0.012   9.852  18.224  0.00  0.00    +0.000 C 
BRANCH  22  23
ATOM     23  C   UNL     1      -0.757  10.355  19.442  0.00  0.00    +0.000 C 
BRANCH  23  25
ATOM     24  C   UNL     1      -1.906  11.644  17.626  0.00  0.00    +0.000 C 
ATOM     25  C   UNL     1      -1.582  11.592  19.110  0.00  0.00    +0.000 C 
ENDBRANCH  23  25
ENDBRANCH  22  23
ENDBRANCH  21  22
ENDBRANCH  20  21
ENDBRANCH  19  20
ENDBRANCH  18  19
ENDBRANCH   1  18
TORSDOF 9
ENDMDL
MODEL 5
REMARK VINA RESULT:      -6.9      1.822      5.115
REMARK  Name = 
REMARK  11 active torsions:
REMARK  status: ('A' for Active; 'I' for Inactive)
REMARK    1  A    between atoms: C_1  and  C_2
REMARK    2  A    between atoms: C_2  and  C_3
REMARK    3  A    between atoms: C_3  and  C_4
REMARK    4  A    between atoms: C_4  and  C_5
REMARK    5  A    between atoms: C_5  and  C_6
REMARK    6  A    between atoms: C_6  and  C_7
REMARK    7  A    between atoms: C_7  and  C_8
REMARK    8  A    between atoms: C_8  and  N_9
REMARK    9  A    between atoms: C_10  and  C_11
REMARK   10  A    between atoms: C_14  and  O_15
REMARK   11  A    between atoms: O_15  and  C_16
REMARK                            x       y       z     vdW  Elec       q    Type
REMARK                         _______ _______ _______ _____ _____    ______ ____
ROOT
ATOM      1  N   UNL     1       2.727   7.032  19.488  0.00  0.00    +0.000 N 
ATOM      2  C   UNL     1       3.302   7.335  18.231  0.00  0.00    +0.000 A 
ATOM      3  C   UNL     1       2.605   8.446  17.784  0.00  0.00    +0.000 A 
ATOM      4  N   UNL     1       1.717   8.817  18.766  0.00  0.00    +0.000 N 
ATOM      5  C   UNL     1       0.827   9.863  18.747  0.00  0.00    +0.000 A 
ATOM      6  C   UNL     1       0.050  10.019  19.822  0.00  0.00    +0.000 A 
ATOM      7  C   UNL     1       0.244   9.066  20.935  0.00  0.00    +0.000 A 
ATOM      8  N   UNL     1       1.093   8.093  20.967  0.00  0.00    +0.000 NA
ATOM      9  C   UNL     1       1.839   7.982  19.801  0.00  0.00    +0.000 A 
ENDROOT
BRANCH   2  10
ATOM     10  C   UNL     1       4.413   6.647  17.485  0.00  0.00    +0.000 A 
ATOM     11  C   UNL     1       4.443   6.653  16.085  0.00  0.00    +0.000 A 
ATOM     12  C   UNL     1       5.467   5.986  15.406  0.00  0.00    +0.000 A 
ATOM     13  C   UNL     1       6.485   5.335  16.107  0.00  0.00    +0.000 A 
ATOM     14  C   UNL     1       6.466   5.345  17.500  0.00  0.00    +0.000 A 
ATOM     15  C   UNL     1       5.440   6.006  18.183  0.00  0.00    +0.000 A 
BRANCH  13  16
ATOM     16  O   UNL     1       7.426   4.709  15.341  0.00  0.00    +0.000 OA
ATOM     17  C   UNL     1       7.153   4.646  13.943  0.00  0.00    +0.000 C 
ENDBRANCH  13  16
ENDBRANCH   2  10
BRANCH   1  18
ATOM     18  C   UNL     1       2.974   5.841  20.318  0.00  0.00    +0.000 C 
BRANCH  18  19
ATOM     19  C   UNL     1       1.731   5.076  20.781  0.00  0.00    +0.000 C 
BRANCH  19  20
ATOM     20  C   UNL     1       2.039   3.735  21.448  0.00  0.00    +0.000 C 
BRANCH  20  21
ATOM     21  C   UNL     1       1.249   2.599  20.808  0.00  0.00    +0.000 C 
BRANCH  21  22
ATOM     22  C   UNL     1       1.925   2.073  19.548  0.00  0.00    +0.000 C 
BRANCH  22  23
ATOM     23  C   UNL     1       1.265   2.688  18.318  0.00  0.00    +0.000 C 
BRANCH  23  25
ATOM     24  C   UNL     1       3.643   2.927  17.567  0.00  0.00    +0.000 C 
ATOM     25  C   UNL     1       2.249   3.530  17.518  0.00  0.00    +0.000 C 
ENDBRANCH  23  25
ENDBRANCH  22  23
ENDBRANCH  21  22
ENDBRANCH  20  21
ENDBRANCH  19  20
ENDBRANCH  18  19
ENDBRANCH   1  18
TORSDOF 9
ENDMDL
MODEL 6
REMARK VINA RESULT:      -6.9      2.525      6.522
REMARK  Name = 
REMARK  11 active torsions:
REMARK  status: ('A' for Active; 'I' for Inactive)
REMARK    1  A    between atoms: C_1  and  C_2
REMARK    2  A    between atoms: C_2  and  C_3
REMARK    3  A    between atoms: C_3  and  C_4
REMARK    4  A    between atoms: C_4  and  C_5
REMARK    5  A    between atoms: C_5  and  C_6
REMARK    6  A    between atoms: C_6  and  C_7
REMARK    7  A    between atoms: C_7  and  C_8
REMARK    8  A    between atoms: C_8  and  N_9
REMARK    9  A    between atoms: C_10  and  C_11
REMARK   10  A    between atoms: C_14  and  O_15
REMARK   11  A    between atoms: O_15  and  C_16
REMARK                            x       y       z     vdW  Elec       q    Type
REMARK                         _______ _______ _______ _____ _____    ______ ____
ROOT
ATOM      1  N   UNL     1       3.308   5.650  19.345  0.00  0.00    +0.000 N 
ATOM      2  C   UNL     1       2.249   6.450  19.835  0.00  0.00    +0.000 A 
ATOM      3  C   UNL     1       1.575   5.632  20.728  0.00  0.00    +0.000 A 
ATOM      4  N   UNL     1       2.252   4.438  20.810  0.00  0.00    +0.000 N 
ATOM      5  C   UNL     1       1.938   3.340  21.572  0.00  0.00    +0.000 A 
ATOM      6  C   UNL     1       2.745   2.281  21.473  0.00  0.00    +0.000 A 
ATOM      7  C   UNL     1       3.910   2.405  20.573  0.00  0.00    +0.000 A 
ATOM      8  N   UNL     1       4.222   3.442  19.868  0.00  0.00    +0.000 NA
ATOM      9  C   UNL     1       3.317   4.487  20.004  0.00  0.00    +0.000 A 
ENDROOT
BRANCH   2  10
ATOM     10  C   UNL     1       1.875   7.870  19.503  0.00  0.00    +0.000 A 
ATOM     11  C   UNL     1       1.263   8.688  20.459  0.00  0.00    +0.000 A 
ATOM     12  C   UNL     1       0.896   9.996  20.127  0.00  0.00    +0.000 A 
ATOM     13  C   UNL     1       1.160  10.512  18.856  0.00  0.00    +0.000 A 
ATOM     14  C   UNL     1       1.785   9.703  17.910  0.00  0.00    +0.000 A 
ATOM     15  C   UNL     1       2.149   8.392  18.236  0.00  0.00    +0.000 A 
BRANCH  13  16
ATOM     16  O   UNL     1       0.749  11.795  18.640  0.00  0.00    +0.000 OA
ATOM     17  C   UNL     1      -0.661  12.008  18.633  0.00  0.00    +0.000 C 
ENDBRANCH  13  16
ENDBRANCH   2  10
BRANCH   1  18
ATOM     18  C   UNL     1       4.228   5.967  18.239  0.00  0.00    +0.000 C 
BRANCH  18  19
ATOM     19  C   UNL     1       3.967   5.236  16.919  0.00  0.00    +0.000 C 
BRANCH  19  20
ATOM     20  C   UNL     1       4.966   4.116  16.622  0.00  0.00    +0.000 C 
BRANCH  20  21
ATOM     21  C   UNL     1       5.974   4.535  15.558  0.00  0.00    +0.000 C 
BRANCH  21  22
ATOM     22  C   UNL     1       7.168   5.267  16.161  0.00  0.00    +0.000 C 
BRANCH  22  23
ATOM     23  C   UNL     1       7.552   4.616  17.486  0.00  0.00    +0.000 C 
BRANCH  23  25
ATOM     24  C   UNL     1       7.743   7.061  17.996  0.00  0.00    +0.000 C 
ATOM     25  C   UNL     1       7.779   5.657  18.574  0.00  0.00    +0.000 C 
ENDBRANCH  23  25
ENDBRANCH  22  23
ENDBRANCH  21  22
ENDBRANCH  20  21
ENDBRANCH  19  20
ENDBRANCH  18  19
ENDBRANCH   1  18
TORSDOF 9
ENDMDL
MODEL 7
REMARK VINA RESULT:      -6.9      2.656      6.428
REMARK  Name = 
REMARK  11 active torsions:
REMARK  status: ('A' for Active; 'I' for Inactive)
REMARK    1  A    between atoms: C_1  and  C_2
REMARK    2  A    between atoms: C_2  and  C_3
REMARK    3  A    between atoms: C_3  and  C_4
REMARK    4  A    between atoms: C_4  and  C_5
REMARK    5  A    between atoms: C_5  and  C_6
REMARK    6  A    between atoms: C_6  and  C_7
REMARK    7  A    between atoms: C_7  and  C_8
REMARK    8  A    between atoms: C_8  and  N_9
REMARK    9  A    between atoms: C_10  and  C_11
REMARK   10  A    between atoms: C_14  and  O_15
REMARK   11  A    between atoms: O_15  and  C_16
REMARK                            x       y       z     vdW  Elec       q    Type
REMARK                         _______ _______ _______ _____ _____    ______ ____
ROOT
ATOM      1  N   UNL     1       3.367   5.674  19.243  0.00  0.00    +0.000 N 
ATOM      2  C   UNL     1       2.317   6.460  19.772  0.00  0.00    +0.000 A 
ATOM      3  C   UNL     1       1.675   5.629  20.676  0.00  0.00    +0.000 A 
ATOM      4  N   UNL     1       2.364   4.439  20.726  0.00  0.00    +0.000 N 
ATOM      5  C   UNL     1       2.079   3.332  21.486  0.00  0.00    +0.000 A 
ATOM      6  C   UNL     1       2.891   2.279  21.353  0.00  0.00    +0.000 A 
ATOM      7  C   UNL     1       4.028   2.422  20.420  0.00  0.00    +0.000 A 
ATOM      8  N   UNL     1       4.312   3.468  19.718  0.00  0.00    +0.000 NA
ATOM      9  C   UNL     1       3.404   4.504  19.890  0.00  0.00    +0.000 A 
ENDROOT
BRANCH   2  10
ATOM     10  C   UNL     1       1.922   7.880  19.465  0.00  0.00    +0.000 A 
ATOM     11  C   UNL     1       1.271   8.663  20.425  0.00  0.00    +0.000 A 
ATOM     12  C   UNL     1       0.886   9.971  20.116  0.00  0.00    +0.000 A 
ATOM     13  C   UNL     1       1.171  10.523  18.865  0.00  0.00    +0.000 A 
ATOM     14  C   UNL     1       1.836   9.750  17.915  0.00  0.00    +0.000 A 
ATOM     15  C   UNL     1       2.217   8.439  18.219  0.00  0.00    +0.000 A 
BRANCH  13  16
ATOM     16  O   UNL     1       0.739  11.804  18.670  0.00  0.00    +0.000 OA
ATOM     17  C   UNL     1       1.272  12.785  19.556  0.00  0.00    +0.000 C 
ENDBRANCH  13  16
ENDBRANCH   2  10
BRANCH   1  18
ATOM     18  C   UNL     1       4.251   6.009  18.114  0.00  0.00    +0.000 C 
BRANCH  18  19
ATOM     19  C   UNL     1       4.198   5.059  16.915  0.00  0.00    +0.000 C 
BRANCH  19  20
ATOM     20  C   UNL     1       5.550   4.443  16.548  0.00  0.00    +0.000 C 
BRANCH  20  21
ATOM     21  C   UNL     1       6.672   5.472  16.631  0.00  0.00    +0.000 C 
BRANCH  21  22
ATOM     22  C   UNL     1       7.570   5.241  17.840  0.00  0.00    +0.000 C 
BRANCH  22  23
ATOM     23  C   UNL     1       7.869   6.575  18.518  0.00  0.00    +0.000 C 
BRANCH  23  25
ATOM     24  C   UNL     1       8.329   9.002  18.101  0.00  0.00    +0.000 C 
ATOM     25  C   UNL     1       7.666   7.745  17.565  0.00  0.00    +0.000 C 
ENDBRANCH  23  25
ENDBRANCH  22  23
ENDBRANCH  21  22
ENDBRANCH  20  21
ENDBRANCH  19  20
ENDBRANCH  18  19
ENDBRANCH   1  18
TORSDOF 9
ENDMDL
MODEL 8
REMARK VINA RESULT:      -6.9      2.818      6.950
REMARK  Name = 
REMARK  11 active torsions:
REMARK  status: ('A' for Active; 'I' for Inactive)
REMARK    1  A    between atoms: C_1  and  C_2
REMARK    2  A    between atoms: C_2  and  C_3
REMARK    3  A    between atoms: C_3  and  C_4
REMARK    4  A    between atoms: C_4  and  C_5
REMARK    5  A    between atoms: C_5  and  C_6
REMARK    6  A    between atoms: C_6  and  C_7
REMARK    7  A    between atoms: C_7  and  C_8
REMARK    8  A    between atoms: C_8  and  N_9
REMARK    9  A    between atoms: C_10  and  C_11
REMARK   10  A    between atoms: C_14  and  O_15
REMARK   11  A    between atoms: O_15  and  C_16
REMARK                            x       y       z     vdW  Elec       q    Type
REMARK                         _______ _______ _______ _____ _____    ______ ____
ROOT
ATOM      1  N   UNL     1       3.107   5.595  17.603  0.00  0.00    +0.000 N 
ATOM      2  C   UNL     1       3.284   6.951  17.964  0.00  0.00    +0.000 A 
ATOM      3  C   UNL     1       4.609   7.225  17.662  0.00  0.00    +0.000 A 
ATOM      4  N   UNL     1       5.156   6.104  17.084  0.00  0.00    +0.000 N 
ATOM      5  C   UNL     1       6.441   5.930  16.631  0.00  0.00    +0.000 A 
ATOM      6  C   UNL     1       6.747   4.736  16.116  0.00  0.00    +0.000 A 
ATOM      7  C   UNL     1       5.666   3.731  16.061  0.00  0.00    +0.000 A 
ATOM      8  N   UNL     1       4.450   3.895  16.467  0.00  0.00    +0.000 NA
ATOM      9  C   UNL     1       4.223   5.150  17.016  0.00  0.00    +0.000 A 
ENDROOT
BRANCH   2  10
ATOM     10  C   UNL     1       2.306   7.931  18.554  0.00  0.00    +0.000 A 
ATOM     11  C   UNL     1       1.681   8.888  17.746  0.00  0.00    +0.000 A 
ATOM     12  C   UNL     1       0.796   9.810  18.313  0.00  0.00    +0.000 A 
ATOM     13  C   UNL     1       0.500   9.771  19.677  0.00  0.00    +0.000 A 
ATOM     14  C   UNL     1       1.107   8.806  20.478  0.00  0.00    +0.000 A 
ATOM     15  C   UNL     1       1.998   7.886  19.916  0.00  0.00    +0.000 A 
BRANCH  13  16
ATOM     16  O   UNL     1      -0.369  10.725  20.123  0.00  0.00    +0.000 OA
ATOM     17  C   UNL     1      -0.878  11.618  19.135  0.00  0.00    +0.000 C 
ENDBRANCH  13  16
ENDBRANCH   2  10
BRANCH   1  18
ATOM     18  C   UNL     1       1.936   4.745  17.876  0.00  0.00    +0.000 C 
BRANCH  18  19
ATOM     19  C   UNL     1       1.529   4.614  19.346  0.00  0.00    +0.000 C 
BRANCH  19  20
ATOM     20  C   UNL     1       0.823   3.299  19.682  0.00  0.00    +0.000 C 
BRANCH  20  21
ATOM     21  C   UNL     1       1.201   2.801  21.072  0.00  0.00    +0.000 C 
BRANCH  21  22
ATOM     22  C   UNL     1       2.626   3.186  21.448  0.00  0.00    +0.000 C 
BRANCH  22  23
ATOM     23  C   UNL     1       3.578   2.053  21.077  0.00  0.00    +0.000 C 
BRANCH  23  25
ATOM     24  C   UNL     1       3.756   1.406  18.664  0.00  0.00    +0.000 C 
ATOM     25  C   UNL     1       4.282   2.324  19.754  0.00  0.00    +0.000 C 
ENDBRANCH  23  25
ENDBRANCH  22  23
ENDBRANCH  21  22
ENDBRANCH  20  21
ENDBRANCH  19  20
ENDBRANCH  18  19
ENDBRANCH   1  18
TORSDOF 9
ENDMDL
MODEL 9
REMARK VINA RESULT:      -6.8      2.543      7.046
REMARK  Name = 
REMARK  11 active torsions:
REMARK  status: ('A' for Active; 'I' for Inactive)
REMARK    1  A    between atoms: C_1  and  C_2
REMARK    2  A    between atoms: C_2  and  C_3
REMARK    3  A    between atoms: C_3  and  C_4
REMARK    4  A    between atoms: C_4  and  C_5
REMARK    5  A    between atoms: C_5  and  C_6
REMARK    6  A    between atoms: C_6  and  C_7
REMARK    7  A    between atoms: C_7  and  C_8
REMARK    8  A    between atoms: C_8  and  N_9
REMARK    9  A    between atoms: C_10  and  C_11
REMARK   10  A    between atoms: C_14  and  O_15
REMARK   11  A    between atoms: O_15  and  C_16
REMARK                            x       y       z     vdW  Elec       q    Type
REMARK                         _______ _______ _______ _____ _____    ______ ____
ROOT
ATOM      1  N   UNL     1       3.449   5.578  18.921  0.00  0.00    +0.000 N 
ATOM      2  C   UNL     1       2.469   6.333  19.606  0.00  0.00    +0.000 A 
ATOM      3  C   UNL     1       1.983   5.476  20.581  0.00  0.00    +0.000 A 
ATOM      4  N   UNL     1       2.698   4.303  20.514  0.00  0.00    +0.000 N 
ATOM      5  C   UNL     1       2.552   3.181  21.291  0.00  0.00    +0.000 A 
ATOM      6  C   UNL     1       3.359   2.150  21.027  0.00  0.00    +0.000 A 
ATOM      7  C   UNL     1       4.347   2.331  19.943  0.00  0.00    +0.000 A 
ATOM      8  N   UNL     1       4.503   3.391  19.222  0.00  0.00    +0.000 NA
ATOM      9  C   UNL     1       3.606   4.403  19.538  0.00  0.00    +0.000 A 
ENDROOT
BRANCH   2  10
ATOM     10  C   UNL     1       2.003   7.747  19.380  0.00  0.00    +0.000 A 
ATOM     11  C   UNL     1       2.171   8.363  18.135  0.00  0.00    +0.000 A 
ATOM     12  C   UNL     1       1.758   9.686  17.948  0.00  0.00    +0.000 A 
ATOM     13  C   UNL     1       1.148  10.396  18.984  0.00  0.00    +0.000 A 
ATOM     14  C   UNL     1       0.963   9.777  20.218  0.00  0.00    +0.000 A 
ATOM     15  C   UNL     1       1.380   8.456  20.410  0.00  0.00    +0.000 A 
BRANCH  13  16
ATOM     16  O   UNL     1       0.795  11.683  18.692  0.00  0.00    +0.000 OA
ATOM     17  C   UNL     1       0.167  12.413  19.744  0.00  0.00    +0.000 C 
ENDBRANCH  13  16
ENDBRANCH   2  10
BRANCH   1  18
ATOM     18  C   UNL     1       4.154   5.948  17.681  0.00  0.00    +0.000 C 
BRANCH  18  19
ATOM     19  C   UNL     1       5.666   6.154  17.806  0.00  0.00    +0.000 C 
BRANCH  19  20
ATOM     20  C   UNL     1       6.485   5.402  16.754  0.00  0.00    +0.000 C 
BRANCH  20  21
ATOM     21  C   UNL     1       5.974   5.680  15.345  0.00  0.00    +0.000 C 
BRANCH  21  22
ATOM     22  C   UNL     1       6.700   4.844  14.299  0.00  0.00    +0.000 C 
BRANCH  22  23
ATOM     23  C   UNL     1       5.806   3.689  13.856  0.00  0.00    +0.000 C 
BRANCH  23  25
ATOM     24  C   UNL     1       4.650   3.234  11.681  0.00  0.00    +0.000 C 
ATOM     25  C   UNL     1       5.993   3.373  12.378  0.00  0.00    +0.000 C 
ENDBRANCH  23  25
ENDBRANCH  22  23
ENDBRANCH  21  22
ENDBRANCH  20  21
ENDBRANCH  19  20
ENDBRANCH  18  19
ENDBRANCH   1  18
TORSDOF 9
ENDMDL
