MODEL 1
REMARK VINA RESULT:      -6.4      0.000      0.000
REMARK  Name = 
REMARK  7 active torsions:
REMARK  status: ('A' for Active; 'I' for Inactive)
REMARK    1  A    between atoms: C_2  and  C_3
REMARK    2  A    between atoms: C_3  and  C_4
REMARK    3  A    between atoms: C_4  and  C_5
REMARK    4  A    between atoms: N_10  and  C_11
REMARK    5  A    between atoms: C_11  and  C_12
REMARK    6  A    between atoms: C_15  and  C_16
REMARK    7  A    between atoms: C_16  and  O_17
REMARK                            x       y       z     vdW  Elec       q    Type
REMARK                         _______ _______ _______ _____ _____    ______ ____
ROOT
ATOM      1  O   UNL     1       1.247   6.535  20.721  0.00  0.00    +0.000 OA
ATOM      2  C   UNL     1       2.103   5.662  20.618  0.00  0.00    +0.000 C 
ATOM      3  N   UNL     1       3.149   5.733  19.723  0.00  0.00    +0.000 N 
ATOM      4  H   UNL     1       3.859   5.012  19.732  0.00  0.00    +0.000 HD
ENDROOT
BRANCH   2   5
ATOM      5  C   UNL     1       2.126   4.419  21.485  0.00  0.00    +0.000 C 
BRANCH   5   6
ATOM      6  C   UNL     1       1.240   3.331  20.882  0.00  0.00    +0.000 C 
BRANCH   6   7
ATOM      7  C   UNL     1       1.891   2.612  19.751  0.00  0.00    +0.000 A 
ATOM      8  C   UNL     1       3.231   2.168  19.660  0.00  0.00    +0.000 A 
ATOM      9  N   UNL     1       3.500   1.580  18.493  0.00  0.00    +0.000 NA
ATOM     10  N   UNL     1       2.339   1.660  17.823  0.00  0.00    +0.000 N 
ATOM     11  C   UNL     1       1.341   2.253  18.540  0.00  0.00    +0.000 A 
ATOM     12  H   UNL     1       2.302   1.293  16.877  0.00  0.00    +0.000 HD
ENDBRANCH   6   7
ENDBRANCH   5   6
ENDBRANCH   2   5
BRANCH   3  13
ATOM     13  C   UNL     1       3.298   6.834  18.793  0.00  0.00    +0.000 C 
BRANCH  13  14
ATOM     14  C   UNL     1       4.064   6.447  17.517  0.00  0.00    +0.000 C 
ATOM     15  C   UNL     1       5.563   6.762  17.645  0.00  0.00    +0.000 C 
ATOM     16  C   UNL     1       6.360   6.281  16.435  0.00  0.00    +0.000 C 
ATOM     17  C   UNL     1       6.138   4.786  16.163  0.00  0.00    +0.000 C 
ATOM     18  C   UNL     1       4.645   4.485  16.003  0.00  0.00    +0.000 C 
ATOM     19  C   UNL     1       3.849   4.954  17.220  0.00  0.00    +0.000 C 
BRANCH  17  20
ATOM     20  C   UNL     1       6.916   4.325  14.928  0.00  0.00    +0.000 C 
BRANCH  20  21
ATOM     21  O   UNL     1       7.603   5.420  14.331  0.00  0.00    +0.000 OA
ATOM     22  H   UNL     1       8.556   5.236  14.391  0.00  0.00    +0.000 HD
ENDBRANCH  20  21
ENDBRANCH  17  20
ENDBRANCH  13  14
ENDBRANCH   3  13
TORSDOF 7
ENDMDL
MODEL 2
REMARK VINA RESULT:      -6.3      0.955      1.389
REMARK  Name = 
REMARK  7 active torsions:
REMARK  status: ('A' for Active; 'I' for Inactive)
REMARK    1  A    between atoms: C_2  and  C_3
REMARK    2  A    between atoms: C_3  and  C_4
REMARK    3  A    between atoms: C_4  and  C_5
REMARK    4  A    between atoms: N_10  and  C_11
REMARK    5  A    between atoms: C_11  and  C_12
REMARK    6  A    between atoms: C_15  and  C_16
REMARK    7  A    between atoms: C_16  and  O_17
REMARK                            x       y       z     vdW  Elec       q    Type
REMARK                         _______ _______ _______ _____ _____    ______ ____
ROOT
ATOM      1  O   UNL     1       1.288   5.751  20.835  0.00  0.00    +0.000 OA
ATOM      2  C   UNL     1       2.206   4.938  20.874  0.00  0.00    +0.000 C 
ATOM      3  N   UNL     1       3.424   5.148  20.267  0.00  0.00    +0.000 N 
ATOM      4  H   UNL     1       4.164   4.467  20.391  0.00  0.00    +0.000 HD
ENDROOT
BRANCH   2   5
ATOM      5  C   UNL     1       2.114   3.622  21.622  0.00  0.00    +0.000 C 
BRANCH   5   6
ATOM      6  C   UNL     1       1.405   2.572  20.769  0.00  0.00    +0.000 C 
BRANCH   6   7
ATOM      7  C   UNL     1       1.959   2.473  19.390  0.00  0.00    +0.000 A 
ATOM      8  C   UNL     1       1.441   3.042  18.203  0.00  0.00    +0.000 A 
ATOM      9  N   UNL     1       2.169   2.735  17.126  0.00  0.00    +0.000 NA
ATOM     10  N   UNL     1       3.144   1.954  17.615  0.00  0.00    +0.000 N 
ATOM     11  C   UNL     1       3.074   1.782  18.967  0.00  0.00    +0.000 A 
ATOM     12  H   UNL     1       3.824   1.569  16.966  0.00  0.00    +0.000 HD
ENDBRANCH   6   7
ENDBRANCH   5   6
ENDBRANCH   2   5
BRANCH   3  13
ATOM     13  C   UNL     1       3.708   6.337  19.489  0.00  0.00    +0.000 C 
BRANCH  13  14
ATOM     14  C   UNL     1       4.784   6.113  18.413  0.00  0.00    +0.000 C 
ATOM     15  C   UNL     1       5.310   4.669  18.438  0.00  0.00    +0.000 C 
ATOM     16  C   UNL     1       6.295   4.395  17.304  0.00  0.00    +0.000 C 
ATOM     17  C   UNL     1       5.695   4.732  15.932  0.00  0.00    +0.000 C 
ATOM     18  C   UNL     1       5.202   6.182  15.904  0.00  0.00    +0.000 C 
ATOM     19  C   UNL     1       4.206   6.454  17.029  0.00  0.00    +0.000 C 
BRANCH  17  20
ATOM     20  C   UNL     1       6.705   4.483  14.808  0.00  0.00    +0.000 C 
BRANCH  20  21
ATOM     21  O   UNL     1       7.802   5.382  14.914  0.00  0.00    +0.000 OA
ATOM     22  H   UNL     1       7.861   5.666  15.842  0.00  0.00    +0.000 HD
ENDBRANCH  20  21
ENDBRANCH  17  20
ENDBRANCH  13  14
ENDBRANCH   3  13
TORSDOF 7
ENDMDL
MODEL 3
REMARK VINA RESULT:      -6.3      0.803      1.196
REMARK  Name = 
REMARK  7 active torsions:
REMARK  status: ('A' for Active; 'I' for Inactive)
REMARK    1  A    between atoms: C_2  and  C_3
REMARK    2  A    between atoms: C_3  and  C_4
REMARK    3  A    between atoms: C_4  and  C_5
REMARK    4  A    between atoms: N_10  and  C_11
REMARK    5  A    between atoms: C_11  and  C_12
REMARK    6  A    between atoms: C_15  and  C_16
REMARK    7  A    between atoms: C_16  and  O_17
REMARK                            x       y       z     vdW  Elec       q    Type
REMARK                         _______ _______ _______ _____ _____    ______ ____
ROOT
ATOM      1  O   UNL     1       0.776   5.335  20.332  0.00  0.00    +0.000 OA
ATOM      2  C   UNL     1       1.955   5.192  20.640  0.00  0.00    +0.000 C 
ATOM      3  N   UNL     1       2.984   5.850  20.002  0.00  0.00    +0.000 N 
ATOM      4  H   UNL     1       3.930   5.741  20.346  0.00  0.00    +0.000 HD
ENDROOT
BRANCH   2   5
ATOM      5  C   UNL     1       2.412   4.300  21.777  0.00  0.00    +0.000 C 
BRANCH   5   6
ATOM      6  C   UNL     1       2.078   2.840  21.476  0.00  0.00    +0.000 C 
BRANCH   6   7
ATOM      7  C   UNL     1       2.868   2.286  20.341  0.00  0.00    +0.000 A 
ATOM      8  C   UNL     1       2.385   1.763  19.119  0.00  0.00    +0.000 A 
ATOM      9  N   UNL     1       3.363   1.321  18.326  0.00  0.00    +0.000 NA
ATOM     10  N   UNL     1       4.476   1.539  19.043  0.00  0.00    +0.000 N 
ATOM     11  C   UNL     1       4.235   2.132  20.248  0.00  0.00    +0.000 A 
ATOM     12  H   UNL     1       5.367   1.255  18.649  0.00  0.00    +0.000 HD
ENDBRANCH   6   7
ENDBRANCH   5   6
ENDBRANCH   2   5
BRANCH   3  13
ATOM     13  C   UNL     1       2.759   6.737  18.879  0.00  0.00    +0.000 C 
BRANCH  13  14
ATOM     14  C   UNL     1       3.454   6.268  17.590  0.00  0.00    +0.000 C 
ATOM     15  C   UNL     1       4.749   7.056  17.331  0.00  0.00    +0.000 C 
ATOM     16  C   UNL     1       5.513   6.529  16.119  0.00  0.00    +0.000 C 
ATOM     17  C   UNL     1       5.804   5.026  16.238  0.00  0.00    +0.000 C 
ATOM     18  C   UNL     1       4.506   4.244  16.462  0.00  0.00    +0.000 C 
ATOM     19  C   UNL     1       3.748   4.761  17.682  0.00  0.00    +0.000 C 
BRANCH  17  20
ATOM     20  C   UNL     1       6.541   4.505  15.001  0.00  0.00    +0.000 C 
BRANCH  20  21
ATOM     21  O   UNL     1       7.587   5.395  14.629  0.00  0.00    +0.000 OA
ATOM     22  H   UNL     1       7.639   5.397  13.658  0.00  0.00    +0.000 HD
ENDBRANCH  20  21
ENDBRANCH  17  20
ENDBRANCH  13  14
ENDBRANCH   3  13
TORSDOF 7
ENDMDL
MODEL 4
REMARK VINA RESULT:      -6.3      5.269      8.491
REMARK  Name = 
REMARK  7 active torsions:
REMARK  status: ('A' for Active; 'I' for Inactive)
REMARK    1  A    between atoms: C_2  and  C_3
REMARK    2  A    between atoms: C_3  and  C_4
REMARK    3  A    between atoms: C_4  and  C_5
REMARK    4  A    between atoms: N_10  and  C_11
REMARK    5  A    between atoms: C_11  and  C_12
REMARK    6  A    between atoms: C_15  and  C_16
REMARK    7  A    between atoms: C_16  and  O_17
REMARK                            x       y       z     vdW  Elec       q    Type
REMARK                         _______ _______ _______ _____ _____    ______ ____
ROOT
ATOM      1  O   UNL     1       8.608   7.646  18.856  0.00  0.00    +0.000 OA
ATOM      2  C   UNL     1       8.075   8.301  17.966  0.00  0.00    +0.000 C 
ATOM      3  N   UNL     1       7.286   7.739  16.986  0.00  0.00    +0.000 N 
ATOM      4  H   UNL     1       6.821   8.341  16.318  0.00  0.00    +0.000 HD
ENDROOT
BRANCH   2   5
ATOM      5  C   UNL     1       8.198   9.808  17.861  0.00  0.00    +0.000 C 
BRANCH   5   6
ATOM      6  C   UNL     1       9.221  10.331  18.868  0.00  0.00    +0.000 C 
BRANCH   6   7
ATOM      7  C   UNL     1      10.186  11.295  18.268  0.00  0.00    +0.000 A 
ATOM      8  C   UNL     1       9.898  12.483  17.557  0.00  0.00    +0.000 A 
ATOM      9  N   UNL     1      10.999  13.104  17.127  0.00  0.00    +0.000 NA
ATOM     10  N   UNL     1      11.996  12.308  17.544  0.00  0.00    +0.000 N 
ATOM     11  C   UNL     1      11.562  11.222  18.247  0.00  0.00    +0.000 A 
ATOM     12  H   UNL     1      12.949  12.566  17.309  0.00  0.00    +0.000 HD
ENDBRANCH   6   7
ENDBRANCH   5   6
ENDBRANCH   2   5
BRANCH   3  13
ATOM     13  C   UNL     1       7.056   6.311  16.901  0.00  0.00    +0.000 C 
BRANCH  13  14
ATOM     14  C   UNL     1       5.797   5.855  17.658  0.00  0.00    +0.000 C 
ATOM     15  C   UNL     1       4.586   6.736  17.312  0.00  0.00    +0.000 C 
ATOM     16  C   UNL     1       3.301   6.231  17.964  0.00  0.00    +0.000 C 
ATOM     17  C   UNL     1       3.023   4.762  17.615  0.00  0.00    +0.000 C 
ATOM     18  C   UNL     1       4.222   3.885  17.992  0.00  0.00    +0.000 C 
ATOM     19  C   UNL     1       5.505   4.382  17.330  0.00  0.00    +0.000 C 
BRANCH  17  20
ATOM     20  C   UNL     1       1.750   4.260  18.302  0.00  0.00    +0.000 C 
BRANCH  20  21
ATOM     21  O   UNL     1       2.062   3.648  19.548  0.00  0.00    +0.000 OA
ATOM     22  H   UNL     1       1.224   3.364  19.953  0.00  0.00    +0.000 HD
ENDBRANCH  20  21
ENDBRANCH  17  20
ENDBRANCH  13  14
ENDBRANCH   3  13
TORSDOF 7
ENDMDL
MODEL 5
REMARK VINA RESULT:      -6.3      4.930      8.146
REMARK  Name = 
REMARK  7 active torsions:
REMARK  status: ('A' for Active; 'I' for Inactive)
REMARK    1  A    between atoms: C_2  and  C_3
REMARK    2  A    between atoms: C_3  and  C_4
REMARK    3  A    between atoms: C_4  and  C_5
REMARK    4  A    between atoms: N_10  and  C_11
REMARK    5  A    between atoms: C_11  and  C_12
REMARK    6  A    between atoms: C_15  and  C_16
REMARK    7  A    between atoms: C_16  and  O_17
REMARK                            x       y       z     vdW  Elec       q    Type
REMARK                         _______ _______ _______ _____ _____    ______ ____
ROOT
ATOM      1  O   UNL     1       8.288   6.995  18.815  0.00  0.00    +0.000 OA
ATOM      2  C   UNL     1       7.856   7.679  17.892  0.00  0.00    +0.000 C 
ATOM      3  N   UNL     1       7.141   7.157  16.837  0.00  0.00    +0.000 N 
ATOM      4  H   UNL     1       6.755   7.784  16.141  0.00  0.00    +0.000 HD
ENDROOT
BRANCH   2   5
ATOM      5  C   UNL     1       8.035   9.183  17.825  0.00  0.00    +0.000 C 
BRANCH   5   6
ATOM      6  C   UNL     1       9.030   9.651  18.885  0.00  0.00    +0.000 C 
BRANCH   6   7
ATOM      7  C   UNL     1       9.277  11.119  18.842  0.00  0.00    +0.000 A 
ATOM      8  C   UNL     1       9.883  11.927  19.832  0.00  0.00    +0.000 A 
ATOM      9  N   UNL     1       9.926  13.217  19.488  0.00  0.00    +0.000 NA
ATOM     10  N   UNL     1       9.332  13.243  18.284  0.00  0.00    +0.000 N 
ATOM     11  C   UNL     1       8.943  12.011  17.846  0.00  0.00    +0.000 A 
ATOM     12  H   UNL     1       9.223  14.140  17.821  0.00  0.00    +0.000 HD
ENDBRANCH   6   7
ENDBRANCH   5   6
ENDBRANCH   2   5
BRANCH   3  13
ATOM     13  C   UNL     1       6.875   5.739  16.708  0.00  0.00    +0.000 C 
BRANCH  13  14
ATOM     14  C   UNL     1       5.518   5.321  17.299  0.00  0.00    +0.000 C 
ATOM     15  C   UNL     1       4.790   4.324  16.383  0.00  0.00    +0.000 C 
ATOM     16  C   UNL     1       3.494   3.809  17.004  0.00  0.00    +0.000 C 
ATOM     17  C   UNL     1       3.731   3.200  18.393  0.00  0.00    +0.000 C 
ATOM     18  C   UNL     1       4.426   4.210  19.311  0.00  0.00    +0.000 C 
ATOM     19  C   UNL     1       5.730   4.715  18.696  0.00  0.00    +0.000 C 
BRANCH  17  20
ATOM     20  C   UNL     1       2.418   2.718  19.018  0.00  0.00    +0.000 C 
BRANCH  20  21
ATOM     21  O   UNL     1       2.152   1.371  18.648  0.00  0.00    +0.000 OA
ATOM     22  H   UNL     1       1.463   1.386  17.961  0.00  0.00    +0.000 HD
ENDBRANCH  20  21
ENDBRANCH  17  20
ENDBRANCH  13  14
ENDBRANCH   3  13
TORSDOF 7
ENDMDL
MODEL 6
REMARK VINA RESULT:      -6.3      1.014      1.701
REMARK  Name = 
REMARK  7 active torsions:
REMARK  status: ('A' for Active; 'I' for Inactive)
REMARK    1  A    between atoms: C_2  and  C_3
REMARK    2  A    between atoms: C_3  and  C_4
REMARK    3  A    between atoms: C_4  and  C_5
REMARK    4  A    between atoms: N_10  and  C_11
REMARK    5  A    between atoms: C_11  and  C_12
REMARK    6  A    between atoms: C_15  and  C_16
REMARK    7  A    between atoms: C_16  and  O_17
REMARK                            x       y       z     vdW  Elec       q    Type
REMARK                         _______ _______ _______ _____ _____    ______ ____
ROOT
ATOM      1  O   UNL     1       1.165   4.818  19.055  0.00  0.00    +0.000 OA
ATOM      2  C   UNL     1       1.982   5.082  19.932  0.00  0.00    +0.000 C 
ATOM      3  N   UNL     1       3.021   5.968  19.752  0.00  0.00    +0.000 N 
ATOM      4  H   UNL     1       3.622   6.193  20.535  0.00  0.00    +0.000 HD
ENDROOT
BRANCH   2   5
ATOM      5  C   UNL     1       1.923   4.484  21.324  0.00  0.00    +0.000 C 
BRANCH   5   6
ATOM      6  C   UNL     1       1.839   2.961  21.248  0.00  0.00    +0.000 C 
BRANCH   6   7
ATOM      7  C   UNL     1       2.811   2.373  20.285  0.00  0.00    +0.000 A 
ATOM      8  C   UNL     1       2.534   1.702  19.071  0.00  0.00    +0.000 A 
ATOM      9  N   UNL     1       3.638   1.272  18.457  0.00  0.00    +0.000 NA
ATOM     10  N   UNL     1       4.627   1.647  19.284  0.00  0.00    +0.000 N 
ATOM     11  C   UNL     1       4.185   2.326  20.382  0.00  0.00    +0.000 A 
ATOM     12  H   UNL     1       5.580   1.403  19.036  0.00  0.00    +0.000 HD
ENDBRANCH   6   7
ENDBRANCH   5   6
ENDBRANCH   2   5
BRANCH   3  13
ATOM     13  C   UNL     1       3.261   6.634  18.488  0.00  0.00    +0.000 C 
BRANCH  13  14
ATOM     14  C   UNL     1       4.427   6.023  17.694  0.00  0.00    +0.000 C 
ATOM     15  C   UNL     1       4.093   4.602  17.210  0.00  0.00    +0.000 C 
ATOM     16  C   UNL     1       5.191   4.021  16.323  0.00  0.00    +0.000 C 
ATOM     17  C   UNL     1       5.512   4.939  15.135  0.00  0.00    +0.000 C 
ATOM     18  C   UNL     1       5.876   6.344  15.627  0.00  0.00    +0.000 C 
ATOM     19  C   UNL     1       4.772   6.932  16.502  0.00  0.00    +0.000 C 
BRANCH  17  20
ATOM     20  C   UNL     1       6.637   4.360  14.274  0.00  0.00    +0.000 C 
BRANCH  20  21
ATOM     21  O   UNL     1       7.710   5.288  14.162  0.00  0.00    +0.000 OA
ATOM     22  H   UNL     1       7.330   6.182  14.199  0.00  0.00    +0.000 HD
ENDBRANCH  20  21
ENDBRANCH  17  20
ENDBRANCH  13  14
ENDBRANCH   3  13
TORSDOF 7
ENDMDL
MODEL 7
REMARK VINA RESULT:      -6.2      4.061      7.923
REMARK  Name = 
REMARK  7 active torsions:
REMARK  status: ('A' for Active; 'I' for Inactive)
REMARK    1  A    between atoms: C_2  and  C_3
REMARK    2  A    between atoms: C_3  and  C_4
REMARK    3  A    between atoms: C_4  and  C_5
REMARK    4  A    between atoms: N_10  and  C_11
REMARK    5  A    between atoms: C_11  and  C_12
REMARK    6  A    between atoms: C_15  and  C_16
REMARK    7  A    between atoms: C_16  and  O_17
REMARK                            x       y       z     vdW  Elec       q    Type
REMARK                         _______ _______ _______ _____ _____    ______ ____
ROOT
ATOM      1  O   UNL     1       7.711   6.476  16.169  0.00  0.00    +0.000 OA
ATOM      2  C   UNL     1       7.286   6.831  17.264  0.00  0.00    +0.000 C 
ATOM      3  N   UNL     1       6.110   6.358  17.805  0.00  0.00    +0.000 N 
ATOM      4  H   UNL     1       5.847   6.640  18.741  0.00  0.00    +0.000 HD
ENDROOT
BRANCH   2   5
ATOM      5  C   UNL     1       8.021   7.808  18.160  0.00  0.00    +0.000 C 
BRANCH   5   6
ATOM      6  C   UNL     1       8.154   9.166  17.474  0.00  0.00    +0.000 C 
BRANCH   6   7
ATOM      7  C   UNL     1       8.776  10.199  18.347  0.00  0.00    +0.000 A 
ATOM      8  C   UNL     1       8.985  11.569  18.059  0.00  0.00    +0.000 A 
ATOM      9  N   UNL     1       9.597  12.216  19.054  0.00  0.00    +0.000 NA
ATOM     10  N   UNL     1       9.801  11.261  19.975  0.00  0.00    +0.000 N 
ATOM     11  C   UNL     1       9.311  10.041  19.608  0.00  0.00    +0.000 A 
ATOM     12  H   UNL     1      10.284  11.513  20.831  0.00  0.00    +0.000 HD
ENDBRANCH   6   7
ENDBRANCH   5   6
ENDBRANCH   2   5
BRANCH   3  13
ATOM     13  C   UNL     1       5.251   5.429  17.100  0.00  0.00    +0.000 C 
BRANCH  13  14
ATOM     14  C   UNL     1       3.925   5.158  17.830  0.00  0.00    +0.000 C 
ATOM     15  C   UNL     1       3.342   3.788  17.444  0.00  0.00    +0.000 C 
ATOM     16  C   UNL     1       2.086   3.450  18.243  0.00  0.00    +0.000 C 
ATOM     17  C   UNL     1       2.334   3.530  19.756  0.00  0.00    +0.000 C 
ATOM     18  C   UNL     1       2.883   4.908  20.138  0.00  0.00    +0.000 C 
ATOM     19  C   UNL     1       4.148   5.242  19.349  0.00  0.00    +0.000 C 
BRANCH  17  20
ATOM     20  C   UNL     1       1.057   3.221  20.544  0.00  0.00    +0.000 C 
BRANCH  20  21
ATOM     21  O   UNL     1       0.018   2.799  19.668  0.00  0.00    +0.000 OA
ATOM     22  H   UNL     1      -0.829   2.969  20.115  0.00  0.00    +0.000 HD
ENDBRANCH  20  21
ENDBRANCH  17  20
ENDBRANCH  13  14
ENDBRANCH   3  13
TORSDOF 7
ENDMDL
MODEL 8
REMARK VINA RESULT:      -6.2      4.759      8.075
REMARK  Name = 
REMARK  7 active torsions:
REMARK  status: ('A' for Active; 'I' for Inactive)
REMARK    1  A    between atoms: C_2  and  C_3
REMARK    2  A    between atoms: C_3  and  C_4
REMARK    3  A    between atoms: C_4  and  C_5
REMARK    4  A    between atoms: N_10  and  C_11
REMARK    5  A    between atoms: C_11  and  C_12
REMARK    6  A    between atoms: C_15  and  C_16
REMARK    7  A    between atoms: C_16  and  O_17
REMARK                            x       y       z     vdW  Elec       q    Type
REMARK                         _______ _______ _______ _____ _____    ______ ____
ROOT
ATOM      1  O   UNL     1       8.221   6.890  18.706  0.00  0.00    +0.000 OA
ATOM      2  C   UNL     1       7.771   7.644  17.848  0.00  0.00    +0.000 C 
ATOM      3  N   UNL     1       6.993   7.210  16.797  0.00  0.00    +0.000 N 
ATOM      4  H   UNL     1       6.597   7.890  16.160  0.00  0.00    +0.000 HD
ENDROOT
BRANCH   2   5
ATOM      5  C   UNL     1       7.995   9.143  17.865  0.00  0.00    +0.000 C 
BRANCH   5   6
ATOM      6  C   UNL     1       9.046   9.514  18.909  0.00  0.00    +0.000 C 
BRANCH   6   7
ATOM      7  C   UNL     1       9.296  10.980  18.986  0.00  0.00    +0.000 A 
ATOM      8  C   UNL     1       9.492  11.886  17.917  0.00  0.00    +0.000 A 
ATOM      9  N   UNL     1       9.720  13.133  18.335  0.00  0.00    +0.000 NA
ATOM     10  N   UNL     1       9.690  13.029  19.673  0.00  0.00    +0.000 N 
ATOM     11  C   UNL     1       9.422  11.765  20.112  0.00  0.00    +0.000 A 
ATOM     12  H   UNL     1       9.866  13.863  20.225  0.00  0.00    +0.000 HD
ENDBRANCH   6   7
ENDBRANCH   5   6
ENDBRANCH   2   5
BRANCH   3  13
ATOM     13  C   UNL     1       6.676   5.811  16.593  0.00  0.00    +0.000 C 
BRANCH  13  14
ATOM     14  C   UNL     1       5.480   5.333  17.434  0.00  0.00    +0.000 C 
ATOM     15  C   UNL     1       4.327   6.349  17.397  0.00  0.00    +0.000 C 
ATOM     16  C   UNL     1       3.088   5.843  18.131  0.00  0.00    +0.000 C 
ATOM     17  C   UNL     1       2.628   4.478  17.599  0.00  0.00    +0.000 C 
ATOM     18  C   UNL     1       3.772   3.461  17.669  0.00  0.00    +0.000 C 
ATOM     19  C   UNL     1       5.008   3.961  16.924  0.00  0.00    +0.000 C 
BRANCH  17  20
ATOM     20  C   UNL     1       1.405   3.967  18.366  0.00  0.00    +0.000 C 
BRANCH  20  21
ATOM     21  O   UNL     1       1.789   2.990  19.327  0.00  0.00    +0.000 OA
ATOM     22  H   UNL     1       1.571   2.117  18.960  0.00  0.00    +0.000 HD
ENDBRANCH  20  21
ENDBRANCH  17  20
ENDBRANCH  13  14
ENDBRANCH   3  13
TORSDOF 7
ENDMDL
MODEL 9
REMARK VINA RESULT:      -6.2      4.729      8.250
REMARK  Name = 
REMARK  7 active torsions:
REMARK  status: ('A' for Active; 'I' for Inactive)
REMARK    1  A    between atoms: C_2  and  C_3
REMARK    2  A    between atoms: C_3  and  C_4
REMARK    3  A    between atoms: C_4  and  C_5
REMARK    4  A    between atoms: N_10  and  C_11
REMARK    5  A    between atoms: C_11  and  C_12
REMARK    6  A    between atoms: C_15  and  C_16
REMARK    7  A    between atoms: C_16  and  O_17
REMARK                            x       y       z     vdW  Elec       q    Type
REMARK                         _______ _______ _______ _____ _____    ______ ____
ROOT
ATOM      1  O   UNL     1       8.148   6.890  18.615  0.00  0.00    +0.000 OA
ATOM      2  C   UNL     1       7.691   7.648  17.765  0.00  0.00    +0.000 C 
ATOM      3  N   UNL     1       6.817   7.239  16.782  0.00  0.00    +0.000 N 
ATOM      4  H   UNL     1       6.424   7.926  16.151  0.00  0.00    +0.000 HD
ENDROOT
BRANCH   2   5
ATOM      5  C   UNL     1       8.013   9.129  17.719  0.00  0.00    +0.000 C 
BRANCH   5   6
ATOM      6  C   UNL     1       8.916   9.516  18.888  0.00  0.00    +0.000 C 
BRANCH   6   7
ATOM      7  C   UNL     1       9.448  10.903  18.777  0.00  0.00    +0.000 A 
ATOM      8  C   UNL     1      10.469  11.506  19.548  0.00  0.00    +0.000 A 
ATOM      9  N   UNL     1      10.686  12.779  19.209  0.00  0.00    +0.000 NA
ATOM     10  N   UNL     1       9.793  13.003  18.232  0.00  0.00    +0.000 N 
ATOM     11  C   UNL     1       9.042  11.906  17.924  0.00  0.00    +0.000 A 
ATOM     12  H   UNL     1       9.750  13.930  17.822  0.00  0.00    +0.000 HD
ENDBRANCH   6   7
ENDBRANCH   5   6
ENDBRANCH   2   5
BRANCH   3  13
ATOM     13  C   UNL     1       6.397   5.859  16.644  0.00  0.00    +0.000 C 
BRANCH  13  14
ATOM     14  C   UNL     1       5.062   5.561  17.347  0.00  0.00    +0.000 C 
ATOM     15  C   UNL     1       5.285   4.926  18.729  0.00  0.00    +0.000 C 
ATOM     16  C   UNL     1       3.977   4.728  19.492  0.00  0.00    +0.000 C 
ATOM     17  C   UNL     1       3.184   6.037  19.615  0.00  0.00    +0.000 C 
ATOM     18  C   UNL     1       2.937   6.647  18.232  0.00  0.00    +0.000 C 
ATOM     19  C   UNL     1       4.246   6.859  17.474  0.00  0.00    +0.000 C 
BRANCH  17  20
ATOM     20  C   UNL     1       1.860   5.816  20.352  0.00  0.00    +0.000 C 
BRANCH  20  21
ATOM     21  O   UNL     1       1.462   7.000  21.033  0.00  0.00    +0.000 OA
ATOM     22  H   UNL     1       0.491   7.039  21.009  0.00  0.00    +0.000 HD
ENDBRANCH  20  21
ENDBRANCH  17  20
ENDBRANCH  13  14
ENDBRANCH   3  13
TORSDOF 7
ENDMDL
