MODEL 1
REMARK VINA RESULT:      -7.5      0.000      0.000
REMARK  Name = 
REMARK  9 active torsions:
REMARK  status: ('A' for Active; 'I' for Inactive)
REMARK    1  A    between atoms: C_2  and  C_3
REMARK    2  A    between atoms: N_5  and  C_6
REMARK    3  A    between atoms: N_5  and  C_10
REMARK    4  A    between atoms: C_10  and  C_11
REMARK    5  A    between atoms: N_13  and  C_14
REMARK    6  A    between atoms: C_14  and  C_15
REMARK    7  A    between atoms: C_24  and  C_25
REMARK    8  A    between atoms: C_25  and  O_27
REMARK    9  A    between atoms: O_27  and  C_28
REMARK                            x       y       z     vdW  Elec       q    Type
REMARK                         _______ _______ _______ _____ _____    ______ ____
ROOT
ATOM      1  C   UNL     1       4.497   4.796  17.427  0.00  0.00    +0.000 C 
ATOM      2  C   UNL     1       3.284   4.073  16.767  0.00  0.00    +0.000 C 
ATOM      3  C   UNL     1       3.380   2.554  16.861  0.00  0.00    +0.000 C 
ATOM      4  C   UNL     1       3.370   2.100  18.314  0.00  0.00    +0.000 C 
ATOM      5  C   UNL     1       4.444   2.814  19.133  0.00  0.00    +0.000 C 
ATOM      6  C   UNL     1       4.408   4.341  18.923  0.00  0.00    +0.000 C 
ENDROOT
BRANCH   1   7
ATOM      7  C   UNL     1       4.265   6.358  17.366  0.00  0.00    +0.000 C 
ATOM      8  O   UNL     1       5.158   7.136  17.028  0.00  0.00    +0.000 OA
ATOM      9  N   UNL     1       3.051   6.832  17.818  0.00  0.00    +0.000 N 
ATOM     10  H   UNL     1       2.286   6.204  18.005  0.00  0.00    +0.000 HD
BRANCH   9  11
ATOM     11  C   UNL     1       2.731   8.246  17.859  0.00  0.00    +0.000 C 
BRANCH  11  12
ATOM     12  C   UNL     1       1.835   8.570  19.028  0.00  0.00    +0.000 A 
ATOM     13  C   UNL     1       1.856   7.785  20.191  0.00  0.00    +0.000 A 
ATOM     14  C   UNL     1       1.012   8.083  21.265  0.00  0.00    +0.000 A 
ATOM     15  C   UNL     1       0.137   9.165  21.186  0.00  0.00    +0.000 A 
ATOM     16  C   UNL     1       0.106   9.951  20.036  0.00  0.00    +0.000 A 
ATOM     17  C   UNL     1       0.946   9.653  18.961  0.00  0.00    +0.000 A 
ENDBRANCH  11  12
ENDBRANCH   9  11
ENDBRANCH   1   7
BRANCH   1  20
ATOM     18  C   UNL     1       7.077   4.613  17.429  0.00  0.00    +0.000 C 
ATOM     19  O   UNL     1       8.146   4.211  16.976  0.00  0.00    +0.000 OA
ATOM     20  N   UNL     1       5.842   4.515  16.740  0.00  0.00    +0.000 N 
BRANCH  20  21
ATOM     21  C   UNL     1       5.834   3.812  15.390  0.00  0.00    +0.000 C 
ATOM     22  C   UNL     1       4.933   4.307  14.220  0.00  0.00    +0.000 C 
ATOM     23  C   UNL     1       6.114   3.999  13.274  0.00  0.00    +0.000 C 
ATOM     24  C   UNL     1       7.053   4.105  14.494  0.00  0.00    +0.000 C 
ENDBRANCH  20  21
BRANCH  18  26
ATOM     25  C   UNL     1       7.288   5.660  19.857  0.00  0.00    +0.000 C 
ATOM     26  C   UNL     1       7.176   5.180  18.755  0.00  0.00    +0.000 C 
ENDBRANCH  18  26
ENDBRANCH   1  20
BRANCH   5  27
ATOM     27  C   UNL     1       4.331   2.480  20.613  0.00  0.00    +0.000 C 
ATOM     28  O   UNL     1       5.056   1.704  21.217  0.00  0.00    +0.000 OA
BRANCH  27  29
ATOM     29  O   UNL     1       3.336   3.220  21.183  0.00  0.00    +0.000 OA
ATOM     30  C   UNL     1       2.236   2.446  21.665  0.00  0.00    +0.000 C 
ENDBRANCH  27  29
ENDBRANCH   5  27
TORSDOF 8
ENDMDL
MODEL 2
REMARK VINA RESULT:      -7.3      4.503      9.012
REMARK  Name = 
REMARK  9 active torsions:
REMARK  status: ('A' for Active; 'I' for Inactive)
REMARK    1  A    between atoms: C_2  and  C_3
REMARK    2  A    between atoms: N_5  and  C_6
REMARK    3  A    between atoms: N_5  and  C_10
REMARK    4  A    between atoms: C_10  and  C_11
REMARK    5  A    between atoms: N_13  and  C_14
REMARK    6  A    between atoms: C_14  and  C_15
REMARK    7  A    between atoms: C_24  and  C_25
REMARK    8  A    between atoms: C_25  and  O_27
REMARK    9  A    between atoms: O_27  and  C_28
REMARK                            x       y       z     vdW  Elec       q    Type
REMARK                         _______ _______ _______ _____ _____    ______ ____
ROOT
ATOM      1  C   UNL     1       0.006  10.956  20.260  0.00  0.00    +0.000 C 
ATOM      2  C   UNL     1      -1.065  11.683  21.130  0.00  0.00    +0.000 C 
ATOM      3  C   UNL     1      -1.869  12.709  20.339  0.00  0.00    +0.000 C 
ATOM      4  C   UNL     1      -2.654  12.037  19.221  0.00  0.00    +0.000 C 
ATOM      5  C   UNL     1      -1.750  11.182  18.335  0.00  0.00    +0.000 C 
ATOM      6  C   UNL     1      -0.854  10.240  19.165  0.00  0.00    +0.000 C 
ENDROOT
BRANCH   1   7
ATOM      7  C   UNL     1       0.720   9.850  21.135  0.00  0.00    +0.000 C 
ATOM      8  O   UNL     1       1.489  10.142  22.053  0.00  0.00    +0.000 OA
ATOM      9  N   UNL     1       0.539   8.535  20.759  0.00  0.00    +0.000 N 
ATOM     10  H   UNL     1      -0.158   8.282  20.076  0.00  0.00    +0.000 HD
BRANCH   9  11
ATOM     11  C   UNL     1       1.176   7.430  21.449  0.00  0.00    +0.000 C 
BRANCH  11  12
ATOM     12  C   UNL     1       1.673   6.391  20.475  0.00  0.00    +0.000 A 
ATOM     13  C   UNL     1       2.639   6.713  19.510  0.00  0.00    +0.000 A 
ATOM     14  C   UNL     1       3.084   5.748  18.601  0.00  0.00    +0.000 A 
ATOM     15  C   UNL     1       2.566   4.455  18.647  0.00  0.00    +0.000 A 
ATOM     16  C   UNL     1       1.605   4.124  19.600  0.00  0.00    +0.000 A 
ATOM     17  C   UNL     1       1.158   5.088  20.506  0.00  0.00    +0.000 A 
ENDBRANCH  11  12
ENDBRANCH   9  11
ENDBRANCH   1   7
BRANCH   1  20
ATOM     18  C   UNL     1       1.904  11.535  18.601  0.00  0.00    +0.000 C 
ATOM     19  O   UNL     1       2.652  12.321  18.026  0.00  0.00    +0.000 OA
ATOM     20  N   UNL     1       1.107  11.882  19.722  0.00  0.00    +0.000 N 
BRANCH  20  21
ATOM     21  C   UNL     1       1.133  13.329  20.193  0.00  0.00    +0.000 C 
ATOM     22  C   UNL     1       2.463  14.027  20.603  0.00  0.00    +0.000 C 
ATOM     23  C   UNL     1       1.935  15.293  19.894  0.00  0.00    +0.000 C 
ATOM     24  C   UNL     1       0.996  14.382  19.076  0.00  0.00    +0.000 C 
ENDBRANCH  20  21
BRANCH  18  26
ATOM     25  C   UNL     1       1.831   9.106  17.538  0.00  0.00    +0.000 C 
ATOM     26  C   UNL     1       1.881  10.212  18.021  0.00  0.00    +0.000 C 
ENDBRANCH  18  26
ENDBRANCH   1  20
BRANCH   5  27
ATOM     27  C   UNL     1      -2.556  10.387  17.318  0.00  0.00    +0.000 C 
ATOM     28  O   UNL     1      -3.262   9.424  17.576  0.00  0.00    +0.000 OA
BRANCH  27  29
ATOM     29  O   UNL     1      -2.420  10.943  16.079  0.00  0.00    +0.000 OA
ATOM     30  C   UNL     1      -3.053  10.203  15.034  0.00  0.00    +0.000 C 
ENDBRANCH  27  29
ENDBRANCH   5  27
TORSDOF 8
ENDMDL
MODEL 3
REMARK VINA RESULT:      -7.3      0.563      1.060
REMARK  Name = 
REMARK  9 active torsions:
REMARK  status: ('A' for Active; 'I' for Inactive)
REMARK    1  A    between atoms: C_2  and  C_3
REMARK    2  A    between atoms: N_5  and  C_6
REMARK    3  A    between atoms: N_5  and  C_10
REMARK    4  A    between atoms: C_10  and  C_11
REMARK    5  A    between atoms: N_13  and  C_14
REMARK    6  A    between atoms: C_14  and  C_15
REMARK    7  A    between atoms: C_24  and  C_25
REMARK    8  A    between atoms: C_25  and  O_27
REMARK    9  A    between atoms: O_27  and  C_28
REMARK                            x       y       z     vdW  Elec       q    Type
REMARK                         _______ _______ _______ _____ _____    ______ ____
ROOT
ATOM      1  C   UNL     1       4.182   5.138  17.617  0.00  0.00    +0.000 C 
ATOM      2  C   UNL     1       2.872   4.508  17.051  0.00  0.00    +0.000 C 
ATOM      3  C   UNL     1       2.930   2.986  16.986  0.00  0.00    +0.000 C 
ATOM      4  C   UNL     1       3.089   2.389  18.377  0.00  0.00    +0.000 C 
ATOM      5  C   UNL     1       4.280   2.997  19.116  0.00  0.00    +0.000 C 
ATOM      6  C   UNL     1       4.268   4.538  19.061  0.00  0.00    +0.000 C 
ENDROOT
BRANCH   1   7
ATOM      7  C   UNL     1       3.995   6.703  17.737  0.00  0.00    +0.000 C 
ATOM      8  O   UNL     1       4.956   7.472  17.776  0.00  0.00    +0.000 OA
ATOM      9  N   UNL     1       2.709   7.171  17.912  0.00  0.00    +0.000 N 
ATOM     10  H   UNL     1       1.914   6.564  17.787  0.00  0.00    +0.000 HD
BRANCH   9  11
ATOM     11  C   UNL     1       2.407   8.579  18.084  0.00  0.00    +0.000 C 
BRANCH  11  12
ATOM     12  C   UNL     1       1.511   8.805  19.275  0.00  0.00    +0.000 A 
ATOM     13  C   UNL     1       0.562   9.839  19.277  0.00  0.00    +0.000 A 
ATOM     14  C   UNL     1      -0.255  10.052  20.390  0.00  0.00    +0.000 A 
ATOM     15  C   UNL     1      -0.130   9.236  21.513  0.00  0.00    +0.000 A 
ATOM     16  C   UNL     1       0.809   8.207  21.524  0.00  0.00    +0.000 A 
ATOM     17  C   UNL     1       1.628   7.996  20.414  0.00  0.00    +0.000 A 
ENDBRANCH  11  12
ENDBRANCH   9  11
ENDBRANCH   1   7
BRANCH   1  20
ATOM     18  C   UNL     1       6.731   4.859  17.276  0.00  0.00    +0.000 C 
ATOM     19  O   UNL     1       7.715   4.481  16.647  0.00  0.00    +0.000 OA
ATOM     20  N   UNL     1       5.420   4.900  16.738  0.00  0.00    +0.000 N 
BRANCH  20  21
ATOM     21  C   UNL     1       5.216   4.383  15.322  0.00  0.00    +0.000 C 
ATOM     22  C   UNL     1       5.781   5.147  14.087  0.00  0.00    +0.000 C 
ATOM     23  C   UNL     1       6.143   3.770  13.491  0.00  0.00    +0.000 C 
ATOM     24  C   UNL     1       6.115   3.197  14.923  0.00  0.00    +0.000 C 
ENDBRANCH  20  21
BRANCH  18  26
ATOM     25  C   UNL     1       7.280   5.546  19.779  0.00  0.00    +0.000 C 
ATOM     26  C   UNL     1       7.015   5.241  18.641  0.00  0.00    +0.000 C 
ENDBRANCH  18  26
ENDBRANCH   1  20
BRANCH   5  27
ATOM     27  C   UNL     1       4.344   2.519  20.560  0.00  0.00    +0.000 C 
ATOM     28  O   UNL     1       5.134   1.694  20.994  0.00  0.00    +0.000 OA
BRANCH  27  29
ATOM     29  O   UNL     1       3.427   3.192  21.314  0.00  0.00    +0.000 OA
ATOM     30  C   UNL     1       2.278   2.419  21.663  0.00  0.00    +0.000 C 
ENDBRANCH  27  29
ENDBRANCH   5  27
TORSDOF 8
ENDMDL
MODEL 4
REMARK VINA RESULT:      -7.3      6.487      9.693
REMARK  Name = 
REMARK  9 active torsions:
REMARK  status: ('A' for Active; 'I' for Inactive)
REMARK    1  A    between atoms: C_2  and  C_3
REMARK    2  A    between atoms: N_5  and  C_6
REMARK    3  A    between atoms: N_5  and  C_10
REMARK    4  A    between atoms: C_10  and  C_11
REMARK    5  A    between atoms: N_13  and  C_14
REMARK    6  A    between atoms: C_14  and  C_15
REMARK    7  A    between atoms: C_24  and  C_25
REMARK    8  A    between atoms: C_25  and  O_27
REMARK    9  A    between atoms: O_27  and  C_28
REMARK                            x       y       z     vdW  Elec       q    Type
REMARK                         _______ _______ _______ _____ _____    ______ ____
ROOT
ATOM      1  C   UNL     1      -0.626  11.351  19.847  0.00  0.00    +0.000 C 
ATOM      2  C   UNL     1      -0.494   9.892  20.383  0.00  0.00    +0.000 C 
ATOM      3  C   UNL     1       0.244   9.818  21.715  0.00  0.00    +0.000 C 
ATOM      4  C   UNL     1      -0.516  10.572  22.798  0.00  0.00    +0.000 C 
ATOM      5  C   UNL     1      -0.827  12.006  22.371  0.00  0.00    +0.000 C 
ATOM      6  C   UNL     1      -1.458  12.064  20.966  0.00  0.00    +0.000 C 
ENDROOT
BRANCH   1   7
ATOM      7  C   UNL     1      -1.483  11.338  18.519  0.00  0.00    +0.000 C 
ATOM      8  O   UNL     1      -1.412  12.247  17.690  0.00  0.00    +0.000 OA
ATOM      9  N   UNL     1      -2.405  10.322  18.374  0.00  0.00    +0.000 N 
ATOM     10  H   UNL     1      -2.404   9.528  18.994  0.00  0.00    +0.000 HD
BRANCH   9  11
ATOM     11  C   UNL     1      -3.285  10.224  17.226  0.00  0.00    +0.000 C 
BRANCH  11  12
ATOM     12  C   UNL     1      -4.620  10.870  17.503  0.00  0.00    +0.000 A 
ATOM     13  C   UNL     1      -5.521  10.297  18.413  0.00  0.00    +0.000 A 
ATOM     14  C   UNL     1      -6.762  10.893  18.654  0.00  0.00    +0.000 A 
ATOM     15  C   UNL     1      -7.115  12.064  17.987  0.00  0.00    +0.000 A 
ATOM     16  C   UNL     1      -6.229  12.642  17.080  0.00  0.00    +0.000 A 
ATOM     17  C   UNL     1      -4.991  12.046  16.836  0.00  0.00    +0.000 A 
ENDBRANCH  11  12
ENDBRANCH   9  11
ENDBRANCH   1   7
BRANCH   1  20
ATOM     18  C   UNL     1       1.649  11.425  18.619  0.00  0.00    +0.000 C 
ATOM     19  O   UNL     1       2.634  12.010  18.175  0.00  0.00    +0.000 OA
ATOM     20  N   UNL     1       0.716  12.016  19.508  0.00  0.00    +0.000 N 
BRANCH  20  21
ATOM     21  C   UNL     1       0.914  13.479  19.878  0.00  0.00    +0.000 C 
ATOM     22  C   UNL     1       2.243  13.985  20.514  0.00  0.00    +0.000 C 
ATOM     23  C   UNL     1       2.107  15.242  19.628  0.00  0.00    +0.000 C 
ATOM     24  C   UNL     1       1.196  14.421  18.691  0.00  0.00    +0.000 C 
ENDBRANCH  20  21
BRANCH  18  26
ATOM     25  C   UNL     1       1.397   8.946  17.711  0.00  0.00    +0.000 C 
ATOM     26  C   UNL     1       1.499  10.072  18.136  0.00  0.00    +0.000 C 
ENDBRANCH  18  26
ENDBRANCH   1  20
BRANCH   5  27
ATOM     27  C   UNL     1      -1.720  12.708  23.383  0.00  0.00    +0.000 C 
ATOM     28  O   UNL     1      -1.513  13.814  23.859  0.00  0.00    +0.000 OA
BRANCH  27  29
ATOM     29  O   UNL     1      -2.822  11.944  23.639  0.00  0.00    +0.000 OA
ATOM     30  C   UNL     1      -4.010  12.698  23.889  0.00  0.00    +0.000 C 
ENDBRANCH  27  29
ENDBRANCH   5  27
TORSDOF 8
ENDMDL
MODEL 5
REMARK VINA RESULT:      -7.1      0.872      2.720
REMARK  Name = 
REMARK  9 active torsions:
REMARK  status: ('A' for Active; 'I' for Inactive)
REMARK    1  A    between atoms: C_2  and  C_3
REMARK    2  A    between atoms: N_5  and  C_6
REMARK    3  A    between atoms: N_5  and  C_10
REMARK    4  A    between atoms: C_10  and  C_11
REMARK    5  A    between atoms: N_13  and  C_14
REMARK    6  A    between atoms: C_14  and  C_15
REMARK    7  A    between atoms: C_24  and  C_25
REMARK    8  A    between atoms: C_25  and  O_27
REMARK    9  A    between atoms: O_27  and  C_28
REMARK                            x       y       z     vdW  Elec       q    Type
REMARK                         _______ _______ _______ _____ _____    ______ ____
ROOT
ATOM      1  C   UNL     1       4.369   4.889  17.581  0.00  0.00    +0.000 C 
ATOM      2  C   UNL     1       3.646   3.870  16.647  0.00  0.00    +0.000 C 
ATOM      3  C   UNL     1       3.927   2.420  17.026  0.00  0.00    +0.000 C 
ATOM      4  C   UNL     1       3.406   2.116  18.424  0.00  0.00    +0.000 C 
ATOM      5  C   UNL     1       3.941   3.112  19.452  0.00  0.00    +0.000 C 
ATOM      6  C   UNL     1       3.760   4.571  18.988  0.00  0.00    +0.000 C 
ENDROOT
BRANCH   1   7
ATOM      7  C   UNL     1       3.946   6.356  17.173  0.00  0.00    +0.000 C 
ATOM      8  O   UNL     1       4.488   6.955  16.243  0.00  0.00    +0.000 OA
ATOM      9  N   UNL     1       3.018   6.989  17.974  0.00  0.00    +0.000 N 
ATOM     10  H   UNL     1       2.502   6.479  18.674  0.00  0.00    +0.000 HD
BRANCH   9  11
ATOM     11  C   UNL     1       2.582   8.352  17.737  0.00  0.00    +0.000 C 
BRANCH  11  12
ATOM     12  C   UNL     1       1.620   8.812  18.804  0.00  0.00    +0.000 A 
ATOM     13  C   UNL     1       0.683   9.823  18.541  0.00  0.00    +0.000 A 
ATOM     14  C   UNL     1      -0.195  10.254  19.540  0.00  0.00    +0.000 A 
ATOM     15  C   UNL     1      -0.143   9.681  20.809  0.00  0.00    +0.000 A 
ATOM     16  C   UNL     1       0.783   8.678  21.082  0.00  0.00    +0.000 A 
ATOM     17  C   UNL     1       1.663   8.248  20.087  0.00  0.00    +0.000 A 
ENDBRANCH  11  12
ENDBRANCH   9  11
ENDBRANCH   1   7
BRANCH   1  20
ATOM     18  C   UNL     1       6.591   4.623  16.283  0.00  0.00    +0.000 C 
ATOM     19  O   UNL     1       7.804   4.762  16.151  0.00  0.00    +0.000 OA
ATOM     20  N   UNL     1       5.902   4.827  17.506  0.00  0.00    +0.000 N 
BRANCH  20  21
ATOM     21  C   UNL     1       6.707   5.310  18.703  0.00  0.00    +0.000 C 
ATOM     22  C   UNL     1       8.143   4.776  18.987  0.00  0.00    +0.000 C 
ATOM     23  C   UNL     1       8.523   6.217  19.390  0.00  0.00    +0.000 C 
ATOM     24  C   UNL     1       7.325   6.713  18.553  0.00  0.00    +0.000 C 
ENDBRANCH  20  21
BRANCH  18  26
ATOM     25  C   UNL     1       5.354   3.957  14.033  0.00  0.00    +0.000 C 
ATOM     26  C   UNL     1       5.904   4.254  15.066  0.00  0.00    +0.000 C 
ENDBRANCH  18  26
ENDBRANCH   1  20
BRANCH   5  27
ATOM     27  C   UNL     1       3.298   2.906  20.816  0.00  0.00    +0.000 C 
ATOM     28  O   UNL     1       3.656   2.085  21.646  0.00  0.00    +0.000 OA
BRANCH  27  29
ATOM     29  O   UNL     1       2.297   3.815  21.000  0.00  0.00    +0.000 OA
ATOM     30  C   UNL     1       0.983   3.277  20.840  0.00  0.00    +0.000 C 
ENDBRANCH  27  29
ENDBRANCH   5  27
TORSDOF 8
ENDMDL
MODEL 6
REMARK VINA RESULT:      -7.0      0.496      1.287
REMARK  Name = 
REMARK  9 active torsions:
REMARK  status: ('A' for Active; 'I' for Inactive)
REMARK    1  A    between atoms: C_2  and  C_3
REMARK    2  A    between atoms: N_5  and  C_6
REMARK    3  A    between atoms: N_5  and  C_10
REMARK    4  A    between atoms: C_10  and  C_11
REMARK    5  A    between atoms: N_13  and  C_14
REMARK    6  A    between atoms: C_14  and  C_15
REMARK    7  A    between atoms: C_24  and  C_25
REMARK    8  A    between atoms: C_25  and  O_27
REMARK    9  A    between atoms: O_27  and  C_28
REMARK                            x       y       z     vdW  Elec       q    Type
REMARK                         _______ _______ _______ _____ _____    ______ ____
ROOT
ATOM      1  C   UNL     1       4.467   4.784  17.562  0.00  0.00    +0.000 C 
ATOM      2  C   UNL     1       3.232   4.080  16.921  0.00  0.00    +0.000 C 
ATOM      3  C   UNL     1       3.316   2.559  16.995  0.00  0.00    +0.000 C 
ATOM      4  C   UNL     1       3.335   2.088  18.442  0.00  0.00    +0.000 C 
ATOM      5  C   UNL     1       4.435   2.782  19.245  0.00  0.00    +0.000 C 
ATOM      6  C   UNL     1       4.409   4.311  19.054  0.00  0.00    +0.000 C 
ENDROOT
BRANCH   1   7
ATOM      7  C   UNL     1       4.249   6.349  17.525  0.00  0.00    +0.000 C 
ATOM      8  O   UNL     1       5.167   7.128  17.267  0.00  0.00    +0.000 OA
ATOM      9  N   UNL     1       3.009   6.820  17.905  0.00  0.00    +0.000 N 
ATOM     10  H   UNL     1       2.229   6.193  18.023  0.00  0.00    +0.000 HD
BRANCH   9  11
ATOM     11  C   UNL     1       2.695   8.235  17.960  0.00  0.00    +0.000 C 
BRANCH  11  12
ATOM     12  C   UNL     1       1.772   8.546  19.112  0.00  0.00    +0.000 A 
ATOM     13  C   UNL     1       0.887   9.632  19.052  0.00  0.00    +0.000 A 
ATOM     14  C   UNL     1       0.045   9.923  20.129  0.00  0.00    +0.000 A 
ATOM     15  C   UNL     1       0.082   9.133  21.277  0.00  0.00    +0.000 A 
ATOM     16  C   UNL     1       0.958   8.052  21.349  0.00  0.00    +0.000 A 
ATOM     17  C   UNL     1       1.802   7.763  20.274  0.00  0.00    +0.000 A 
ENDBRANCH  11  12
ENDBRANCH   9  11
ENDBRANCH   1   7
BRANCH   1  20
ATOM     18  C   UNL     1       7.046   4.592  17.497  0.00  0.00    +0.000 C 
ATOM     19  O   UNL     1       8.101   4.186  17.017  0.00  0.00    +0.000 OA
ATOM     20  N   UNL     1       5.793   4.499  16.840  0.00  0.00    +0.000 N 
BRANCH  20  21
ATOM     21  C   UNL     1       5.748   3.796  15.491  0.00  0.00    +0.000 C 
ATOM     22  C   UNL     1       4.862   4.328  14.325  0.00  0.00    +0.000 C 
ATOM     23  C   UNL     1       6.023   3.971  13.373  0.00  0.00    +0.000 C 
ATOM     24  C   UNL     1       6.973   4.037  14.587  0.00  0.00    +0.000 C 
ENDBRANCH  20  21
BRANCH  18  26
ATOM     25  C   UNL     1       7.283   5.604  19.937  0.00  0.00    +0.000 C 
ATOM     26  C   UNL     1       7.180   5.158  18.820  0.00  0.00    +0.000 C 
ENDBRANCH  18  26
ENDBRANCH   1  20
BRANCH   5  27
ATOM     27  C   UNL     1       4.353   2.431  20.723  0.00  0.00    +0.000 C 
ATOM     28  O   UNL     1       3.356   2.545  21.420  0.00  0.00    +0.000 OA
BRANCH  27  29
ATOM     29  O   UNL     1       5.543   1.912  21.145  0.00  0.00    +0.000 OA
ATOM     30  C   UNL     1       5.473   0.544  21.552  0.00  0.00    +0.000 C 
ENDBRANCH  27  29
ENDBRANCH   5  27
TORSDOF 8
ENDMDL
MODEL 7
REMARK VINA RESULT:      -6.9      4.855      9.472
REMARK  Name = 
REMARK  9 active torsions:
REMARK  status: ('A' for Active; 'I' for Inactive)
REMARK    1  A    between atoms: C_2  and  C_3
REMARK    2  A    between atoms: N_5  and  C_6
REMARK    3  A    between atoms: N_5  and  C_10
REMARK    4  A    between atoms: C_10  and  C_11
REMARK    5  A    between atoms: N_13  and  C_14
REMARK    6  A    between atoms: C_14  and  C_15
REMARK    7  A    between atoms: C_24  and  C_25
REMARK    8  A    between atoms: C_25  and  O_27
REMARK    9  A    between atoms: O_27  and  C_28
REMARK                            x       y       z     vdW  Elec       q    Type
REMARK                         _______ _______ _______ _____ _____    ______ ____
ROOT
ATOM      1  C   UNL     1      -0.394  11.424  20.062  0.00  0.00    +0.000 C 
ATOM      2  C   UNL     1      -1.714  11.737  20.832  0.00  0.00    +0.000 C 
ATOM      3  C   UNL     1      -2.682  12.591  20.020  0.00  0.00    +0.000 C 
ATOM      4  C   UNL     1      -3.122  11.860  18.759  0.00  0.00    +0.000 C 
ATOM      5  C   UNL     1      -1.923  11.382  17.940  0.00  0.00    +0.000 C 
ATOM      6  C   UNL     1      -0.896  10.630  18.809  0.00  0.00    +0.000 C 
ENDROOT
BRANCH   1   7
ATOM      7  C   UNL     1       0.501  10.461  20.939  0.00  0.00    +0.000 C 
ATOM      8  O   UNL     1       1.174  10.878  21.883  0.00  0.00    +0.000 OA
ATOM      9  N   UNL     1       0.592   9.145  20.535  0.00  0.00    +0.000 N 
ATOM     10  H   UNL     1      -0.023   8.776  19.828  0.00  0.00    +0.000 HD
BRANCH   9  11
ATOM     11  C   UNL     1       1.418   8.172  21.224  0.00  0.00    +0.000 C 
BRANCH  11  12
ATOM     12  C   UNL     1       1.789   7.028  20.315  0.00  0.00    +0.000 A 
ATOM     13  C   UNL     1       1.569   5.698  20.704  0.00  0.00    +0.000 A 
ATOM     14  C   UNL     1       1.929   4.643  19.861  0.00  0.00    +0.000 A 
ATOM     15  C   UNL     1       2.515   4.905  18.624  0.00  0.00    +0.000 A 
ATOM     16  C   UNL     1       2.740   6.222  18.228  0.00  0.00    +0.000 A 
ATOM     17  C   UNL     1       2.384   7.277  19.069  0.00  0.00    +0.000 A 
ENDBRANCH  11  12
ENDBRANCH   9  11
ENDBRANCH   1   7
BRANCH   1  20
ATOM     18  C   UNL     1       1.508  12.640  18.799  0.00  0.00    +0.000 C 
ATOM     19  O   UNL     1       2.075  13.646  18.381  0.00  0.00    +0.000 OA
ATOM     20  N   UNL     1       0.456  12.665  19.749  0.00  0.00    +0.000 N 
BRANCH  20  21
ATOM     21  C   UNL     1      -0.040  14.023  20.224  0.00  0.00    +0.000 C 
ATOM     22  C   UNL     1       0.926  15.064  20.865  0.00  0.00    +0.000 C 
ATOM     23  C   UNL     1       0.160  16.151  20.081  0.00  0.00    +0.000 C 
ATOM     24  C   UNL     1      -0.307  15.050  19.107  0.00  0.00    +0.000 C 
ENDBRANCH  20  21
BRANCH  18  26
ATOM     25  C   UNL     1       2.420  10.390  17.731  0.00  0.00    +0.000 C 
ATOM     26  C   UNL     1       1.989  11.408  18.217  0.00  0.00    +0.000 C 
ENDBRANCH  18  26
ENDBRANCH   1  20
BRANCH   5  27
ATOM     27  C   UNL     1      -2.359  10.517  16.767  0.00  0.00    +0.000 C 
ATOM     28  O   UNL     1      -1.992   9.370  16.562  0.00  0.00    +0.000 OA
BRANCH  27  29
ATOM     29  O   UNL     1      -3.269  11.191  16.005  0.00  0.00    +0.000 OA
ATOM     30  C   UNL     1      -3.602  10.538  14.778  0.00  0.00    +0.000 C 
ENDBRANCH  27  29
ENDBRANCH   5  27
TORSDOF 8
ENDMDL
MODEL 8
REMARK VINA RESULT:      -6.9      5.103      9.278
REMARK  Name = 
REMARK  9 active torsions:
REMARK  status: ('A' for Active; 'I' for Inactive)
REMARK    1  A    between atoms: C_2  and  C_3
REMARK    2  A    between atoms: N_5  and  C_6
REMARK    3  A    between atoms: N_5  and  C_10
REMARK    4  A    between atoms: C_10  and  C_11
REMARK    5  A    between atoms: N_13  and  C_14
REMARK    6  A    between atoms: C_14  and  C_15
REMARK    7  A    between atoms: C_24  and  C_25
REMARK    8  A    between atoms: C_25  and  O_27
REMARK    9  A    between atoms: O_27  and  C_28
REMARK                            x       y       z     vdW  Elec       q    Type
REMARK                         _______ _______ _______ _____ _____    ______ ____
ROOT
ATOM      1  C   UNL     1      -0.248  11.640  19.515  0.00  0.00    +0.000 C 
ATOM      2  C   UNL     1      -0.005  11.357  21.029  0.00  0.00    +0.000 C 
ATOM      3  C   UNL     1      -0.178   9.886  21.390  0.00  0.00    +0.000 C 
ATOM      4  C   UNL     1       0.842   9.025  20.658  0.00  0.00    +0.000 C 
ATOM      5  C   UNL     1       0.807   9.274  19.150  0.00  0.00    +0.000 C 
ATOM      6  C   UNL     1       0.855  10.778  18.813  0.00  0.00    +0.000 C 
ENDROOT
BRANCH   1   7
ATOM      7  C   UNL     1       0.045  13.164  19.218  0.00  0.00    +0.000 C 
ATOM      8  O   UNL     1      -0.289  13.697  18.159  0.00  0.00    +0.000 OA
ATOM      9  N   UNL     1       0.795  13.853  20.149  0.00  0.00    +0.000 N 
ATOM     10  H   UNL     1       0.990  13.458  21.055  0.00  0.00    +0.000 HD
BRANCH   9  11
ATOM     11  C   UNL     1       1.174  15.242  19.972  0.00  0.00    +0.000 C 
BRANCH  11  12
ATOM     12  C   UNL     1       2.570  15.362  19.416  0.00  0.00    +0.000 A 
ATOM     13  C   UNL     1       2.786  15.532  18.040  0.00  0.00    +0.000 A 
ATOM     14  C   UNL     1       4.083  15.627  17.530  0.00  0.00    +0.000 A 
ATOM     15  C   UNL     1       5.178  15.550  18.389  0.00  0.00    +0.000 A 
ATOM     16  C   UNL     1       4.977  15.380  19.757  0.00  0.00    +0.000 A 
ATOM     17  C   UNL     1       3.682  15.281  20.268  0.00  0.00    +0.000 A 
ENDBRANCH  11  12
ENDBRANCH   9  11
ENDBRANCH   1   7
BRANCH   1  20
ATOM     18  C   UNL     1      -2.798  12.073  19.566  0.00  0.00    +0.000 C 
ATOM     19  O   UNL     1      -3.926  12.019  19.085  0.00  0.00    +0.000 OA
ATOM     20  N   UNL     1      -1.686  11.361  19.050  0.00  0.00    +0.000 N 
BRANCH  20  21
ATOM     21  C   UNL     1      -1.893  10.535  17.789  0.00  0.00    +0.000 C 
ATOM     22  C   UNL     1      -3.132   9.606  17.618  0.00  0.00    +0.000 C 
ATOM     23  C   UNL     1      -3.190  10.071  16.148  0.00  0.00    +0.000 C 
ATOM     24  C   UNL     1      -2.395  11.326  16.565  0.00  0.00    +0.000 C 
ENDBRANCH  20  21
BRANCH  18  26
ATOM     25  C   UNL     1      -2.561  13.702  21.646  0.00  0.00    +0.000 C 
ATOM     26  C   UNL     1      -2.684  12.956  20.704  0.00  0.00    +0.000 C 
ENDBRANCH  18  26
ENDBRANCH   1  20
BRANCH   5  27
ATOM     27  C   UNL     1       1.929   8.534  18.437  0.00  0.00    +0.000 C 
ATOM     28  O   UNL     1       2.387   8.834  17.344  0.00  0.00    +0.000 OA
BRANCH  27  29
ATOM     29  O   UNL     1       2.391   7.520  19.224  0.00  0.00    +0.000 OA
ATOM     30  C   UNL     1       2.982   6.440  18.498  0.00  0.00    +0.000 C 
ENDBRANCH  27  29
ENDBRANCH   5  27
TORSDOF 8
ENDMDL
MODEL 9
REMARK VINA RESULT:      -6.8      5.812     10.504
REMARK  Name = 
REMARK  9 active torsions:
REMARK  status: ('A' for Active; 'I' for Inactive)
REMARK    1  A    between atoms: C_2  and  C_3
REMARK    2  A    between atoms: N_5  and  C_6
REMARK    3  A    between atoms: N_5  and  C_10
REMARK    4  A    between atoms: C_10  and  C_11
REMARK    5  A    between atoms: N_13  and  C_14
REMARK    6  A    between atoms: C_14  and  C_15
REMARK    7  A    between atoms: C_24  and  C_25
REMARK    8  A    between atoms: C_25  and  O_27
REMARK    9  A    between atoms: O_27  and  C_28
REMARK                            x       y       z     vdW  Elec       q    Type
REMARK                         _______ _______ _______ _____ _____    ______ ____
ROOT
ATOM      1  C   UNL     1      -1.435  12.689  20.904  0.00  0.00    +0.000 C 
ATOM      2  C   UNL     1      -1.079  14.170  21.241  0.00  0.00    +0.000 C 
ATOM      3  C   UNL     1      -2.229  15.131  20.960  0.00  0.00    +0.000 C 
ATOM      4  C   UNL     1      -3.434  14.804  21.831  0.00  0.00    +0.000 C 
ATOM      5  C   UNL     1      -3.841  13.337  21.698  0.00  0.00    +0.000 C 
ATOM      6  C   UNL     1      -2.637  12.388  21.861  0.00  0.00    +0.000 C 
ENDROOT
BRANCH   1   7
ATOM      7  C   UNL     1      -0.224  11.759  21.316  0.00  0.00    +0.000 C 
ATOM      8  O   UNL     1       0.871  12.222  21.637  0.00  0.00    +0.000 OA
ATOM      9  N   UNL     1      -0.406  10.397  21.191  0.00  0.00    +0.000 N 
ATOM     10  H   UNL     1      -1.321  10.009  21.022  0.00  0.00    +0.000 HD
BRANCH   9  11
ATOM     11  C   UNL     1       0.641   9.439  21.490  0.00  0.00    +0.000 C 
BRANCH  11  12
ATOM     12  C   UNL     1       1.249   8.883  20.227  0.00  0.00    +0.000 A 
ATOM     13  C   UNL     1       1.887   7.633  20.225  0.00  0.00    +0.000 A 
ATOM     14  C   UNL     1       2.461   7.131  19.054  0.00  0.00    +0.000 A 
ATOM     15  C   UNL     1       2.406   7.873  17.875  0.00  0.00    +0.000 A 
ATOM     16  C   UNL     1       1.777   9.116  17.865  0.00  0.00    +0.000 A 
ATOM     17  C   UNL     1       1.206   9.620  19.035  0.00  0.00    +0.000 A 
ENDBRANCH  11  12
ENDBRANCH   9  11
ENDBRANCH   1   7
BRANCH   1  20
ATOM     18  C   UNL     1      -0.809  12.851  18.400  0.00  0.00    +0.000 C 
ATOM     19  O   UNL     1      -0.894  12.499  17.226  0.00  0.00    +0.000 OA
ATOM     20  N   UNL     1      -1.709  12.436  19.414  0.00  0.00    +0.000 N 
BRANCH  20  21
ATOM     21  C   UNL     1      -2.800  11.445  19.035  0.00  0.00    +0.000 C 
ATOM     22  C   UNL     1      -3.829  11.760  17.908  0.00  0.00    +0.000 C 
ATOM     23  C   UNL     1      -3.698  10.284  17.475  0.00  0.00    +0.000 C 
ATOM     24  C   UNL     1      -2.330  10.248  18.187  0.00  0.00    +0.000 C 
ENDBRANCH  20  21
BRANCH  18  26
ATOM     25  C   UNL     1       1.255  14.428  18.935  0.00  0.00    +0.000 C 
ATOM     26  C   UNL     1       0.315  13.717  18.676  0.00  0.00    +0.000 C 
ENDBRANCH  18  26
ENDBRANCH   1  20
BRANCH   5  27
ATOM     27  C   UNL     1      -4.941  12.972  22.684  0.00  0.00    +0.000 C 
ATOM     28  O   UNL     1      -6.084  13.405  22.656  0.00  0.00    +0.000 OA
BRANCH  27  29
ATOM     29  O   UNL     1      -4.482  12.043  23.571  0.00  0.00    +0.000 OA
ATOM     30  C   UNL     1      -4.511  12.472  24.934  0.00  0.00    +0.000 C 
ENDBRANCH  27  29
ENDBRANCH   5  27
TORSDOF 8
ENDMDL
