MODEL 1
REMARK VINA RESULT:      -8.2      0.000      0.000
REMARK  Name = 
REMARK  7 active torsions:
REMARK  status: ('A' for Active; 'I' for Inactive)
REMARK    1  A    between atoms: C_1  and  C_2
REMARK    2  A    between atoms: C_4  and  C_5
REMARK    3  A    between atoms: C_17  and  C_18
REMARK    4  A    between atoms: C_19  and  C_20
REMARK    5  A    between atoms: N_22  and  C_23
REMARK    6  A    between atoms: C_23  and  C_24
REMARK    7  A    between atoms: C_24  and  N_25
REMARK                            x       y       z     vdW  Elec       q    Type
REMARK                         _______ _______ _______ _____ _____    ______ ____
ROOT
ATOM      1  C   UNL     1       2.180   3.576  21.520  0.00  0.00    +0.000 C 
ATOM      2  C   UNL     1       2.475   4.437  20.344  0.00  0.00    +0.000 A 
ATOM      3  N   UNL     1       3.188   3.913  19.290  0.00  0.00    +0.000 N 
ATOM      4  C   UNL     1       3.301   4.821  18.270  0.00  0.00    +0.000 A 
ATOM      5  C   UNL     1       2.604   5.956  18.662  0.00  0.00    +0.000 A 
ATOM      6  C   UNL     1       2.398   7.210  17.873  0.00  0.00    +0.000 C 
ATOM      7  C   UNL     1       2.123   5.739  20.005  0.00  0.00    +0.000 A 
ATOM      8  H   UNL     1       3.565   2.970  19.274  0.00  0.00    +0.000 HD
ENDROOT
BRANCH   4   9
ATOM      9  C   UNL     1       4.027   4.552  17.081  0.00  0.00    +0.000 C 
ATOM     10  C   UNL     1       5.200   5.046  16.659  0.00  0.00    +0.000 C 
ATOM     11  C   UNL     1       6.177   6.008  17.288  0.00  0.00    +0.000 C 
ATOM     12  O   UNL     1       6.089   6.564  18.370  0.00  0.00    +0.000 OA
ATOM     13  N   UNL     1       7.201   6.141  16.372  0.00  0.00    +0.000 N 
ATOM     14  C   UNL     1       6.980   5.375  15.239  0.00  0.00    +0.000 A 
ATOM     15  N   UNL     1       7.802   5.326  14.188  0.00  0.00    +0.000 NA
ATOM     16  C   UNL     1       7.372   4.523  13.177  0.00  0.00    +0.000 A 
ATOM     17  C   UNL     1       6.179   3.795  13.195  0.00  0.00    +0.000 A 
ATOM     18 CL   UNL     1       5.725   2.820  11.858  0.00  0.00    +0.000 Cl
ATOM     19  C   UNL     1       5.355   3.875  14.314  0.00  0.00    +0.000 A 
ATOM     20  C   UNL     1       5.775   4.682  15.355  0.00  0.00    +0.000 A 
ATOM     21  H   UNL     1       8.015   6.720  16.495  0.00  0.00    +0.000 HD
ENDBRANCH   4   9
BRANCH   7  22
ATOM     22  C   UNL     1       1.375   6.731  20.785  0.00  0.00    +0.000 C 
ATOM     23  O   UNL     1       0.196   6.561  21.087  0.00  0.00    +0.000 OA
ATOM     24  N   UNL     1       2.046   7.899  21.075  0.00  0.00    +0.000 N 
ATOM     25  H   UNL     1       3.029   7.961  20.864  0.00  0.00    +0.000 HD
BRANCH  24  26
ATOM     26  C   UNL     1       1.404   8.936  21.859  0.00  0.00    +0.000 C 
BRANCH  26  27
ATOM     27  C   UNL     1       1.030  10.189  21.042  0.00  0.00    +0.000 C 
BRANCH  27  28
ATOM     28  N   UNL     1      -0.418  10.294  20.831  0.00  0.00    +0.000 NA
ATOM     29  C   UNL     1      -0.855  10.286  19.419  0.00  0.00    +0.000 C 
ATOM     30  C   UNL     1      -1.090  11.651  18.742  0.00  0.00    +0.000 C 
ATOM     31  O   UNL     1      -1.791  12.573  19.580  0.00  0.00    +0.000 OA
ATOM     32  C   UNL     1      -1.089  12.731  20.814  0.00  0.00    +0.000 C 
ATOM     33  C   UNL     1      -1.048  11.400  21.572  0.00  0.00    +0.000 C 
ENDBRANCH  27  28
ENDBRANCH  26  27
ENDBRANCH  24  26
ENDBRANCH   7  22
TORSDOF 5
ENDMDL
MODEL 2
REMARK VINA RESULT:      -8.1      0.783      1.162
REMARK  Name = 
REMARK  7 active torsions:
REMARK  status: ('A' for Active; 'I' for Inactive)
REMARK    1  A    between atoms: C_1  and  C_2
REMARK    2  A    between atoms: C_4  and  C_5
REMARK    3  A    between atoms: C_17  and  C_18
REMARK    4  A    between atoms: C_19  and  C_20
REMARK    5  A    between atoms: N_22  and  C_23
REMARK    6  A    between atoms: C_23  and  C_24
REMARK    7  A    between atoms: C_24  and  N_25
REMARK                            x       y       z     vdW  Elec       q    Type
REMARK                         _______ _______ _______ _____ _____    ______ ____
ROOT
ATOM      1  C   UNL     1       2.233   3.089  21.145  0.00  0.00    +0.000 C 
ATOM      2  C   UNL     1       2.562   4.014  20.028  0.00  0.00    +0.000 A 
ATOM      3  N   UNL     1       3.280   3.542  18.953  0.00  0.00    +0.000 N 
ATOM      4  C   UNL     1       3.425   4.509  17.994  0.00  0.00    +0.000 A 
ATOM      5  C   UNL     1       2.746   5.632  18.446  0.00  0.00    +0.000 A 
ATOM      6  C   UNL     1       2.576   6.936  17.734  0.00  0.00    +0.000 C 
ATOM      7  C   UNL     1       2.241   5.342  19.766  0.00  0.00    +0.000 A 
ATOM      8  H   UNL     1       3.638   2.594  18.884  0.00  0.00    +0.000 HD
ENDROOT
BRANCH   4   9
ATOM      9  C   UNL     1       4.163   4.299  16.799  0.00  0.00    +0.000 C 
ATOM     10  C   UNL     1       5.300   4.873  16.378  0.00  0.00    +0.000 C 
ATOM     11  C   UNL     1       6.213   5.892  17.013  0.00  0.00    +0.000 C 
ATOM     12  O   UNL     1       6.093   6.431  18.100  0.00  0.00    +0.000 OA
ATOM     13  N   UNL     1       7.223   6.101  16.095  0.00  0.00    +0.000 N 
ATOM     14  C   UNL     1       7.049   5.332  14.955  0.00  0.00    +0.000 A 
ATOM     15  N   UNL     1       7.868   5.346  13.901  0.00  0.00    +0.000 NA
ATOM     16  C   UNL     1       7.488   4.526  12.884  0.00  0.00    +0.000 A 
ATOM     17  C   UNL     1       6.346   3.721  12.899  0.00  0.00    +0.000 A 
ATOM     18 CL   UNL     1       5.952   2.730  11.555  0.00  0.00    +0.000 Cl
ATOM     19  C   UNL     1       5.523   3.736  14.022  0.00  0.00    +0.000 A 
ATOM     20  C   UNL     1       5.892   4.560  15.069  0.00  0.00    +0.000 A 
ATOM     21  H   UNL     1       7.997   6.731  16.221  0.00  0.00    +0.000 HD
ENDBRANCH   4   9
BRANCH   7  22
ATOM     22  C   UNL     1       1.501   6.299  20.596  0.00  0.00    +0.000 C 
ATOM     23  O   UNL     1       0.394   6.034  21.057  0.00  0.00    +0.000 OA
ATOM     24  N   UNL     1       2.083   7.539  20.749  0.00  0.00    +0.000 N 
ATOM     25  H   UNL     1       3.020   7.682  20.408  0.00  0.00    +0.000 HD
BRANCH  24  26
ATOM     26  C   UNL     1       1.445   8.551  21.567  0.00  0.00    +0.000 C 
BRANCH  26  27
ATOM     27  C   UNL     1       0.267   9.260  20.869  0.00  0.00    +0.000 C 
BRANCH  27  28
ATOM     28  N   UNL     1       0.725  10.297  19.939  0.00  0.00    +0.000 NA
ATOM     29  C   UNL     1       0.404  11.686  20.330  0.00  0.00    +0.000 C 
ATOM     30  C   UNL     1      -0.869  12.316  19.731  0.00  0.00    +0.000 C 
ATOM     31  O   UNL     1      -1.024  12.036  18.338  0.00  0.00    +0.000 OA
ATOM     32  C   UNL     1      -1.005  10.624  18.125  0.00  0.00    +0.000 C 
ATOM     33  C   UNL     1       0.353  10.045  18.536  0.00  0.00    +0.000 C 
ENDBRANCH  27  28
ENDBRANCH  26  27
ENDBRANCH  24  26
ENDBRANCH   7  22
TORSDOF 5
ENDMDL
MODEL 3
REMARK VINA RESULT:      -7.9      1.248      1.342
REMARK  Name = 
REMARK  7 active torsions:
REMARK  status: ('A' for Active; 'I' for Inactive)
REMARK    1  A    between atoms: C_1  and  C_2
REMARK    2  A    between atoms: C_4  and  C_5
REMARK    3  A    between atoms: C_17  and  C_18
REMARK    4  A    between atoms: C_19  and  C_20
REMARK    5  A    between atoms: N_22  and  C_23
REMARK    6  A    between atoms: C_23  and  C_24
REMARK    7  A    between atoms: C_24  and  N_25
REMARK                            x       y       z     vdW  Elec       q    Type
REMARK                         _______ _______ _______ _____ _____    ______ ____
ROOT
ATOM      1  C   UNL     1       3.237   2.450  21.156  0.00  0.00    +0.000 C 
ATOM      2  C   UNL     1       3.247   3.360  19.980  0.00  0.00    +0.000 A 
ATOM      3  N   UNL     1       4.017   3.036  18.886  0.00  0.00    +0.000 N 
ATOM      4  C   UNL     1       3.847   3.946  17.876  0.00  0.00    +0.000 A 
ATOM      5  C   UNL     1       2.907   4.867  18.317  0.00  0.00    +0.000 A 
ATOM      6  C   UNL     1       2.353   6.030  17.557  0.00  0.00    +0.000 C 
ATOM      7  C   UNL     1       2.562   4.532  19.677  0.00  0.00    +0.000 A 
ATOM      8  H   UNL     1       4.618   2.219  18.839  0.00  0.00    +0.000 HD
ENDROOT
BRANCH   4   9
ATOM      9  C   UNL     1       4.559   3.872  16.650  0.00  0.00    +0.000 C 
ATOM     10  C   UNL     1       5.586   4.611  16.205  0.00  0.00    +0.000 C 
ATOM     11  C   UNL     1       6.374   5.732  16.838  0.00  0.00    +0.000 C 
ATOM     12  O   UNL     1       6.222   6.221  17.945  0.00  0.00    +0.000 OA
ATOM     13  N   UNL     1       7.306   6.103  15.891  0.00  0.00    +0.000 N 
ATOM     14  C   UNL     1       7.196   5.346  14.735  0.00  0.00    +0.000 A 
ATOM     15  N   UNL     1       7.962   5.502  13.653  0.00  0.00    +0.000 NA
ATOM     16  C   UNL     1       7.660   4.663  12.626  0.00  0.00    +0.000 A 
ATOM     17  C   UNL     1       6.643   3.705  12.658  0.00  0.00    +0.000 A 
ATOM     18 CL   UNL     1       6.338   2.702  11.299  0.00  0.00    +0.000 Cl
ATOM     19  C   UNL     1       5.871   3.576  13.810  0.00  0.00    +0.000 A 
ATOM     20  C   UNL     1       6.164   4.417  14.867  0.00  0.00    +0.000 A 
ATOM     21  H   UNL     1       7.990   6.832  16.008  0.00  0.00    +0.000 HD
ENDBRANCH   4   9
BRANCH   7  22
ATOM     22  C   UNL     1       1.628   5.301  20.506  0.00  0.00    +0.000 C 
ATOM     23  O   UNL     1       0.584   4.810  20.929  0.00  0.00    +0.000 OA
ATOM     24  N   UNL     1       1.947   6.627  20.701  0.00  0.00    +0.000 N 
ATOM     25  H   UNL     1       2.845   6.962  20.390  0.00  0.00    +0.000 HD
BRANCH  24  26
ATOM     26  C   UNL     1       1.100   7.470  21.522  0.00  0.00    +0.000 C 
BRANCH  26  27
ATOM     27  C   UNL     1       1.320   8.980  21.293  0.00  0.00    +0.000 C 
BRANCH  27  28
ATOM     28  N   UNL     1       0.418   9.516  20.269  0.00  0.00    +0.000 NA
ATOM     29  C   UNL     1       1.003   9.651  18.918  0.00  0.00    +0.000 C 
ATOM     30  C   UNL     1       1.573  11.029  18.526  0.00  0.00    +0.000 C 
ATOM     31  O   UNL     1       0.729  12.112  18.923  0.00  0.00    +0.000 OA
ATOM     32  C   UNL     1       0.486  12.043  20.329  0.00  0.00    +0.000 C 
ATOM     33  C   UNL     1      -0.270  10.754  20.672  0.00  0.00    +0.000 C 
ENDBRANCH  27  28
ENDBRANCH  26  27
ENDBRANCH  24  26
ENDBRANCH   7  22
TORSDOF 5
ENDMDL
MODEL 4
REMARK VINA RESULT:      -7.9      1.298      1.709
REMARK  Name = 
REMARK  7 active torsions:
REMARK  status: ('A' for Active; 'I' for Inactive)
REMARK    1  A    between atoms: C_1  and  C_2
REMARK    2  A    between atoms: C_4  and  C_5
REMARK    3  A    between atoms: C_17  and  C_18
REMARK    4  A    between atoms: C_19  and  C_20
REMARK    5  A    between atoms: N_22  and  C_23
REMARK    6  A    between atoms: C_23  and  C_24
REMARK    7  A    between atoms: C_24  and  N_25
REMARK                            x       y       z     vdW  Elec       q    Type
REMARK                         _______ _______ _______ _____ _____    ______ ____
ROOT
ATOM      1  C   UNL     1       1.917   4.691  21.215  0.00  0.00    +0.000 C 
ATOM      2  C   UNL     1       2.433   5.426  20.030  0.00  0.00    +0.000 A 
ATOM      3  N   UNL     1       3.043   4.723  19.016  0.00  0.00    +0.000 N 
ATOM      4  C   UNL     1       3.386   5.550  17.979  0.00  0.00    +0.000 A 
ATOM      5  C   UNL     1       2.949   6.823  18.317  0.00  0.00    +0.000 A 
ATOM      6  C   UNL     1       3.052   8.065  17.490  0.00  0.00    +0.000 C 
ATOM      7  C   UNL     1       2.391   6.762  19.646  0.00  0.00    +0.000 A 
ATOM      8  H   UNL     1       3.200   3.720  19.038  0.00  0.00    +0.000 HD
ENDROOT
BRANCH   4   9
ATOM      9  C   UNL     1       4.070   5.087  16.824  0.00  0.00    +0.000 C 
ATOM     10  C   UNL     1       5.295   5.391  16.370  0.00  0.00    +0.000 C 
ATOM     11  C   UNL     1       6.387   6.275  16.921  0.00  0.00    +0.000 C 
ATOM     12  O   UNL     1       6.372   6.931  17.948  0.00  0.00    +0.000 OA
ATOM     13  N   UNL     1       7.417   6.197  16.005  0.00  0.00    +0.000 N 
ATOM     14  C   UNL     1       7.098   5.367  14.942  0.00  0.00    +0.000 A 
ATOM     15  N   UNL     1       7.905   5.123  13.906  0.00  0.00    +0.000 NA
ATOM     16  C   UNL     1       7.375   4.294  12.966  0.00  0.00    +0.000 A 
ATOM     17  C   UNL     1       6.099   3.726  13.038  0.00  0.00    +0.000 A 
ATOM     18 CL   UNL     1       5.523   2.701  11.788  0.00  0.00    +0.000 Cl
ATOM     19  C   UNL     1       5.295   4.008  14.139  0.00  0.00    +0.000 A 
ATOM     20  C   UNL     1       5.816   4.844  15.108  0.00  0.00    +0.000 A 
ATOM     21  H   UNL     1       8.297   6.678  16.084  0.00  0.00    +0.000 HD
ENDBRANCH   4   9
BRANCH   7  22
ATOM     22  C   UNL     1       1.860   7.920  20.373  0.00  0.00    +0.000 C 
ATOM     23  O   UNL     1       1.944   8.010  21.596  0.00  0.00    +0.000 OA
ATOM     24  N   UNL     1       1.185   8.850  19.613  0.00  0.00    +0.000 N 
ATOM     25  H   UNL     1       1.203   8.764  18.610  0.00  0.00    +0.000 HD
BRANCH  24  26
ATOM     26  C   UNL     1       0.639  10.043  20.231  0.00  0.00    +0.000 C 
BRANCH  26  27
ATOM     27  C   UNL     1      -0.889  10.179  20.073  0.00  0.00    +0.000 C 
BRANCH  27  28
ATOM     28  N   UNL     1      -1.250  11.266  19.156  0.00  0.00    +0.000 NA
ATOM     29  C   UNL     1      -2.134  12.305  19.724  0.00  0.00    +0.000 C 
ATOM     30  C   UNL     1      -3.649  12.164  19.470  0.00  0.00    +0.000 C 
ATOM     31  O   UNL     1      -3.953  11.789  18.124  0.00  0.00    +0.000 OA
ATOM     32  C   UNL     1      -3.267  10.580  17.795  0.00  0.00    +0.000 C 
ATOM     33  C   UNL     1      -1.752  10.801  17.852  0.00  0.00    +0.000 C 
ENDBRANCH  27  28
ENDBRANCH  26  27
ENDBRANCH  24  26
ENDBRANCH   7  22
TORSDOF 5
ENDMDL
MODEL 5
REMARK VINA RESULT:      -7.9      2.443      4.836
REMARK  Name = 
REMARK  7 active torsions:
REMARK  status: ('A' for Active; 'I' for Inactive)
REMARK    1  A    between atoms: C_1  and  C_2
REMARK    2  A    between atoms: C_4  and  C_5
REMARK    3  A    between atoms: C_17  and  C_18
REMARK    4  A    between atoms: C_19  and  C_20
REMARK    5  A    between atoms: N_22  and  C_23
REMARK    6  A    between atoms: C_23  and  C_24
REMARK    7  A    between atoms: C_24  and  N_25
REMARK                            x       y       z     vdW  Elec       q    Type
REMARK                         _______ _______ _______ _____ _____    ______ ____
ROOT
ATOM      1  C   UNL     1       0.348   9.166  23.150  0.00  0.00    +0.000 C 
ATOM      2  C   UNL     1       0.679   9.257  21.703  0.00  0.00    +0.000 A 
ATOM      3  N   UNL     1       1.446   8.271  21.125  0.00  0.00    +0.000 N 
ATOM      4  C   UNL     1       1.588   8.481  19.779  0.00  0.00    +0.000 A 
ATOM      5  C   UNL     1       0.857   9.619  19.469  0.00  0.00    +0.000 A 
ATOM      6  C   UNL     1       0.664  10.231  18.118  0.00  0.00    +0.000 C 
ATOM      7  C   UNL     1       0.321  10.150  20.698  0.00  0.00    +0.000 A 
ATOM      8  H   UNL     1       1.839   7.487  21.637  0.00  0.00    +0.000 HD
ENDROOT
BRANCH   4   9
ATOM      9  C   UNL     1       2.370   7.634  18.950  0.00  0.00    +0.000 C 
ATOM     10  C   UNL     1       2.580   6.311  19.025  0.00  0.00    +0.000 C 
ATOM     11  C   UNL     1       2.049   5.255  19.963  0.00  0.00    +0.000 C 
ATOM     12  O   UNL     1       1.278   5.402  20.896  0.00  0.00    +0.000 OA
ATOM     13  N   UNL     1       2.630   4.074  19.549  0.00  0.00    +0.000 N 
ATOM     14  C   UNL     1       3.466   4.265  18.461  0.00  0.00    +0.000 A 
ATOM     15  N   UNL     1       4.167   3.296  17.866  0.00  0.00    +0.000 NA
ATOM     16  C   UNL     1       4.940   3.718  16.829  0.00  0.00    +0.000 A 
ATOM     17  C   UNL     1       5.024   5.043  16.391  0.00  0.00    +0.000 A 
ATOM     18 CL   UNL     1       6.042   5.470  15.077  0.00  0.00    +0.000 Cl
ATOM     19  C   UNL     1       4.272   6.019  17.039  0.00  0.00    +0.000 A 
ATOM     20  C   UNL     1       3.477   5.610  18.094  0.00  0.00    +0.000 A 
ATOM     21  H   UNL     1       2.477   3.175  19.975  0.00  0.00    +0.000 HD
ENDBRANCH   4   9
BRANCH   7  22
ATOM     22  C   UNL     1      -0.476  11.378  20.790  0.00  0.00    +0.000 C 
ATOM     23  O   UNL     1      -1.492  11.541  20.118  0.00  0.00    +0.000 OA
ATOM     24  N   UNL     1       0.034  12.368  21.602  0.00  0.00    +0.000 N 
ATOM     25  H   UNL     1       0.831  12.159  22.181  0.00  0.00    +0.000 HD
BRANCH  24  26
ATOM     26  C   UNL     1      -0.687  13.613  21.778  0.00  0.00    +0.000 C 
BRANCH  26  27
ATOM     27  C   UNL     1      -1.237  13.815  23.205  0.00  0.00    +0.000 C 
BRANCH  27  28
ATOM     28  N   UNL     1      -2.623  14.293  23.196  0.00  0.00    +0.000 NA
ATOM     29  C   UNL     1      -3.414  13.965  24.401  0.00  0.00    +0.000 C 
ATOM     30  C   UNL     1      -4.300  12.705  24.347  0.00  0.00    +0.000 C 
ATOM     31  O   UNL     1      -5.010  12.578  23.113  0.00  0.00    +0.000 OA
ATOM     32  C   UNL     1      -4.088  12.600  22.022  0.00  0.00    +0.000 C 
ATOM     33  C   UNL     1      -3.363  13.949  21.970  0.00  0.00    +0.000 C 
ENDBRANCH  27  28
ENDBRANCH  26  27
ENDBRANCH  24  26
ENDBRANCH   7  22
TORSDOF 5
ENDMDL
MODEL 6
REMARK VINA RESULT:      -7.8      3.010      5.998
REMARK  Name = 
REMARK  7 active torsions:
REMARK  status: ('A' for Active; 'I' for Inactive)
REMARK    1  A    between atoms: C_1  and  C_2
REMARK    2  A    between atoms: C_4  and  C_5
REMARK    3  A    between atoms: C_17  and  C_18
REMARK    4  A    between atoms: C_19  and  C_20
REMARK    5  A    between atoms: N_22  and  C_23
REMARK    6  A    between atoms: C_23  and  C_24
REMARK    7  A    between atoms: C_24  and  N_25
REMARK                            x       y       z     vdW  Elec       q    Type
REMARK                         _______ _______ _______ _____ _____    ______ ____
ROOT
ATOM      1  C   UNL     1      -2.895  11.072  17.708  0.00  0.00    +0.000 C 
ATOM      2  C   UNL     1      -1.448  11.005  18.043  0.00  0.00    +0.000 A 
ATOM      3  N   UNL     1      -0.726   9.889  17.685  0.00  0.00    +0.000 N 
ATOM      4  C   UNL     1       0.598  10.033  18.007  0.00  0.00    +0.000 A 
ATOM      5  C   UNL     1       0.744  11.299  18.556  0.00  0.00    +0.000 A 
ATOM      6  C   UNL     1       2.011  11.942  19.025  0.00  0.00    +0.000 C 
ATOM      7  C   UNL     1      -0.564  11.902  18.634  0.00  0.00    +0.000 A 
ATOM      8  H   UNL     1      -1.129   9.076  17.229  0.00  0.00    +0.000 HD
ENDROOT
BRANCH   4   9
ATOM      9  C   UNL     1       1.556   9.009  17.786  0.00  0.00    +0.000 C 
ATOM     10  C   UNL     1       2.040   8.086  18.630  0.00  0.00    +0.000 C 
ATOM     11  C   UNL     1       1.726   7.772  20.072  0.00  0.00    +0.000 C 
ATOM     12  O   UNL     1       0.924   8.329  20.802  0.00  0.00    +0.000 OA
ATOM     13  N   UNL     1       2.552   6.717  20.404  0.00  0.00    +0.000 N 
ATOM     14  C   UNL     1       3.350   6.332  19.339  0.00  0.00    +0.000 A 
ATOM     15  N   UNL     1       4.250   5.348  19.385  0.00  0.00    +0.000 NA
ATOM     16  C   UNL     1       4.936   5.160  18.225  0.00  0.00    +0.000 A 
ATOM     17  C   UNL     1       4.747   5.910  17.062  0.00  0.00    +0.000 A 
ATOM     18 CL   UNL     1       5.677   5.597  15.654  0.00  0.00    +0.000 Cl
ATOM     19  C   UNL     1       3.793   6.925  17.059  0.00  0.00    +0.000 A 
ATOM     20  C   UNL     1       3.082   7.130  18.226  0.00  0.00    +0.000 A 
ATOM     21  H   UNL     1       2.584   6.270  21.306  0.00  0.00    +0.000 HD
ENDBRANCH   4   9
BRANCH   7  22
ATOM     22  C   UNL     1      -0.830  13.229  19.200  0.00  0.00    +0.000 C 
ATOM     23  O   UNL     1      -0.510  14.259  18.612  0.00  0.00    +0.000 OA
ATOM     24  N   UNL     1      -1.373  13.245  20.466  0.00  0.00    +0.000 N 
ATOM     25  H   UNL     1      -1.678  12.377  20.876  0.00  0.00    +0.000 HD
BRANCH  24  26
ATOM     26  C   UNL     1      -1.694  14.505  21.109  0.00  0.00    +0.000 C 
BRANCH  26  27
ATOM     27  C   UNL     1      -2.864  14.411  22.108  0.00  0.00    +0.000 C 
BRANCH  27  28
ATOM     28  N   UNL     1      -3.388  13.045  22.212  0.00  0.00    +0.000 NA
ATOM     29  C   UNL     1      -4.810  12.882  21.845  0.00  0.00    +0.000 C 
ATOM     30  C   UNL     1      -5.845  12.907  22.988  0.00  0.00    +0.000 C 
ATOM     31  O   UNL     1      -5.431  12.150  24.128  0.00  0.00    +0.000 OA
ATOM     32  C   UNL     1      -4.160  12.619  24.582  0.00  0.00    +0.000 C 
ATOM     33  C   UNL     1      -3.097  12.393  23.501  0.00  0.00    +0.000 C 
ENDBRANCH  27  28
ENDBRANCH  26  27
ENDBRANCH  24  26
ENDBRANCH   7  22
TORSDOF 5
ENDMDL
MODEL 7
REMARK VINA RESULT:      -7.8      1.381      1.704
REMARK  Name = 
REMARK  7 active torsions:
REMARK  status: ('A' for Active; 'I' for Inactive)
REMARK    1  A    between atoms: C_1  and  C_2
REMARK    2  A    between atoms: C_4  and  C_5
REMARK    3  A    between atoms: C_17  and  C_18
REMARK    4  A    between atoms: C_19  and  C_20
REMARK    5  A    between atoms: N_22  and  C_23
REMARK    6  A    between atoms: C_23  and  C_24
REMARK    7  A    between atoms: C_24  and  N_25
REMARK                            x       y       z     vdW  Elec       q    Type
REMARK                         _______ _______ _______ _____ _____    ______ ____
ROOT
ATOM      1  C   UNL     1       3.101   2.408  20.842  0.00  0.00    +0.000 C 
ATOM      2  C   UNL     1       3.264   3.381  19.730  0.00  0.00    +0.000 A 
ATOM      3  N   UNL     1       3.902   2.985  18.577  0.00  0.00    +0.000 N 
ATOM      4  C   UNL     1       3.895   3.984  17.640  0.00  0.00    +0.000 A 
ATOM      5  C   UNL     1       3.195   5.049  18.191  0.00  0.00    +0.000 A 
ATOM      6  C   UNL     1       2.878   6.357  17.540  0.00  0.00    +0.000 C 
ATOM      7  C   UNL     1       2.839   4.692  19.543  0.00  0.00    +0.000 A 
ATOM      8  H   UNL     1       4.309   2.064  18.444  0.00  0.00    +0.000 HD
ENDROOT
BRANCH   4   9
ATOM      9  C   UNL     1       4.525   3.853  16.375  0.00  0.00    +0.000 C 
ATOM     10  C   UNL     1       5.591   4.495  15.874  0.00  0.00    +0.000 C 
ATOM     11  C   UNL     1       6.515   5.533  16.462  0.00  0.00    +0.000 C 
ATOM     12  O   UNL     1       6.473   6.026  17.577  0.00  0.00    +0.000 OA
ATOM     13  N   UNL     1       7.423   5.822  15.464  0.00  0.00    +0.000 N 
ATOM     14  C   UNL     1       7.176   5.088  14.315  0.00  0.00    +0.000 A 
ATOM     15  N   UNL     1       7.891   5.180  13.191  0.00  0.00    +0.000 NA
ATOM     16  C   UNL     1       7.453   4.380  12.182  0.00  0.00    +0.000 A 
ATOM     17  C   UNL     1       6.353   3.522  12.269  0.00  0.00    +0.000 A 
ATOM     18 CL   UNL     1       5.878   2.563  10.928  0.00  0.00    +0.000 Cl
ATOM     19  C   UNL     1       5.640   3.457  13.463  0.00  0.00    +0.000 A 
ATOM     20  C   UNL     1       6.070   4.259  14.504  0.00  0.00    +0.000 A 
ATOM     21  H   UNL     1       8.177   6.484  15.544  0.00  0.00    +0.000 HD
ENDBRANCH   4   9
BRANCH   7  22
ATOM     22  C   UNL     1       2.126   5.578  20.470  0.00  0.00    +0.000 C 
ATOM     23  O   UNL     1       1.450   5.136  21.396  0.00  0.00    +0.000 OA
ATOM     24  N   UNL     1       2.187   6.924  20.183  0.00  0.00    +0.000 N 
ATOM     25  H   UNL     1       2.807   7.239  19.454  0.00  0.00    +0.000 HD
BRANCH  24  26
ATOM     26  C   UNL     1       1.534   7.887  21.048  0.00  0.00    +0.000 C 
BRANCH  26  27
ATOM     27  C   UNL     1       0.980   9.117  20.301  0.00  0.00    +0.000 C 
BRANCH  27  28
ATOM     28  N   UNL     1      -0.335   9.521  20.810  0.00  0.00    +0.000 NA
ATOM     29  C   UNL     1      -0.625  10.968  20.736  0.00  0.00    +0.000 C 
ATOM     30  C   UNL     1      -0.354  11.811  21.999  0.00  0.00    +0.000 C 
ATOM     31  O   UNL     1      -0.797  11.172  23.198  0.00  0.00    +0.000 OA
ATOM     32  C   UNL     1      -0.194   9.882  23.308  0.00  0.00    +0.000 C 
ATOM     33  C   UNL     1      -0.644   8.988  22.148  0.00  0.00    +0.000 C 
ENDBRANCH  27  28
ENDBRANCH  26  27
ENDBRANCH  24  26
ENDBRANCH   7  22
TORSDOF 5
ENDMDL
MODEL 8
REMARK VINA RESULT:      -7.8      1.133      1.366
REMARK  Name = 
REMARK  7 active torsions:
REMARK  status: ('A' for Active; 'I' for Inactive)
REMARK    1  A    between atoms: C_1  and  C_2
REMARK    2  A    between atoms: C_4  and  C_5
REMARK    3  A    between atoms: C_17  and  C_18
REMARK    4  A    between atoms: C_19  and  C_20
REMARK    5  A    between atoms: N_22  and  C_23
REMARK    6  A    between atoms: C_23  and  C_24
REMARK    7  A    between atoms: C_24  and  N_25
REMARK                            x       y       z     vdW  Elec       q    Type
REMARK                         _______ _______ _______ _____ _____    ______ ____
ROOT
ATOM      1  C   UNL     1       1.866   4.545  21.171  0.00  0.00    +0.000 C 
ATOM      2  C   UNL     1       2.386   5.304  20.003  0.00  0.00    +0.000 A 
ATOM      3  N   UNL     1       3.013   4.625  18.984  0.00  0.00    +0.000 N 
ATOM      4  C   UNL     1       3.360   5.472  17.965  0.00  0.00    +0.000 A 
ATOM      5  C   UNL     1       2.907   6.735  18.320  0.00  0.00    +0.000 A 
ATOM      6  C   UNL     1       3.006   7.992  17.514  0.00  0.00    +0.000 C 
ATOM      7  C   UNL     1       2.335   6.646  19.641  0.00  0.00    +0.000 A 
ATOM      8  H   UNL     1       3.180   3.623  18.991  0.00  0.00    +0.000 HD
ENDROOT
BRANCH   4   9
ATOM      9  C   UNL     1       4.060   5.036  16.810  0.00  0.00    +0.000 C 
ATOM     10  C   UNL     1       5.283   5.367  16.368  0.00  0.00    +0.000 C 
ATOM     11  C   UNL     1       6.354   6.264  16.937  0.00  0.00    +0.000 C 
ATOM     12  O   UNL     1       6.320   6.908  17.972  0.00  0.00    +0.000 OA
ATOM     13  N   UNL     1       7.392   6.215  16.028  0.00  0.00    +0.000 N 
ATOM     14  C   UNL     1       7.096   5.393  14.953  0.00  0.00    +0.000 A 
ATOM     15  N   UNL     1       7.914   5.175  13.921  0.00  0.00    +0.000 NA
ATOM     16  C   UNL     1       7.406   4.348  12.968  0.00  0.00    +0.000 A 
ATOM     17  C   UNL     1       6.141   3.756  13.024  0.00  0.00    +0.000 A 
ATOM     18 CL   UNL     1       5.593   2.735  11.758  0.00  0.00    +0.000 Cl
ATOM     19  C   UNL     1       5.324   4.010  14.122  0.00  0.00    +0.000 A 
ATOM     20  C   UNL     1       5.822   4.845  15.104  0.00  0.00    +0.000 A 
ATOM     21  H   UNL     1       8.263   6.711  16.119  0.00  0.00    +0.000 HD
ENDBRANCH   4   9
BRANCH   7  22
ATOM     22  C   UNL     1       1.786   7.787  20.382  0.00  0.00    +0.000 C 
ATOM     23  O   UNL     1       1.805   7.830  21.610  0.00  0.00    +0.000 OA
ATOM     24  N   UNL     1       1.168   8.756  19.622  0.00  0.00    +0.000 N 
ATOM     25  H   UNL     1       1.238   8.707  18.619  0.00  0.00    +0.000 HD
BRANCH  24  26
ATOM     26  C   UNL     1       0.609   9.936  20.255  0.00  0.00    +0.000 C 
BRANCH  26  27
ATOM     27  C   UNL     1       0.937  11.249  19.516  0.00  0.00    +0.000 C 
BRANCH  27  28
ATOM     28  N   UNL     1      -0.259  11.862  18.931  0.00  0.00    +0.000 NA
ATOM     29  C   UNL     1      -0.137  13.296  18.595  0.00  0.00    +0.000 C 
ATOM     30  C   UNL     1      -0.648  14.314  19.635  0.00  0.00    +0.000 C 
ATOM     31  O   UNL     1      -1.903  13.939  20.209  0.00  0.00    +0.000 OA
ATOM     32  C   UNL     1      -1.799  12.634  20.782  0.00  0.00    +0.000 C 
ATOM     33  C   UNL     1      -1.494  11.602  19.691  0.00  0.00    +0.000 C 
ENDBRANCH  27  28
ENDBRANCH  26  27
ENDBRANCH  24  26
ENDBRANCH   7  22
TORSDOF 5
ENDMDL
MODEL 9
REMARK VINA RESULT:      -7.8      3.891      6.574
REMARK  Name = 
REMARK  7 active torsions:
REMARK  status: ('A' for Active; 'I' for Inactive)
REMARK    1  A    between atoms: C_1  and  C_2
REMARK    2  A    between atoms: C_4  and  C_5
REMARK    3  A    between atoms: C_17  and  C_18
REMARK    4  A    between atoms: C_19  and  C_20
REMARK    5  A    between atoms: N_22  and  C_23
REMARK    6  A    between atoms: C_23  and  C_24
REMARK    7  A    between atoms: C_24  and  N_25
REMARK                            x       y       z     vdW  Elec       q    Type
REMARK                         _______ _______ _______ _____ _____    ______ ____
ROOT
ATOM      1  C   UNL     1       0.472  12.652  19.106  0.00  0.00    +0.000 C 
ATOM      2  C   UNL     1       0.376  11.542  20.091  0.00  0.00    +0.000 A 
ATOM      3  N   UNL     1       0.947  10.326  19.793  0.00  0.00    +0.000 N 
ATOM      4  C   UNL     1       0.824   9.452  20.840  0.00  0.00    +0.000 A 
ATOM      5  C   UNL     1       0.187  10.138  21.865  0.00  0.00    +0.000 A 
ATOM      6  C   UNL     1      -0.136   9.627  23.233  0.00  0.00    +0.000 C 
ATOM      7  C   UNL     1      -0.151  11.452  21.375  0.00  0.00    +0.000 A 
ATOM      8  H   UNL     1       1.409  10.119  18.912  0.00  0.00    +0.000 HD
ENDROOT
BRANCH   4   9
ATOM      9  C   UNL     1       1.289   8.112  20.780  0.00  0.00    +0.000 C 
ATOM     10  C   UNL     1       1.941   7.472  19.798  0.00  0.00    +0.000 C 
ATOM     11  C   UNL     1       2.446   7.930  18.452  0.00  0.00    +0.000 C 
ATOM     12  O   UNL     1       2.355   9.041  17.957  0.00  0.00    +0.000 OA
ATOM     13  N   UNL     1       3.031   6.818  17.882  0.00  0.00    +0.000 N 
ATOM     14  C   UNL     1       2.951   5.712  18.713  0.00  0.00    +0.000 A 
ATOM     15  N   UNL     1       3.423   4.501  18.407  0.00  0.00    +0.000 NA
ATOM     16  C   UNL     1       3.213   3.559  19.366  0.00  0.00    +0.000 A 
ATOM     17  C   UNL     1       2.563   3.795  20.581  0.00  0.00    +0.000 A 
ATOM     18 CL   UNL     1       2.341   2.529  21.718  0.00  0.00    +0.000 Cl
ATOM     19  C   UNL     1       2.091   5.075  20.858  0.00  0.00    +0.000 A 
ATOM     20  C   UNL     1       2.297   6.048  19.899  0.00  0.00    +0.000 A 
ATOM     21  H   UNL     1       3.465   6.794  16.975  0.00  0.00    +0.000 HD
ENDBRANCH   4   9
BRANCH   7  22
ATOM     22  C   UNL     1      -0.875  12.463  22.154  0.00  0.00    +0.000 C 
ATOM     23  O   UNL     1      -0.444  12.887  23.224  0.00  0.00    +0.000 OA
ATOM     24  N   UNL     1      -2.106  12.836  21.659  0.00  0.00    +0.000 N 
ATOM     25  H   UNL     1      -2.383  12.511  20.746  0.00  0.00    +0.000 HD
BRANCH  24  26
ATOM     26  C   UNL     1      -2.894  13.844  22.341  0.00  0.00    +0.000 C 
BRANCH  26  27
ATOM     27  C   UNL     1      -4.375  13.868  21.913  0.00  0.00    +0.000 C 
BRANCH  27  28
ATOM     28  N   UNL     1      -5.069  12.627  22.273  0.00  0.00    +0.000 NA
ATOM     29  C   UNL     1      -6.098  12.176  21.313  0.00  0.00    +0.000 C 
ATOM     30  C   UNL     1      -7.560  12.572  21.602  0.00  0.00    +0.000 C 
ATOM     31  O   UNL     1      -7.916  12.416  22.977  0.00  0.00    +0.000 OA
ATOM     32  C   UNL     1      -7.015  13.164  23.796  0.00  0.00    +0.000 C 
ATOM     33  C   UNL     1      -5.591  12.616  23.650  0.00  0.00    +0.000 C 
ENDBRANCH  27  28
ENDBRANCH  26  27
ENDBRANCH  24  26
ENDBRANCH   7  22
TORSDOF 5
ENDMDL
