MODEL 1
REMARK VINA RESULT:      -8.4      0.000      0.000
REMARK  Name = 
REMARK  7 active torsions:
REMARK  status: ('A' for Active; 'I' for Inactive)
REMARK    1  A    between atoms: C_2  and  N_3
REMARK    2  A    between atoms: C_2  and  N_22
REMARK    3  A    between atoms: N_3  and  N_4
REMARK    4  A    between atoms: C_5  and  C_6
REMARK    5  A    between atoms: C_9  and  O_10
REMARK    6  A    between atoms: O_10  and  C_11
REMARK    7  A    between atoms: N_22  and  C_23
REMARK                            x       y       z     vdW  Elec       q    Type
REMARK                         _______ _______ _______ _____ _____    ______ ____
ROOT
ATOM      1  C   UNL     1       2.286   7.577  19.238  0.00  0.00    +0.000 A 
ATOM      2  C   UNL     1       2.372   8.259  18.020  0.00  0.00    +0.000 A 
ATOM      3  C   UNL     1       1.688   9.465  17.854  0.00  0.00    +0.000 A 
ATOM      4  C   UNL     1       0.922   9.975  18.903  0.00  0.00    +0.000 A 
ATOM      5  C   UNL     1       0.886   9.320  20.137  0.00  0.00    +0.000 A 
ATOM      6  C   UNL     1       1.551   8.106  20.301  0.00  0.00    +0.000 A 
ENDROOT
BRANCH   1   8
ATOM      7  N   UNL     1       2.315   5.165  19.485  0.00  0.00    +0.000 NA
ATOM      8  C   UNL     1       2.969   6.283  19.432  0.00  0.00    +0.000 C 
BRANCH   7   9
ATOM      9  N   UNL     1       3.107   4.057  19.616  0.00  0.00    +0.000 N 
ATOM     10  H   UNL     1       3.649   3.910  20.464  0.00  0.00    +0.000 HD
BRANCH   9  12
ATOM     11  S   UNL     1       2.141   2.256  17.983  0.00  0.00    +0.000 S 
ATOM     12  C   UNL     1       3.376   3.230  18.549  0.00  0.00    +0.000 C 
BRANCH  12  13
ATOM     13  N   UNL     1       4.654   3.365  18.055  0.00  0.00    +0.000 N 
ATOM     14  H   UNL     1       5.037   2.472  17.758  0.00  0.00    +0.000 HD
BRANCH  13  15
ATOM     15  C   UNL     1       5.476   4.501  17.958  0.00  0.00    +0.000 A 
ATOM     16  C   UNL     1       5.198   5.440  16.960  0.00  0.00    +0.000 A 
ATOM     17  C   UNL     1       5.956   6.612  16.856  0.00  0.00    +0.000 A 
ATOM     18  C   UNL     1       6.968   6.863  17.781  0.00  0.00    +0.000 A 
ATOM     19 BR   UNL     1       7.970   8.462  17.675  0.00  0.00    +0.000 Br
ATOM     20  C   UNL     1       7.234   5.950  18.797  0.00  0.00    +0.000 A 
ATOM     21  C   UNL     1       6.493   4.770  18.879  0.00  0.00    +0.000 A 
ENDBRANCH  13  15
ENDBRANCH  12  13
ENDBRANCH   9  12
ENDBRANCH   7   9
ENDBRANCH   1   8
BRANCH   4  22
ATOM     22  O   UNL     1       0.255  11.156  18.697  0.00  0.00    +0.000 OA
BRANCH  22  23
ATOM     23  C   UNL     1      -1.102  11.115  18.432  0.00  0.00    +0.000 A 
ATOM     24  C   UNL     1      -1.508  10.070  17.574  0.00  0.00    +0.000 A 
ATOM     25  C   UNL     1      -2.862   9.863  17.284  0.00  0.00    +0.000 A 
ATOM     26  C   UNL     1      -3.773  10.699  17.886  0.00  0.00    +0.000 A 
ATOM     27  C   UNL     1      -3.377  11.728  18.710  0.00  0.00    +0.000 A 
ATOM     28  C   UNL     1      -2.053  11.967  19.002  0.00  0.00    +0.000 A 
ATOM     29  O   UNL     1      -4.436  12.408  19.230  0.00  0.00    +0.000 OA
ATOM     30  C   UNL     1      -5.501  11.502  18.875  0.00  0.00    +0.000 C 
ATOM     31  O   UNL     1      -5.128  10.600  17.811  0.00  0.00    +0.000 OA
ENDBRANCH  22  23
ENDBRANCH   4  22
TORSDOF 7
ENDMDL
MODEL 2
REMARK VINA RESULT:      -8.2      0.870      1.366
REMARK  Name = 
REMARK  7 active torsions:
REMARK  status: ('A' for Active; 'I' for Inactive)
REMARK    1  A    between atoms: C_2  and  N_3
REMARK    2  A    between atoms: C_2  and  N_22
REMARK    3  A    between atoms: N_3  and  N_4
REMARK    4  A    between atoms: C_5  and  C_6
REMARK    5  A    between atoms: C_9  and  O_10
REMARK    6  A    between atoms: O_10  and  C_11
REMARK    7  A    between atoms: N_22  and  C_23
REMARK                            x       y       z     vdW  Elec       q    Type
REMARK                         _______ _______ _______ _____ _____    ______ ____
ROOT
ATOM      1  C   UNL     1       1.994   7.656  19.534  0.00  0.00    +0.000 A 
ATOM      2  C   UNL     1       2.162   8.315  18.310  0.00  0.00    +0.000 A 
ATOM      3  C   UNL     1       1.586   9.572  18.117  0.00  0.00    +0.000 A 
ATOM      4  C   UNL     1       0.842  10.156  19.144  0.00  0.00    +0.000 A 
ATOM      5  C   UNL     1       0.726   9.521  20.383  0.00  0.00    +0.000 A 
ATOM      6  C   UNL     1       1.283   8.258  20.574  0.00  0.00    +0.000 A 
ENDROOT
BRANCH   1   8
ATOM      7  N   UNL     1       1.830   5.315  20.144  0.00  0.00    +0.000 NA
ATOM      8  C   UNL     1       2.562   6.312  19.755  0.00  0.00    +0.000 C 
BRANCH   7   9
ATOM      9  N   UNL     1       2.507   4.131  20.249  0.00  0.00    +0.000 N 
ATOM     10  H   UNL     1       3.098   3.947  21.055  0.00  0.00    +0.000 HD
BRANCH   9  12
ATOM     11  S   UNL     1       1.202   2.462  18.714  0.00  0.00    +0.000 S 
ATOM     12  C   UNL     1       2.595   3.252  19.193  0.00  0.00    +0.000 C 
BRANCH  12  13
ATOM     13  N   UNL     1       3.852   3.185  18.635  0.00  0.00    +0.000 N 
ATOM     14  H   UNL     1       4.130   2.225  18.452  0.00  0.00    +0.000 HD
BRANCH  13  15
ATOM     15  C   UNL     1       4.774   4.206  18.347  0.00  0.00    +0.000 A 
ATOM     16  C   UNL     1       4.553   5.002  17.219  0.00  0.00    +0.000 A 
ATOM     17  C   UNL     1       5.415   6.064  16.919  0.00  0.00    +0.000 A 
ATOM     18  C   UNL     1       6.476   6.354  17.775  0.00  0.00    +0.000 A 
ATOM     19 BR   UNL     1       7.620   7.811  17.401  0.00  0.00    +0.000 Br
ATOM     20  C   UNL     1       6.688   5.586  18.916  0.00  0.00    +0.000 A 
ATOM     21  C   UNL     1       5.842   4.512  19.195  0.00  0.00    +0.000 A 
ENDBRANCH  13  15
ENDBRANCH  12  13
ENDBRANCH   9  12
ENDBRANCH   7   9
ENDBRANCH   1   8
BRANCH   4  22
ATOM     22  O   UNL     1       0.281  11.386  18.911  0.00  0.00    +0.000 OA
BRANCH  22  23
ATOM     23  C   UNL     1      -1.096  11.480  18.815  0.00  0.00    +0.000 A 
ATOM     24  C   UNL     1      -1.720  12.168  19.878  0.00  0.00    +0.000 A 
ATOM     25  C   UNL     1      -3.099  12.405  19.869  0.00  0.00    +0.000 A 
ATOM     26  C   UNL     1      -3.810  11.962  18.778  0.00  0.00    +0.000 A 
ATOM     27  C   UNL     1      -3.206  11.277  17.749  0.00  0.00    +0.000 A 
ATOM     28  C   UNL     1      -1.855  11.014  17.736  0.00  0.00    +0.000 A 
ATOM     29  O   UNL     1      -4.081  10.964  16.754  0.00  0.00    +0.000 OA
ATOM     30  C   UNL     1      -5.198  11.787  17.150  0.00  0.00    +0.000 C 
ATOM     31  O   UNL     1      -5.132  12.179  18.537  0.00  0.00    +0.000 OA
ENDBRANCH  22  23
ENDBRANCH   4  22
TORSDOF 7
ENDMDL
MODEL 3
REMARK VINA RESULT:      -8.1      0.904      1.426
REMARK  Name = 
REMARK  7 active torsions:
REMARK  status: ('A' for Active; 'I' for Inactive)
REMARK    1  A    between atoms: C_2  and  N_3
REMARK    2  A    between atoms: C_2  and  N_22
REMARK    3  A    between atoms: N_3  and  N_4
REMARK    4  A    between atoms: C_5  and  C_6
REMARK    5  A    between atoms: C_9  and  O_10
REMARK    6  A    between atoms: O_10  and  C_11
REMARK    7  A    between atoms: N_22  and  C_23
REMARK                            x       y       z     vdW  Elec       q    Type
REMARK                         _______ _______ _______ _____ _____    ______ ____
ROOT
ATOM      1  C   UNL     1       2.250   7.074  19.096  0.00  0.00    +0.000 A 
ATOM      2  C   UNL     1       2.321   7.871  17.949  0.00  0.00    +0.000 A 
ATOM      3  C   UNL     1       1.799   9.166  17.973  0.00  0.00    +0.000 A 
ATOM      4  C   UNL     1       1.207   9.650  19.141  0.00  0.00    +0.000 A 
ATOM      5  C   UNL     1       1.190   8.872  20.302  0.00  0.00    +0.000 A 
ATOM      6  C   UNL     1       1.692   7.571  20.276  0.00  0.00    +0.000 A 
ENDROOT
BRANCH   1   8
ATOM      7  N   UNL     1       3.268   5.141  20.150  0.00  0.00    +0.000 NA
ATOM      8  C   UNL     1       2.760   5.689  19.090  0.00  0.00    +0.000 C 
BRANCH   7   9
ATOM      9  N   UNL     1       3.644   3.837  19.981  0.00  0.00    +0.000 N 
ATOM     10  H   UNL     1       3.649   3.197  20.771  0.00  0.00    +0.000 HD
BRANCH   9  12
ATOM     11  S   UNL     1       3.256   2.664  17.675  0.00  0.00    +0.000 S 
ATOM     12  C   UNL     1       4.232   3.399  18.816  0.00  0.00    +0.000 C 
BRANCH  12  13
ATOM     13  N   UNL     1       5.577   3.682  18.737  0.00  0.00    +0.000 N 
ATOM     14  H   UNL     1       6.144   2.869  18.959  0.00  0.00    +0.000 HD
BRANCH  13  15
ATOM     15  C   UNL     1       6.236   4.890  18.454  0.00  0.00    +0.000 A 
ATOM     16  C   UNL     1       5.637   5.781  17.559  0.00  0.00    +0.000 A 
ATOM     17  C   UNL     1       6.229   7.020  17.285  0.00  0.00    +0.000 A 
ATOM     18  C   UNL     1       7.403   7.383  17.942  0.00  0.00    +0.000 A 
ATOM     19 BR   UNL     1       8.189   9.069  17.610  0.00  0.00    +0.000 Br
ATOM     20  C   UNL     1       7.993   6.516  18.857  0.00  0.00    +0.000 A 
ATOM     21  C   UNL     1       7.413   5.271  19.106  0.00  0.00    +0.000 A 
ENDBRANCH  13  15
ENDBRANCH  12  13
ENDBRANCH   9  12
ENDBRANCH   7   9
ENDBRANCH   1   8
BRANCH   4  22
ATOM     22  O   UNL     1       0.695  10.923  19.122  0.00  0.00    +0.000 OA
BRANCH  22  23
ATOM     23  C   UNL     1      -0.665  11.088  18.927  0.00  0.00    +0.000 A 
ATOM     24  C   UNL     1      -1.293  11.963  19.839  0.00  0.00    +0.000 A 
ATOM     25  C   UNL     1      -2.650  12.282  19.710  0.00  0.00    +0.000 A 
ATOM     26  C   UNL     1      -3.332  11.729  18.652  0.00  0.00    +0.000 A 
ATOM     27  C   UNL     1      -2.725  10.864  17.771  0.00  0.00    +0.000 A 
ATOM     28  C   UNL     1      -1.397  10.518  17.880  0.00  0.00    +0.000 A 
ATOM     29  O   UNL     1      -3.566  10.464  16.778  0.00  0.00    +0.000 OA
ATOM     30  C   UNL     1      -4.640  11.405  16.980  0.00  0.00    +0.000 C 
ATOM     31  O   UNL     1      -4.621  11.991  18.299  0.00  0.00    +0.000 OA
ENDBRANCH  22  23
ENDBRANCH   4  22
TORSDOF 7
ENDMDL
MODEL 4
REMARK VINA RESULT:      -8.1      7.166      9.164
REMARK  Name = 
REMARK  7 active torsions:
REMARK  status: ('A' for Active; 'I' for Inactive)
REMARK    1  A    between atoms: C_2  and  N_3
REMARK    2  A    between atoms: C_2  and  N_22
REMARK    3  A    between atoms: N_3  and  N_4
REMARK    4  A    between atoms: C_5  and  C_6
REMARK    5  A    between atoms: C_9  and  O_10
REMARK    6  A    between atoms: O_10  and  C_11
REMARK    7  A    between atoms: N_22  and  C_23
REMARK                            x       y       z     vdW  Elec       q    Type
REMARK                         _______ _______ _______ _____ _____    ______ ____
ROOT
ATOM      1  C   UNL     1       7.812   8.009  18.021  0.00  0.00    +0.000 A 
ATOM      2  C   UNL     1       8.320   7.095  18.951  0.00  0.00    +0.000 A 
ATOM      3  C   UNL     1       7.794   5.803  19.010  0.00  0.00    +0.000 A 
ATOM      4  C   UNL     1       6.762   5.438  18.143  0.00  0.00    +0.000 A 
ATOM      5  C   UNL     1       6.297   6.335  17.178  0.00  0.00    +0.000 A 
ATOM      6  C   UNL     1       6.806   7.632  17.129  0.00  0.00    +0.000 A 
ENDROOT
BRANCH   1   8
ATOM      7  N   UNL     1       9.128   9.865  18.860  0.00  0.00    +0.000 NA
ATOM      8  C   UNL     1       8.324   9.392  17.960  0.00  0.00    +0.000 C 
BRANCH   7   9
ATOM      9  N   UNL     1       9.545  11.146  18.622  0.00  0.00    +0.000 N 
ATOM     10  H   UNL     1       9.600  11.499  17.670  0.00  0.00    +0.000 HD
BRANCH   9  12
ATOM     11  S   UNL     1      11.770  11.872  19.789  0.00  0.00    +0.000 S 
ATOM     12  C   UNL     1      10.109  11.919  19.612  0.00  0.00    +0.000 C 
BRANCH  12  13
ATOM     13  N   UNL     1       9.195  12.680  20.305  0.00  0.00    +0.000 N 
ATOM     14  H   UNL     1       8.715  13.336  19.695  0.00  0.00    +0.000 HD
BRANCH  13  15
ATOM     15  C   UNL     1       8.887  12.705  21.676  0.00  0.00    +0.000 A 
ATOM     16  C   UNL     1       9.084  13.897  22.380  0.00  0.00    +0.000 A 
ATOM     17  C   UNL     1       8.743  13.986  23.735  0.00  0.00    +0.000 A 
ATOM     18  C   UNL     1       8.165  12.891  24.374  0.00  0.00    +0.000 A 
ATOM     19 BR   UNL     1       7.663  13.016  26.192  0.00  0.00    +0.000 Br
ATOM     20  C   UNL     1       7.936  11.710  23.675  0.00  0.00    +0.000 A 
ATOM     21  C   UNL     1       8.303  11.617  22.332  0.00  0.00    +0.000 A 
ENDBRANCH  13  15
ENDBRANCH  12  13
ENDBRANCH   9  12
ENDBRANCH   7   9
ENDBRANCH   1   8
BRANCH   4  22
ATOM     22  O   UNL     1       6.262   4.164  18.240  0.00  0.00    +0.000 OA
BRANCH  22  23
ATOM     23  C   UNL     1       4.904   3.997  18.439  0.00  0.00    +0.000 A 
ATOM     24  C   UNL     1       4.211   3.421  17.353  0.00  0.00    +0.000 A 
ATOM     25  C   UNL     1       2.846   3.124  17.447  0.00  0.00    +0.000 A 
ATOM     26  C   UNL     1       2.221   3.392  18.643  0.00  0.00    +0.000 A 
ATOM     27  C   UNL     1       2.892   3.967  19.698  0.00  0.00    +0.000 A 
ATOM     28  C   UNL     1       4.230   4.286  19.630  0.00  0.00    +0.000 A 
ATOM     29  O   UNL     1       2.100   4.112  20.796  0.00  0.00    +0.000 OA
ATOM     30  C   UNL     1       0.981   3.296  20.392  0.00  0.00    +0.000 C 
ATOM     31  O   UNL     1       0.934   3.087  18.965  0.00  0.00    +0.000 OA
ENDBRANCH  22  23
ENDBRANCH   4  22
TORSDOF 7
ENDMDL
MODEL 5
REMARK VINA RESULT:      -8.0      1.343      1.724
REMARK  Name = 
REMARK  7 active torsions:
REMARK  status: ('A' for Active; 'I' for Inactive)
REMARK    1  A    between atoms: C_2  and  N_3
REMARK    2  A    between atoms: C_2  and  N_22
REMARK    3  A    between atoms: N_3  and  N_4
REMARK    4  A    between atoms: C_5  and  C_6
REMARK    5  A    between atoms: C_9  and  O_10
REMARK    6  A    between atoms: O_10  and  C_11
REMARK    7  A    between atoms: N_22  and  C_23
REMARK                            x       y       z     vdW  Elec       q    Type
REMARK                         _______ _______ _______ _____ _____    ______ ____
ROOT
ATOM      1  C   UNL     1       1.911   7.666  19.706  0.00  0.00    +0.000 A 
ATOM      2  C   UNL     1       2.109   8.134  18.402  0.00  0.00    +0.000 A 
ATOM      3  C   UNL     1       1.495   9.319  17.993  0.00  0.00    +0.000 A 
ATOM      4  C   UNL     1       0.685  10.021  18.887  0.00  0.00    +0.000 A 
ATOM      5  C   UNL     1       0.537   9.582  20.205  0.00  0.00    +0.000 A 
ATOM      6  C   UNL     1       1.133   8.389  20.612  0.00  0.00    +0.000 A 
ENDROOT
BRANCH   1   8
ATOM      7  N   UNL     1       1.843   5.511  20.817  0.00  0.00    +0.000 NA
ATOM      8  C   UNL     1       2.519   6.398  20.156  0.00  0.00    +0.000 C 
BRANCH   7   9
ATOM      9  N   UNL     1       2.545   4.375  21.110  0.00  0.00    +0.000 N 
ATOM     10  H   UNL     1       3.106   4.321  21.956  0.00  0.00    +0.000 HD
BRANCH   9  12
ATOM     11  S   UNL     1       1.338   2.533  19.698  0.00  0.00    +0.000 S 
ATOM     12  C   UNL     1       2.703   3.364  20.188  0.00  0.00    +0.000 C 
BRANCH  12  13
ATOM     13  N   UNL     1       4.000   3.212  19.754  0.00  0.00    +0.000 N 
ATOM     14  H   UNL     1       4.568   2.717  20.436  0.00  0.00    +0.000 HD
BRANCH  13  15
ATOM     15  C   UNL     1       4.625   3.667  18.580  0.00  0.00    +0.000 A 
ATOM     16  C   UNL     1       5.839   4.350  18.695  0.00  0.00    +0.000 A 
ATOM     17  C   UNL     1       6.525   4.778  17.552  0.00  0.00    +0.000 A 
ATOM     18  C   UNL     1       6.013   4.483  16.290  0.00  0.00    +0.000 A 
ATOM     19 BR   UNL     1       6.953   5.019  14.740  0.00  0.00    +0.000 Br
ATOM     20  C   UNL     1       4.821   3.777  16.163  0.00  0.00    +0.000 A 
ATOM     21  C   UNL     1       4.127   3.378  17.306  0.00  0.00    +0.000 A 
ENDBRANCH  13  15
ENDBRANCH  12  13
ENDBRANCH   9  12
ENDBRANCH   7   9
ENDBRANCH   1   8
BRANCH   4  22
ATOM     22  O   UNL     1       0.088  11.175  18.443  0.00  0.00    +0.000 OA
BRANCH  22  23
ATOM     23  C   UNL     1      -1.285  11.190  18.276  0.00  0.00    +0.000 A 
ATOM     24  C   UNL     1      -1.783  10.234  17.364  0.00  0.00    +0.000 A 
ATOM     25  C   UNL     1      -3.159  10.087  17.158  0.00  0.00    +0.000 A 
ATOM     26  C   UNL     1      -3.999  10.890  17.893  0.00  0.00    +0.000 A 
ATOM     27  C   UNL     1      -3.514  11.833  18.771  0.00  0.00    +0.000 A 
ATOM     28  C   UNL     1      -2.166  12.013  18.984  0.00  0.00    +0.000 A 
ATOM     29  O   UNL     1      -4.512  12.492  19.422  0.00  0.00    +0.000 OA
ATOM     30  C   UNL     1      -5.627  11.646  19.071  0.00  0.00    +0.000 C 
ATOM     31  O   UNL     1      -5.359  10.832  17.910  0.00  0.00    +0.000 OA
ENDBRANCH  22  23
ENDBRANCH   4  22
TORSDOF 7
ENDMDL
MODEL 6
REMARK VINA RESULT:      -8.0      2.742      3.759
REMARK  Name = 
REMARK  7 active torsions:
REMARK  status: ('A' for Active; 'I' for Inactive)
REMARK    1  A    between atoms: C_2  and  N_3
REMARK    2  A    between atoms: C_2  and  N_22
REMARK    3  A    between atoms: N_3  and  N_4
REMARK    4  A    between atoms: C_5  and  C_6
REMARK    5  A    between atoms: C_9  and  O_10
REMARK    6  A    between atoms: O_10  and  C_11
REMARK    7  A    between atoms: N_22  and  C_23
REMARK                            x       y       z     vdW  Elec       q    Type
REMARK                         _______ _______ _______ _____ _____    ______ ____
ROOT
ATOM      1  C   UNL     1       3.353   7.665  18.013  0.00  0.00    +0.000 A 
ATOM      2  C   UNL     1       2.569   7.173  19.063  0.00  0.00    +0.000 A 
ATOM      3  C   UNL     1       1.527   7.950  19.570  0.00  0.00    +0.000 A 
ATOM      4  C   UNL     1       1.280   9.213  19.028  0.00  0.00    +0.000 A 
ATOM      5  C   UNL     1       2.027   9.676  17.942  0.00  0.00    +0.000 A 
ATOM      6  C   UNL     1       3.081   8.911  17.445  0.00  0.00    +0.000 A 
ENDROOT
BRANCH   1   8
ATOM      7  N   UNL     1       4.607   6.630  16.214  0.00  0.00    +0.000 NA
ATOM      8  C   UNL     1       4.484   6.881  17.480  0.00  0.00    +0.000 C 
BRANCH   7   9
ATOM      9  N   UNL     1       5.740   5.936  15.887  0.00  0.00    +0.000 N 
ATOM     10  H   UNL     1       6.612   6.429  15.713  0.00  0.00    +0.000 HD
BRANCH   9  12
ATOM     11  S   UNL     1       5.858   4.174  13.957  0.00  0.00    +0.000 S 
ATOM     12  C   UNL     1       5.701   4.598  15.567  0.00  0.00    +0.000 C 
BRANCH  12  13
ATOM     13  N   UNL     1       5.581   3.772  16.662  0.00  0.00    +0.000 N 
ATOM     14  H   UNL     1       6.415   3.208  16.798  0.00  0.00    +0.000 HD
BRANCH  13  15
ATOM     15  C   UNL     1       4.502   3.578  17.540  0.00  0.00    +0.000 A 
ATOM     16  C   UNL     1       4.749   3.611  18.915  0.00  0.00    +0.000 A 
ATOM     17  C   UNL     1       3.698   3.474  19.830  0.00  0.00    +0.000 A 
ATOM     18  C   UNL     1       2.391   3.345  19.364  0.00  0.00    +0.000 A 
ATOM     19 BR   UNL     1       0.960   3.201  20.591  0.00  0.00    +0.000 Br
ATOM     20  C   UNL     1       2.129   3.341  17.997  0.00  0.00    +0.000 A 
ATOM     21  C   UNL     1       3.184   3.450  17.090  0.00  0.00    +0.000 A 
ENDBRANCH  13  15
ENDBRANCH  12  13
ENDBRANCH   9  12
ENDBRANCH   7   9
ENDBRANCH   1   8
BRANCH   4  22
ATOM     22  O   UNL     1       0.254   9.952  19.563  0.00  0.00    +0.000 OA
BRANCH  22  23
ATOM     23  C   UNL     1      -0.843  10.235  18.769  0.00  0.00    +0.000 A 
ATOM     24  C   UNL     1      -1.657  11.289  19.236  0.00  0.00    +0.000 A 
ATOM     25  C   UNL     1      -2.756  11.732  18.491  0.00  0.00    +0.000 A 
ATOM     26  C   UNL     1      -2.991  11.118  17.283  0.00  0.00    +0.000 A 
ATOM     27  C   UNL     1      -2.207  10.080  16.834  0.00  0.00    +0.000 A 
ATOM     28  C   UNL     1      -1.130   9.610  17.551  0.00  0.00    +0.000 A 
ATOM     29  O   UNL     1      -2.588   9.641  15.602  0.00  0.00    +0.000 OA
ATOM     30  C   UNL     1      -3.481  10.712  15.233  0.00  0.00    +0.000 C 
ATOM     31  O   UNL     1      -3.942  11.467  16.373  0.00  0.00    +0.000 OA
ENDBRANCH  22  23
ENDBRANCH   4  22
TORSDOF 7
ENDMDL
MODEL 7
REMARK VINA RESULT:      -8.0      1.146      1.864
REMARK  Name = 
REMARK  7 active torsions:
REMARK  status: ('A' for Active; 'I' for Inactive)
REMARK    1  A    between atoms: C_2  and  N_3
REMARK    2  A    between atoms: C_2  and  N_22
REMARK    3  A    between atoms: N_3  and  N_4
REMARK    4  A    between atoms: C_5  and  C_6
REMARK    5  A    between atoms: C_9  and  O_10
REMARK    6  A    between atoms: O_10  and  C_11
REMARK    7  A    between atoms: N_22  and  C_23
REMARK                            x       y       z     vdW  Elec       q    Type
REMARK                         _______ _______ _______ _____ _____    ______ ____
ROOT
ATOM      1  C   UNL     1       2.191   6.634  19.847  0.00  0.00    +0.000 A 
ATOM      2  C   UNL     1       1.511   7.422  20.783  0.00  0.00    +0.000 A 
ATOM      3  C   UNL     1       1.112   8.715  20.439  0.00  0.00    +0.000 A 
ATOM      4  C   UNL     1       1.402   9.211  19.166  0.00  0.00    +0.000 A 
ATOM      5  C   UNL     1       2.029   8.402  18.216  0.00  0.00    +0.000 A 
ATOM      6  C   UNL     1       2.446   7.117  18.562  0.00  0.00    +0.000 A 
ENDROOT
BRANCH   1   8
ATOM      7  N   UNL     1       2.348   4.244  19.474  0.00  0.00    +0.000 NA
ATOM      8  C   UNL     1       2.656   5.277  20.193  0.00  0.00    +0.000 C 
BRANCH   7   9
ATOM      9  N   UNL     1       2.905   3.072  19.909  0.00  0.00    +0.000 N 
ATOM     10  H   UNL     1       2.455   2.531  20.643  0.00  0.00    +0.000 HD
BRANCH   9  12
ATOM     11  S   UNL     1       4.967   1.574  20.499  0.00  0.00    +0.000 S 
ATOM     12  C   UNL     1       4.180   2.698  19.545  0.00  0.00    +0.000 C 
BRANCH  12  13
ATOM     13  N   UNL     1       4.616   3.290  18.382  0.00  0.00    +0.000 N 
ATOM     14  H   UNL     1       4.303   2.779  17.561  0.00  0.00    +0.000 HD
BRANCH  13  15
ATOM     15  C   UNL     1       5.434   4.416  18.186  0.00  0.00    +0.000 A 
ATOM     16  C   UNL     1       5.163   5.254  17.101  0.00  0.00    +0.000 A 
ATOM     17  C   UNL     1       5.918   6.415  16.894  0.00  0.00    +0.000 A 
ATOM     18  C   UNL     1       6.918   6.759  17.801  0.00  0.00    +0.000 A 
ATOM     19 BR   UNL     1       7.914   8.346  17.554  0.00  0.00    +0.000 Br
ATOM     20  C   UNL     1       7.176   5.948  18.902  0.00  0.00    +0.000 A 
ATOM     21  C   UNL     1       6.440   4.777  19.088  0.00  0.00    +0.000 A 
ENDBRANCH  13  15
ENDBRANCH  12  13
ENDBRANCH   9  12
ENDBRANCH   7   9
ENDBRANCH   1   8
BRANCH   4  22
ATOM     22  O   UNL     1       1.005  10.491  18.870  0.00  0.00    +0.000 OA
BRANCH  22  23
ATOM     23  C   UNL     1      -0.345  10.745  18.704  0.00  0.00    +0.000 A 
ATOM     24  C   UNL     1      -0.864  11.763  19.532  0.00  0.00    +0.000 A 
ATOM     25  C   UNL     1      -2.196  12.177  19.413  0.00  0.00    +0.000 A 
ATOM     26  C   UNL     1      -2.963  11.570  18.447  0.00  0.00    +0.000 A 
ATOM     27  C   UNL     1      -2.462  10.567  17.649  0.00  0.00    +0.000 A 
ATOM     28  C   UNL     1      -1.162  10.127  17.752  0.00  0.00    +0.000 A 
ATOM     29  O   UNL     1      -3.374  10.131  16.735  0.00  0.00    +0.000 OA
ATOM     30  C   UNL     1      -4.361  11.174  16.867  0.00  0.00    +0.000 C 
ATOM     31  O   UNL     1      -4.241  11.897  18.110  0.00  0.00    +0.000 OA
ENDBRANCH  22  23
ENDBRANCH   4  22
TORSDOF 7
ENDMDL
MODEL 8
REMARK VINA RESULT:      -7.9      1.448      1.822
REMARK  Name = 
REMARK  7 active torsions:
REMARK  status: ('A' for Active; 'I' for Inactive)
REMARK    1  A    between atoms: C_2  and  N_3
REMARK    2  A    between atoms: C_2  and  N_22
REMARK    3  A    between atoms: N_3  and  N_4
REMARK    4  A    between atoms: C_5  and  C_6
REMARK    5  A    between atoms: C_9  and  O_10
REMARK    6  A    between atoms: O_10  and  C_11
REMARK    7  A    between atoms: N_22  and  C_23
REMARK                            x       y       z     vdW  Elec       q    Type
REMARK                         _______ _______ _______ _____ _____    ______ ____
ROOT
ATOM      1  C   UNL     1       2.169   7.406  19.567  0.00  0.00    +0.000 A 
ATOM      2  C   UNL     1       1.443   8.120  20.527  0.00  0.00    +0.000 A 
ATOM      3  C   UNL     1       0.841   9.331  20.179  0.00  0.00    +0.000 A 
ATOM      4  C   UNL     1       0.976   9.820  18.879  0.00  0.00    +0.000 A 
ATOM      5  C   UNL     1       1.652   9.077  17.908  0.00  0.00    +0.000 A 
ATOM      6  C   UNL     1       2.271   7.877  18.256  0.00  0.00    +0.000 A 
ENDROOT
BRANCH   1   8
ATOM      7  N   UNL     1       2.299   4.988  19.688  0.00  0.00    +0.000 NA
ATOM      8  C   UNL     1       2.846   6.141  19.914  0.00  0.00    +0.000 C 
BRANCH   7   9
ATOM      9  N   UNL     1       3.085   3.920  20.024  0.00  0.00    +0.000 N 
ATOM     10  H   UNL     1       3.199   3.651  20.997  0.00  0.00    +0.000 HD
BRANCH   9  12
ATOM     11  S   UNL     1       3.505   1.790  18.563  0.00  0.00    +0.000 S 
ATOM     12  C   UNL     1       3.916   3.317  19.106  0.00  0.00    +0.000 C 
BRANCH  12  13
ATOM     13  N   UNL     1       4.975   4.106  18.719  0.00  0.00    +0.000 N 
ATOM     14  H   UNL     1       5.313   4.681  19.486  0.00  0.00    +0.000 HD
BRANCH  13  15
ATOM     15  C   UNL     1       5.588   4.253  17.463  0.00  0.00    +0.000 A 
ATOM     16  C   UNL     1       4.780   4.241  16.323  0.00  0.00    +0.000 A 
ATOM     17  C   UNL     1       5.338   4.436  15.054  0.00  0.00    +0.000 A 
ATOM     18  C   UNL     1       6.704   4.685  14.932  0.00  0.00    +0.000 A 
ATOM     19 BR   UNL     1       7.460   4.990  13.227  0.00  0.00    +0.000 Br
ATOM     20  C   UNL     1       7.513   4.729  16.063  0.00  0.00    +0.000 A 
ATOM     21  C   UNL     1       6.956   4.506  17.323  0.00  0.00    +0.000 A 
ENDBRANCH  13  15
ENDBRANCH  12  13
ENDBRANCH   9  12
ENDBRANCH   7   9
ENDBRANCH   1   8
BRANCH   4  22
ATOM     22  O   UNL     1       0.380  11.020  18.579  0.00  0.00    +0.000 OA
BRANCH  22  23
ATOM     23  C   UNL     1      -0.985  11.046  18.361  0.00  0.00    +0.000 A 
ATOM     24  C   UNL     1      -1.459  10.083  17.445  0.00  0.00    +0.000 A 
ATOM     25  C   UNL     1      -2.829   9.947  17.190  0.00  0.00    +0.000 A 
ATOM     26  C   UNL     1      -3.687  10.769  17.882  0.00  0.00    +0.000 A 
ATOM     27  C   UNL     1      -3.225  11.719  18.764  0.00  0.00    +0.000 A 
ATOM     28  C   UNL     1      -1.884  11.889  19.024  0.00  0.00    +0.000 A 
ATOM     29  O   UNL     1      -4.239  12.397  19.369  0.00  0.00    +0.000 OA
ATOM     30  C   UNL     1      -5.349  11.558  18.988  0.00  0.00    +0.000 C 
ATOM     31  O   UNL     1      -5.047  10.725  17.849  0.00  0.00    +0.000 OA
ENDBRANCH  22  23
ENDBRANCH   4  22
TORSDOF 7
ENDMDL
MODEL 9
REMARK VINA RESULT:      -7.9      6.780      9.056
REMARK  Name = 
REMARK  7 active torsions:
REMARK  status: ('A' for Active; 'I' for Inactive)
REMARK    1  A    between atoms: C_2  and  N_3
REMARK    2  A    between atoms: C_2  and  N_22
REMARK    3  A    between atoms: N_3  and  N_4
REMARK    4  A    between atoms: C_5  and  C_6
REMARK    5  A    between atoms: C_9  and  O_10
REMARK    6  A    between atoms: O_10  and  C_11
REMARK    7  A    between atoms: N_22  and  C_23
REMARK                            x       y       z     vdW  Elec       q    Type
REMARK                         _______ _______ _______ _____ _____    ______ ____
ROOT
ATOM      1  C   UNL     1       7.551   7.010  17.992  0.00  0.00    +0.000 A 
ATOM      2  C   UNL     1       7.516   5.694  18.466  0.00  0.00    +0.000 A 
ATOM      3  C   UNL     1       6.520   4.823  18.019  0.00  0.00    +0.000 A 
ATOM      4  C   UNL     1       5.565   5.277  17.108  0.00  0.00    +0.000 A 
ATOM      5  C   UNL     1       5.637   6.574  16.593  0.00  0.00    +0.000 A 
ATOM      6  C   UNL     1       6.618   7.452  17.051  0.00  0.00    +0.000 A 
ENDROOT
BRANCH   1   8
ATOM      7  N   UNL     1       8.393   9.245  18.409  0.00  0.00    +0.000 NA
ATOM      8  C   UNL     1       8.570   7.962  18.472  0.00  0.00    +0.000 C 
BRANCH   7   9
ATOM      9  N   UNL     1       9.415   9.979  18.946  0.00  0.00    +0.000 N 
ATOM     10  H   UNL     1      10.257   9.519  19.282  0.00  0.00    +0.000 HD
BRANCH   9  12
ATOM     11  S   UNL     1       9.435  11.768  20.855  0.00  0.00    +0.000 S 
ATOM     12  C   UNL     1       9.262  11.312  19.256  0.00  0.00    +0.000 C 
BRANCH  12  13
ATOM     13  N   UNL     1       9.027  12.110  18.159  0.00  0.00    +0.000 N 
ATOM     14  H   UNL     1       8.561  11.596  17.416  0.00  0.00    +0.000 HD
BRANCH  13  15
ATOM     15  C   UNL     1       9.370  13.451  17.920  0.00  0.00    +0.000 A 
ATOM     16  C   UNL     1       8.467  14.447  18.302  0.00  0.00    +0.000 A 
ATOM     17  C   UNL     1       8.786  15.799  18.132  0.00  0.00    +0.000 A 
ATOM     18  C   UNL     1      10.031  16.154  17.616  0.00  0.00    +0.000 A 
ATOM     19 BR   UNL     1      10.487  17.978  17.421  0.00  0.00    +0.000 Br
ATOM     20  C   UNL     1      10.950  15.172  17.259  0.00  0.00    +0.000 A 
ATOM     21  C   UNL     1      10.615  13.825  17.405  0.00  0.00    +0.000 A 
ENDBRANCH  13  15
ENDBRANCH  12  13
ENDBRANCH   9  12
ENDBRANCH   7   9
ENDBRANCH   1   8
BRANCH   4  22
ATOM     22  O   UNL     1       4.595   4.396  16.702  0.00  0.00    +0.000 OA
BRANCH  22  23
ATOM     23  C   UNL     1       3.736   3.872  17.652  0.00  0.00    +0.000 A 
ATOM     24  C   UNL     1       3.657   2.463  17.669  0.00  0.00    +0.000 A 
ATOM     25  C   UNL     1       2.886   1.797  18.629  0.00  0.00    +0.000 A 
ATOM     26  C   UNL     1       2.234   2.569  19.562  0.00  0.00    +0.000 A 
ATOM     27  C   UNL     1       2.297   3.943  19.537  0.00  0.00    +0.000 A 
ATOM     28  C   UNL     1       3.033   4.627  18.596  0.00  0.00    +0.000 A 
ATOM     29  O   UNL     1       1.613   4.510  20.569  0.00  0.00    +0.000 OA
ATOM     30  C   UNL     1       1.387   3.337  21.379  0.00  0.00    +0.000 C 
ATOM     31  O   UNL     1       1.521   2.112  20.628  0.00  0.00    +0.000 OA
ENDBRANCH  22  23
ENDBRANCH   4  22
TORSDOF 7
ENDMDL
