MODEL 1
REMARK VINA RESULT:      -8.6      0.000      0.000
REMARK  Name = 
REMARK  4 active torsions:
REMARK  status: ('A' for Active; 'I' for Inactive)
REMARK    1  A    between atoms: C_2  and  C_3
REMARK    2  A    between atoms: C_3  and  N_4
REMARK    3  A    between atoms: C_5  and  C_6
REMARK    4  A    between atoms: N_22  and  C_23
REMARK                            x       y       z     vdW  Elec       q    Type
REMARK                         _______ _______ _______ _____ _____    ______ ____
ROOT
ATOM      1  C   UNL     1       3.597   6.513  18.849  0.00  0.00    +0.000 C 
ENDROOT
BRANCH   1   2
ATOM      2  N   UNL     1       3.930   5.367  17.998  0.00  0.00    +0.000 N 
ATOM      3  C   UNL     1       3.444   4.077  18.240  0.00  0.00    +0.000 A 
ATOM      4  C   UNL     1       3.939   3.271  17.235  0.00  0.00    +0.000 A 
ATOM      5  C   UNL     1       4.756   4.042  16.379  0.00  0.00    +0.000 A 
ATOM      6  C   UNL     1       5.505   3.721  15.226  0.00  0.00    +0.000 A 
ATOM      7  C   UNL     1       6.236   4.718  14.581  0.00  0.00    +0.000 A 
ATOM      8 CL   UNL     1       7.163   4.332  13.184  0.00  0.00    +0.000 Cl
ATOM      9  C   UNL     1       6.217   6.020  15.052  0.00  0.00    +0.000 A 
ATOM     10  C   UNL     1       5.465   6.357  16.183  0.00  0.00    +0.000 A 
ATOM     11  C   UNL     1       4.740   5.356  16.861  0.00  0.00    +0.000 A 
BRANCH   3  12
ATOM     12  C   UNL     1       2.599   3.652  19.346  0.00  0.00    +0.000 A 
ATOM     13  C   UNL     1       1.228   3.749  19.509  0.00  0.00    +0.000 A 
ATOM     14  C   UNL     1       0.767   3.222  20.752  0.00  0.00    +0.000 A 
ATOM     15  C   UNL     1       1.791   2.686  21.494  0.00  0.00    +0.000 A 
ATOM     16  S   UNL     1       3.297   2.856  20.712  0.00  0.00    +0.000 S 
ENDBRANCH   3  12
ENDBRANCH   1   2
BRANCH   1  18
ATOM     17  O   UNL     1       2.995   7.959  17.071  0.00  0.00    +0.000 OA
ATOM     18  C   UNL     1       2.791   7.634  18.246  0.00  0.00    +0.000 C 
ATOM     19  N   UNL     1       1.854   8.291  19.021  0.00  0.00    +0.000 N 
ATOM     20  C   UNL     1       1.442   7.924  20.388  0.00  0.00    +0.000 C 
ATOM     21  C   UNL     1       1.364   9.144  21.331  0.00  0.00    +0.000 C 
ATOM     22  N   UNL     1       0.569  10.198  20.693  0.00  0.00    +0.000 N 
ATOM     23  C   UNL     1       1.057  10.625  19.374  0.00  0.00    +0.000 C 
ATOM     24  C   UNL     1       1.098   9.411  18.431  0.00  0.00    +0.000 C 
BRANCH  22  25
ATOM     25  C   UNL     1      -0.399  10.912  21.368  0.00  0.00    +0.000 A 
ATOM     26  C   UNL     1      -0.763  10.615  22.689  0.00  0.00    +0.000 A 
ATOM     27  C   UNL     1      -1.778  11.317  23.347  0.00  0.00    +0.000 A 
ATOM     28  C   UNL     1      -2.461  12.336  22.691  0.00  0.00    +0.000 A 
ATOM     29  C   UNL     1      -2.120  12.655  21.383  0.00  0.00    +0.000 A 
ATOM     30  C   UNL     1      -1.099  11.952  20.736  0.00  0.00    +0.000 A 
ENDBRANCH  22  25
ENDBRANCH   1  18
TORSDOF 4
ENDMDL
MODEL 2
REMARK VINA RESULT:      -8.2      0.816      1.211
REMARK  Name = 
REMARK  4 active torsions:
REMARK  status: ('A' for Active; 'I' for Inactive)
REMARK    1  A    between atoms: C_2  and  C_3
REMARK    2  A    between atoms: C_3  and  N_4
REMARK    3  A    between atoms: C_5  and  C_6
REMARK    4  A    between atoms: N_22  and  C_23
REMARK                            x       y       z     vdW  Elec       q    Type
REMARK                         _______ _______ _______ _____ _____    ______ ____
ROOT
ATOM      1  C   UNL     1       3.369   6.468  19.169  0.00  0.00    +0.000 C 
ENDROOT
BRANCH   1   2
ATOM      2  N   UNL     1       3.811   5.371  18.304  0.00  0.00    +0.000 N 
ATOM      3  C   UNL     1       3.499   4.031  18.561  0.00  0.00    +0.000 A 
ATOM      4  C   UNL     1       4.054   3.291  17.537  0.00  0.00    +0.000 A 
ATOM      5  C   UNL     1       4.737   4.155  16.653  0.00  0.00    +0.000 A 
ATOM      6  C   UNL     1       5.478   3.928  15.473  0.00  0.00    +0.000 A 
ATOM      7  C   UNL     1       6.054   5.007  14.804  0.00  0.00    +0.000 A 
ATOM      8 CL   UNL     1       6.971   4.736  13.373  0.00  0.00    +0.000 Cl
ATOM      9  C   UNL     1       5.890   6.298  15.279  0.00  0.00    +0.000 A 
ATOM     10  C   UNL     1       5.143   6.541  16.437  0.00  0.00    +0.000 A 
ATOM     11  C   UNL     1       4.575   5.458  17.139  0.00  0.00    +0.000 A 
BRANCH   3  12
ATOM     12  C   UNL     1       2.755   3.506  19.696  0.00  0.00    +0.000 A 
ATOM     13  C   UNL     1       3.203   3.062  20.928  0.00  0.00    +0.000 A 
ATOM     14  C   UNL     1       2.155   2.605  21.781  0.00  0.00    +0.000 A 
ATOM     15  C   UNL     1       0.918   2.756  21.201  0.00  0.00    +0.000 A 
ATOM     16  S   UNL     1       1.031   3.405  19.628  0.00  0.00    +0.000 S 
ENDBRANCH   3  12
ENDBRANCH   1   2
BRANCH   1  18
ATOM     17  O   UNL     1       2.632   7.777  17.337  0.00  0.00    +0.000 OA
ATOM     18  C   UNL     1       2.550   7.572  18.553  0.00  0.00    +0.000 C 
ATOM     19  N   UNL     1       1.737   8.348  19.359  0.00  0.00    +0.000 N 
ATOM     20  C   UNL     1       1.468   8.129  20.792  0.00  0.00    +0.000 C 
ATOM     21  C   UNL     1       1.553   9.433  21.616  0.00  0.00    +0.000 C 
ATOM     22  N   UNL     1       0.736  10.467  20.969  0.00  0.00    +0.000 N 
ATOM     23  C   UNL     1       1.090  10.744  19.570  0.00  0.00    +0.000 C 
ATOM     24  C   UNL     1       0.969   9.448  18.750  0.00  0.00    +0.000 C 
BRANCH  22  25
ATOM     25  C   UNL     1      -0.115  11.290  21.674  0.00  0.00    +0.000 A 
ATOM     26  C   UNL     1      -0.045  12.688  21.591  0.00  0.00    +0.000 A 
ATOM     27  C   UNL     1      -0.885  13.513  22.346  0.00  0.00    +0.000 A 
ATOM     28  C   UNL     1      -1.817  12.953  23.213  0.00  0.00    +0.000 A 
ATOM     29  C   UNL     1      -1.912  11.570  23.315  0.00  0.00    +0.000 A 
ATOM     30  C   UNL     1      -1.073  10.755  22.551  0.00  0.00    +0.000 A 
ENDBRANCH  22  25
ENDBRANCH   1  18
TORSDOF 4
ENDMDL
MODEL 3
REMARK VINA RESULT:      -7.8      4.556      9.390
REMARK  Name = 
REMARK  4 active torsions:
REMARK  status: ('A' for Active; 'I' for Inactive)
REMARK    1  A    between atoms: C_2  and  C_3
REMARK    2  A    between atoms: C_3  and  N_4
REMARK    3  A    between atoms: C_5  and  C_6
REMARK    4  A    between atoms: N_22  and  C_23
REMARK                            x       y       z     vdW  Elec       q    Type
REMARK                         _______ _______ _______ _____ _____    ______ ____
ROOT
ATOM      1  C   UNL     1      -1.417  12.241  20.325  0.00  0.00    +0.000 C 
ENDROOT
BRANCH   1   2
ATOM      2  N   UNL     1      -2.648  12.136  19.534  0.00  0.00    +0.000 N 
ATOM      3  C   UNL     1      -3.884  12.603  19.992  0.00  0.00    +0.000 A 
ATOM      4  C   UNL     1      -4.798  12.361  18.986  0.00  0.00    +0.000 A 
ATOM      5  C   UNL     1      -4.147  11.719  17.910  0.00  0.00    +0.000 A 
ATOM      6  C   UNL     1      -4.603  11.244  16.661  0.00  0.00    +0.000 A 
ATOM      7  C   UNL     1      -3.704  10.634  15.787  0.00  0.00    +0.000 A 
ATOM      8 CL   UNL     1      -4.256  10.040  14.269  0.00  0.00    +0.000 Cl
ATOM      9  C   UNL     1      -2.368  10.507  16.128  0.00  0.00    +0.000 A 
ATOM     10  C   UNL     1      -1.897  10.990  17.354  0.00  0.00    +0.000 A 
ATOM     11  C   UNL     1      -2.798  11.587  18.260  0.00  0.00    +0.000 A 
BRANCH   3  12
ATOM     12  C   UNL     1      -4.169  13.207  21.285  0.00  0.00    +0.000 A 
ATOM     13  C   UNL     1      -4.449  12.614  22.504  0.00  0.00    +0.000 A 
ATOM     14  C   UNL     1      -4.688  13.555  23.550  0.00  0.00    +0.000 A 
ATOM     15  C   UNL     1      -4.536  14.851  23.119  0.00  0.00    +0.000 A 
ATOM     16  S   UNL     1      -4.151  14.927  21.460  0.00  0.00    +0.000 S 
ENDBRANCH   3  12
ENDBRANCH   1   2
BRANCH   1  18
ATOM     17  O   UNL     1      -1.377  11.210  22.458  0.00  0.00    +0.000 OA
ATOM     18  C   UNL     1      -1.078  11.112  21.263  0.00  0.00    +0.000 C 
ATOM     19  N   UNL     1      -0.422   9.997  20.775  0.00  0.00    +0.000 N 
ATOM     20  C   UNL     1      -0.118   9.715  19.360  0.00  0.00    +0.000 C 
ATOM     21  C   UNL     1       1.329   9.215  19.155  0.00  0.00    +0.000 C 
ATOM     22  N   UNL     1       1.599   8.118  20.092  0.00  0.00    +0.000 N 
ATOM     23  C   UNL     1       1.390   8.452  21.507  0.00  0.00    +0.000 C 
ATOM     24  C   UNL     1      -0.063   8.915  21.709  0.00  0.00    +0.000 C 
BRANCH  22  25
ATOM     25  C   UNL     1       2.238   6.957  19.712  0.00  0.00    +0.000 A 
ATOM     26  C   UNL     1       2.146   5.774  20.457  0.00  0.00    +0.000 A 
ATOM     27  C   UNL     1       2.836   4.614  20.085  0.00  0.00    +0.000 A 
ATOM     28  C   UNL     1       3.645   4.617  18.955  0.00  0.00    +0.000 A 
ATOM     29  C   UNL     1       3.754   5.774  18.194  0.00  0.00    +0.000 A 
ATOM     30  C   UNL     1       3.055   6.925  18.570  0.00  0.00    +0.000 A 
ENDBRANCH  22  25
ENDBRANCH   1  18
TORSDOF 4
ENDMDL
MODEL 4
REMARK VINA RESULT:      -7.7      4.334      8.889
REMARK  Name = 
REMARK  4 active torsions:
REMARK  status: ('A' for Active; 'I' for Inactive)
REMARK    1  A    between atoms: C_2  and  C_3
REMARK    2  A    between atoms: C_3  and  N_4
REMARK    3  A    between atoms: C_5  and  C_6
REMARK    4  A    between atoms: N_22  and  C_23
REMARK                            x       y       z     vdW  Elec       q    Type
REMARK                         _______ _______ _______ _____ _____    ______ ____
ROOT
ATOM      1  C   UNL     1       0.590  10.540  19.539  0.00  0.00    +0.000 C 
ENDROOT
BRANCH   1   2
ATOM      2  N   UNL     1       0.387  11.941  19.160  0.00  0.00    +0.000 N 
ATOM      3  C   UNL     1      -0.750  12.382  18.474  0.00  0.00    +0.000 A 
ATOM      4  C   UNL     1      -0.611  13.746  18.311  0.00  0.00    +0.000 A 
ATOM      5  C   UNL     1       0.620  14.159  18.866  0.00  0.00    +0.000 A 
ATOM      6  C   UNL     1       1.255  15.416  18.958  0.00  0.00    +0.000 A 
ATOM      7  C   UNL     1       2.503  15.514  19.573  0.00  0.00    +0.000 A 
ATOM      8 CL   UNL     1       3.289  17.041  19.676  0.00  0.00    +0.000 Cl
ATOM      9  C   UNL     1       3.112  14.392  20.109  0.00  0.00    +0.000 A 
ATOM     10  C   UNL     1       2.487  13.142  20.042  0.00  0.00    +0.000 A 
ATOM     11  C   UNL     1       1.237  13.022  19.401  0.00  0.00    +0.000 A 
BRANCH   3  12
ATOM     12  C   UNL     1      -1.859  11.568  18.000  0.00  0.00    +0.000 A 
ATOM     13  C   UNL     1      -1.890  10.583  17.028  0.00  0.00    +0.000 A 
ATOM     14  C   UNL     1      -3.185  10.016  16.837  0.00  0.00    +0.000 A 
ATOM     15  C   UNL     1      -4.110  10.546  17.705  0.00  0.00    +0.000 A 
ATOM     16  S   UNL     1      -3.426  11.744  18.707  0.00  0.00    +0.000 S 
ENDBRANCH   3  12
ENDBRANCH   1   2
BRANCH   1  18
ATOM     17  O   UNL     1       1.712  10.066  17.507  0.00  0.00    +0.000 OA
ATOM     18  C   UNL     1       1.458   9.683  18.654  0.00  0.00    +0.000 C 
ATOM     19  N   UNL     1       1.938   8.478  19.133  0.00  0.00    +0.000 N 
ATOM     20  C   UNL     1       1.801   7.972  20.510  0.00  0.00    +0.000 C 
ATOM     21  C   UNL     1       1.376   6.487  20.555  0.00  0.00    +0.000 C 
ATOM     22  N   UNL     1       2.256   5.706  19.678  0.00  0.00    +0.000 N 
ATOM     23  C   UNL     1       2.298   6.165  18.282  0.00  0.00    +0.000 C 
ATOM     24  C   UNL     1       2.756   7.633  18.244  0.00  0.00    +0.000 C 
BRANCH  22  25
ATOM     25  C   UNL     1       2.798   4.497  20.055  0.00  0.00    +0.000 A 
ATOM     26  C   UNL     1       3.903   3.934  19.401  0.00  0.00    +0.000 A 
ATOM     27  C   UNL     1       4.416   2.684  19.766  0.00  0.00    +0.000 A 
ATOM     28  C   UNL     1       3.824   1.961  20.796  0.00  0.00    +0.000 A 
ATOM     29  C   UNL     1       2.730   2.494  21.465  0.00  0.00    +0.000 A 
ATOM     30  C   UNL     1       2.230   3.747  21.098  0.00  0.00    +0.000 A 
ENDBRANCH  22  25
ENDBRANCH   1  18
TORSDOF 4
ENDMDL
MODEL 5
REMARK VINA RESULT:      -7.6      4.948     10.545
REMARK  Name = 
REMARK  4 active torsions:
REMARK  status: ('A' for Active; 'I' for Inactive)
REMARK    1  A    between atoms: C_2  and  C_3
REMARK    2  A    between atoms: C_3  and  N_4
REMARK    3  A    between atoms: C_5  and  C_6
REMARK    4  A    between atoms: N_22  and  C_23
REMARK                            x       y       z     vdW  Elec       q    Type
REMARK                         _______ _______ _______ _____ _____    ______ ____
ROOT
ATOM      1  C   UNL     1      -1.096  12.826  21.284  0.00  0.00    +0.000 C 
ENDROOT
BRANCH   1   2
ATOM      2  N   UNL     1      -2.492  13.258  21.166  0.00  0.00    +0.000 N 
ATOM      3  C   UNL     1      -3.073  14.189  22.033  0.00  0.00    +0.000 A 
ATOM      4  C   UNL     1      -4.375  14.368  21.610  0.00  0.00    +0.000 A 
ATOM      5  C   UNL     1      -4.623  13.531  20.499  0.00  0.00    +0.000 A 
ATOM      6  C   UNL     1      -5.768  13.311  19.703  0.00  0.00    +0.000 A 
ATOM      7  C   UNL     1      -5.710  12.397  18.652  0.00  0.00    +0.000 A 
ATOM      8 CL   UNL     1      -7.106  12.113  17.687  0.00  0.00    +0.000 Cl
ATOM      9  C   UNL     1      -4.535  11.719  18.374  0.00  0.00    +0.000 A 
ATOM     10  C   UNL     1      -3.386  11.940  19.142  0.00  0.00    +0.000 A 
ATOM     11  C   UNL     1      -3.435  12.843  20.224  0.00  0.00    +0.000 A 
BRANCH   3  12
ATOM     12  C   UNL     1      -2.444  14.835  23.176  0.00  0.00    +0.000 A 
ATOM     13  C   UNL     1      -2.470  14.495  24.517  0.00  0.00    +0.000 A 
ATOM     14  C   UNL     1      -1.731  15.393  25.343  0.00  0.00    +0.000 A 
ATOM     15  C   UNL     1      -1.112  16.376  24.608  0.00  0.00    +0.000 A 
ATOM     16  S   UNL     1      -1.458  16.235  22.944  0.00  0.00    +0.000 S 
ENDBRANCH   3  12
ENDBRANCH   1   2
BRANCH   1  18
ATOM     17  O   UNL     1      -0.995  11.587  23.301  0.00  0.00    +0.000 OA
ATOM     18  C   UNL     1      -0.802  11.582  22.080  0.00  0.00    +0.000 C 
ATOM     19  N   UNL     1      -0.306  10.464  21.436  0.00  0.00    +0.000 N 
ATOM     20  C   UNL     1      -0.144  10.298  19.980  0.00  0.00    +0.000 C 
ATOM     21  C   UNL     1       1.223   9.686  19.602  0.00  0.00    +0.000 C 
ATOM     22  N   UNL     1       1.451   8.480  20.406  0.00  0.00    +0.000 N 
ATOM     23  C   UNL     1       1.388   8.688  21.860  0.00  0.00    +0.000 C 
ATOM     24  C   UNL     1       0.012   9.264  22.231  0.00  0.00    +0.000 C 
BRANCH  22  25
ATOM     25  C   UNL     1       1.934   7.307  19.866  0.00  0.00    +0.000 A 
ATOM     26  C   UNL     1       2.567   7.264  18.616  0.00  0.00    +0.000 A 
ATOM     27  C   UNL     1       3.013   6.060  18.059  0.00  0.00    +0.000 A 
ATOM     28  C   UNL     1       2.828   4.864  18.743  0.00  0.00    +0.000 A 
ATOM     29  C   UNL     1       2.207   4.875  19.986  0.00  0.00    +0.000 A 
ATOM     30  C   UNL     1       1.772   6.084  20.537  0.00  0.00    +0.000 A 
ENDBRANCH  22  25
ENDBRANCH   1  18
TORSDOF 4
ENDMDL
MODEL 6
REMARK VINA RESULT:      -7.6      4.553      9.659
REMARK  Name = 
REMARK  4 active torsions:
REMARK  status: ('A' for Active; 'I' for Inactive)
REMARK    1  A    between atoms: C_2  and  C_3
REMARK    2  A    between atoms: C_3  and  N_4
REMARK    3  A    between atoms: C_5  and  C_6
REMARK    4  A    between atoms: N_22  and  C_23
REMARK                            x       y       z     vdW  Elec       q    Type
REMARK                         _______ _______ _______ _____ _____    ______ ____
ROOT
ATOM      1  C   UNL     1      -1.349  12.568  21.191  0.00  0.00    +0.000 C 
ENDROOT
BRANCH   1   2
ATOM      2  N   UNL     1      -0.464  13.729  21.059  0.00  0.00    +0.000 N 
ATOM      3  C   UNL     1      -0.524  14.829  21.922  0.00  0.00    +0.000 A 
ATOM      4  C   UNL     1       0.461  15.707  21.516  0.00  0.00    +0.000 A 
ATOM      5  C   UNL     1       1.122  15.176  20.386  0.00  0.00    +0.000 A 
ATOM      6  C   UNL     1       2.175  15.658  19.579  0.00  0.00    +0.000 A 
ATOM      7  C   UNL     1       2.621  14.894  18.502  0.00  0.00    +0.000 A 
ATOM      8 CL   UNL     1       3.895  15.482  17.506  0.00  0.00    +0.000 Cl
ATOM      9  C   UNL     1       2.051  13.662  18.230  0.00  0.00    +0.000 A 
ATOM     10  C   UNL     1       1.019  13.162  19.032  0.00  0.00    +0.000 A 
ATOM     11  C   UNL     1       0.539  13.934  20.110  0.00  0.00    +0.000 A 
BRANCH   3  12
ATOM     12  C   UNL     1      -1.456  15.031  23.022  0.00  0.00    +0.000 A 
ATOM     13  C   UNL     1      -1.289  14.824  24.380  0.00  0.00    +0.000 A 
ATOM     14  C   UNL     1      -2.454  15.129  25.146  0.00  0.00    +0.000 A 
ATOM     15  C   UNL     1      -3.473  15.613  24.361  0.00  0.00    +0.000 A 
ATOM     16  S   UNL     1      -3.037  15.655  22.713  0.00  0.00    +0.000 S 
ENDBRANCH   3  12
ENDBRANCH   1   2
BRANCH   1  18
ATOM     17  O   UNL     1      -0.960  11.502  23.270  0.00  0.00    +0.000 OA
ATOM     18  C   UNL     1      -0.885  11.414  22.040  0.00  0.00    +0.000 C 
ATOM     19  N   UNL     1      -0.367  10.286  21.430  0.00  0.00    +0.000 N 
ATOM     20  C   UNL     1      -0.332  10.018  19.981  0.00  0.00    +0.000 C 
ATOM     21  C   UNL     1       1.036   9.476  19.512  0.00  0.00    +0.000 C 
ATOM     22  N   UNL     1       1.433   8.356  20.373  0.00  0.00    +0.000 N 
ATOM     23  C   UNL     1       1.493   8.673  21.807  0.00  0.00    +0.000 C 
ATOM     24  C   UNL     1       0.118   9.178  22.273  0.00  0.00    +0.000 C 
BRANCH  22  25
ATOM     25  C   UNL     1       1.952   7.181  19.873  0.00  0.00    +0.000 A 
ATOM     26  C   UNL     1       2.585   7.115  18.623  0.00  0.00    +0.000 A 
ATOM     27  C   UNL     1       3.068   5.907  18.107  0.00  0.00    +0.000 A 
ATOM     28  C   UNL     1       2.921   4.730  18.832  0.00  0.00    +0.000 A 
ATOM     29  C   UNL     1       2.302   4.765  20.075  0.00  0.00    +0.000 A 
ATOM     30  C   UNL     1       1.829   5.978  20.585  0.00  0.00    +0.000 A 
ENDBRANCH  22  25
ENDBRANCH   1  18
TORSDOF 4
ENDMDL
MODEL 7
REMARK VINA RESULT:      -7.6      4.919     10.529
REMARK  Name = 
REMARK  4 active torsions:
REMARK  status: ('A' for Active; 'I' for Inactive)
REMARK    1  A    between atoms: C_2  and  C_3
REMARK    2  A    between atoms: C_3  and  N_4
REMARK    3  A    between atoms: C_5  and  C_6
REMARK    4  A    between atoms: N_22  and  C_23
REMARK                            x       y       z     vdW  Elec       q    Type
REMARK                         _______ _______ _______ _____ _____    ______ ____
ROOT
ATOM      1  C   UNL     1      -1.175  12.845  21.380  0.00  0.00    +0.000 C 
ENDROOT
BRANCH   1   2
ATOM      2  N   UNL     1      -2.574  13.261  21.239  0.00  0.00    +0.000 N 
ATOM      3  C   UNL     1      -3.185  14.168  22.111  0.00  0.00    +0.000 A 
ATOM      4  C   UNL     1      -4.480  14.338  21.663  0.00  0.00    +0.000 A 
ATOM      5  C   UNL     1      -4.693  13.520  20.532  0.00  0.00    +0.000 A 
ATOM      6  C   UNL     1      -5.818  13.300  19.707  0.00  0.00    +0.000 A 
ATOM      7  C   UNL     1      -5.725  12.407  18.641  0.00  0.00    +0.000 A 
ATOM      8 CL   UNL     1      -7.096  12.124  17.640  0.00  0.00    +0.000 Cl
ATOM      9  C   UNL     1      -4.536  11.750  18.375  0.00  0.00    +0.000 A 
ATOM     10  C   UNL     1      -3.407  11.971  19.172  0.00  0.00    +0.000 A 
ATOM     11  C   UNL     1      -3.491  12.852  20.270  0.00  0.00    +0.000 A 
BRANCH   3  12
ATOM     12  C   UNL     1      -2.590  14.800  23.279  0.00  0.00    +0.000 A 
ATOM     13  C   UNL     1      -1.626  15.790  23.363  0.00  0.00    +0.000 A 
ATOM     14  C   UNL     1      -1.290  16.141  24.704  0.00  0.00    +0.000 A 
ATOM     15  C   UNL     1      -2.042  15.445  25.620  0.00  0.00    +0.000 A 
ATOM     16  S   UNL     1      -3.110  14.352  24.865  0.00  0.00    +0.000 S 
ENDBRANCH   3  12
ENDBRANCH   1   2
BRANCH   1  18
ATOM     17  O   UNL     1      -1.080  11.567  23.373  0.00  0.00    +0.000 OA
ATOM     18  C   UNL     1      -0.883  11.585  22.153  0.00  0.00    +0.000 C 
ATOM     19  N   UNL     1      -0.382  10.481  21.489  0.00  0.00    +0.000 N 
ATOM     20  C   UNL     1      -0.214  10.344  20.031  0.00  0.00    +0.000 C 
ATOM     21  C   UNL     1       1.156   9.741  19.647  0.00  0.00    +0.000 C 
ATOM     22  N   UNL     1       1.382   8.520  20.428  0.00  0.00    +0.000 N 
ATOM     23  C   UNL     1       1.314   8.700  21.885  0.00  0.00    +0.000 C 
ATOM     24  C   UNL     1      -0.066   9.266  22.262  0.00  0.00    +0.000 C 
BRANCH  22  25
ATOM     25  C   UNL     1       1.870   7.359  19.868  0.00  0.00    +0.000 A 
ATOM     26  C   UNL     1       1.784   6.120  20.518  0.00  0.00    +0.000 A 
ATOM     27  C   UNL     1       2.324   4.957  19.957  0.00  0.00    +0.000 A 
ATOM     28  C   UNL     1       2.972   5.010  18.728  0.00  0.00    +0.000 A 
ATOM     29  C   UNL     1       3.070   6.223  18.058  0.00  0.00    +0.000 A 
ATOM     30  C   UNL     1       2.521   7.378  18.623  0.00  0.00    +0.000 A 
ENDBRANCH  22  25
ENDBRANCH   1  18
TORSDOF 4
ENDMDL
MODEL 8
REMARK VINA RESULT:      -7.5      4.829     10.308
REMARK  Name = 
REMARK  4 active torsions:
REMARK  status: ('A' for Active; 'I' for Inactive)
REMARK    1  A    between atoms: C_2  and  C_3
REMARK    2  A    between atoms: C_3  and  N_4
REMARK    3  A    between atoms: C_5  and  C_6
REMARK    4  A    between atoms: N_22  and  C_23
REMARK                            x       y       z     vdW  Elec       q    Type
REMARK                         _______ _______ _______ _____ _____    ______ ____
ROOT
ATOM      1  C   UNL     1      -0.428  11.820  20.408  0.00  0.00    +0.000 C 
ENDROOT
BRANCH   1   2
ATOM      2  N   UNL     1      -1.651  12.546  20.764  0.00  0.00    +0.000 N 
ATOM      3  C   UNL     1      -2.794  12.546  19.957  0.00  0.00    +0.000 A 
ATOM      4  C   UNL     1      -3.743  13.304  20.612  0.00  0.00    +0.000 A 
ATOM      5  C   UNL     1      -3.192  13.804  21.814  0.00  0.00    +0.000 A 
ATOM      6  C   UNL     1      -3.712  14.629  22.834  0.00  0.00    +0.000 A 
ATOM      7  C   UNL     1      -2.908  14.966  23.922  0.00  0.00    +0.000 A 
ATOM      8 CL   UNL     1      -3.530  15.984  25.163  0.00  0.00    +0.000 Cl
ATOM      9  C   UNL     1      -1.614  14.483  24.017  0.00  0.00    +0.000 A 
ATOM     10  C   UNL     1      -1.091  13.648  23.023  0.00  0.00    +0.000 A 
ATOM     11  C   UNL     1      -1.882  13.319  21.903  0.00  0.00    +0.000 A 
BRANCH   3  12
ATOM     12  C   UNL     1      -2.956  11.895  18.666  0.00  0.00    +0.000 A 
ATOM     13  C   UNL     1      -2.015  11.592  17.696  0.00  0.00    +0.000 A 
ATOM     14  C   UNL     1      -2.572  10.956  16.547  0.00  0.00    +0.000 A 
ATOM     15  C   UNL     1      -3.922  10.739  16.683  0.00  0.00    +0.000 A 
ATOM     16  S   UNL     1      -4.513  11.338  18.166  0.00  0.00    +0.000 S 
ENDBRANCH   3  12
ENDBRANCH   1   2
BRANCH   1  18
ATOM     17  O   UNL     1      -0.536  10.258  22.186  0.00  0.00    +0.000 OA
ATOM     18  C   UNL     1      -0.211  10.456  21.010  0.00  0.00    +0.000 C 
ATOM     19  N   UNL     1       0.363   9.458  20.245  0.00  0.00    +0.000 N 
ATOM     20  C   UNL     1       0.684   9.538  18.808  0.00  0.00    +0.000 C 
ATOM     21  C   UNL     1       2.090   8.986  18.484  0.00  0.00    +0.000 C 
ATOM     22  N   UNL     1       2.240   7.660  19.094  0.00  0.00    +0.000 N 
ATOM     23  C   UNL     1       2.018   7.621  20.546  0.00  0.00    +0.000 C 
ATOM     24  C   UNL     1       0.604   8.139  20.856  0.00  0.00    +0.000 C 
BRANCH  22  25
ATOM     25  C   UNL     1       2.791   6.591  18.420  0.00  0.00    +0.000 A 
ATOM     26  C   UNL     1       3.968   6.706  17.667  0.00  0.00    +0.000 A 
ATOM     27  C   UNL     1       4.492   5.624  16.951  0.00  0.00    +0.000 A 
ATOM     28  C   UNL     1       3.841   4.395  16.968  0.00  0.00    +0.000 A 
ATOM     29  C   UNL     1       2.674   4.249  17.708  0.00  0.00    +0.000 A 
ATOM     30  C   UNL     1       2.163   5.335  18.425  0.00  0.00    +0.000 A 
ENDBRANCH  22  25
ENDBRANCH   1  18
TORSDOF 4
ENDMDL
MODEL 9
REMARK VINA RESULT:      -7.3      4.188      9.211
REMARK  Name = 
REMARK  4 active torsions:
REMARK  status: ('A' for Active; 'I' for Inactive)
REMARK    1  A    between atoms: C_2  and  C_3
REMARK    2  A    between atoms: C_3  and  N_4
REMARK    3  A    between atoms: C_5  and  C_6
REMARK    4  A    between atoms: N_22  and  C_23
REMARK                            x       y       z     vdW  Elec       q    Type
REMARK                         _______ _______ _______ _____ _____    ______ ____
ROOT
ATOM      1  C   UNL     1      -0.432  11.498  20.012  0.00  0.00    +0.000 C 
ENDROOT
BRANCH   1   2
ATOM      2  N   UNL     1      -1.755  11.652  19.399  0.00  0.00    +0.000 N 
ATOM      3  C   UNL     1      -2.800  12.346  20.018  0.00  0.00    +0.000 A 
ATOM      4  C   UNL     1      -3.872  12.307  19.150  0.00  0.00    +0.000 A 
ATOM      5  C   UNL     1      -3.514  11.568  18.000  0.00  0.00    +0.000 A 
ATOM      6  C   UNL     1      -4.222  11.215  16.831  0.00  0.00    +0.000 A 
ATOM      7  C   UNL     1      -3.590  10.455  15.848  0.00  0.00    +0.000 A 
ATOM      8 CL   UNL     1      -4.451  10.008  14.426  0.00  0.00    +0.000 Cl
ATOM      9  C   UNL     1      -2.271  10.061  16.002  0.00  0.00    +0.000 A 
ATOM     10  C   UNL     1      -1.551  10.419  17.147  0.00  0.00    +0.000 A 
ATOM     11  C   UNL     1      -2.183  11.166  18.163  0.00  0.00    +0.000 A 
BRANCH   3  12
ATOM     12  C   UNL     1      -2.780  12.971  21.332  0.00  0.00    +0.000 A 
ATOM     13  C   UNL     1      -3.043  12.432  22.580  0.00  0.00    +0.000 A 
ATOM     14  C   UNL     1      -2.930  13.380  23.641  0.00  0.00    +0.000 A 
ATOM     15  C   UNL     1      -2.533  14.615  23.186  0.00  0.00    +0.000 A 
ATOM     16  S   UNL     1      -2.341  14.635  21.492  0.00  0.00    +0.000 S 
ENDBRANCH   3  12
ENDBRANCH   1   2
BRANCH   1  18
ATOM     17  O   UNL     1      -0.388  10.071  21.903  0.00  0.00    +0.000 OA
ATOM     18  C   UNL     1      -0.117  10.197  20.704  0.00  0.00    +0.000 C 
ATOM     19  N   UNL     1       0.485   9.176  19.991  0.00  0.00    +0.000 N 
ATOM     20  C   UNL     1       0.749   9.165  18.541  0.00  0.00    +0.000 C 
ATOM     21  C   UNL     1       2.171   8.666  18.203  0.00  0.00    +0.000 C 
ATOM     22  N   UNL     1       2.418   7.399  18.902  0.00  0.00    +0.000 N 
ATOM     23  C   UNL     1       2.250   7.458  20.360  0.00  0.00    +0.000 C 
ATOM     24  C   UNL     1       0.821   7.922  20.688  0.00  0.00    +0.000 C 
BRANCH  22  25
ATOM     25  C   UNL     1       3.004   6.313  18.287  0.00  0.00    +0.000 A 
ATOM     26  C   UNL     1       4.295   6.367  17.743  0.00  0.00    +0.000 A 
ATOM     27  C   UNL     1       4.860   5.271  17.083  0.00  0.00    +0.000 A 
ATOM     28  C   UNL     1       4.138   4.091  16.944  0.00  0.00    +0.000 A 
ATOM     29  C   UNL     1       2.857   4.006  17.475  0.00  0.00    +0.000 A 
ATOM     30  C   UNL     1       2.303   5.105  18.140  0.00  0.00    +0.000 A 
ENDBRANCH  22  25
ENDBRANCH   1  18
TORSDOF 4
ENDMDL
