MODEL 1
REMARK VINA RESULT:      -6.9      0.000      0.000
REMARK  Name = 
REMARK  6 active torsions:
REMARK  status: ('A' for Active; 'I' for Inactive)
REMARK    1  A    between atoms: C_1  and  O_2
REMARK    2  A    between atoms: O_2  and  C_3
REMARK    3  A    between atoms: C_6  and  C_7
REMARK    4  A    between atoms: N_10  and  C_11
REMARK    5  A    between atoms: N_13  and  C_14
REMARK    6  A    between atoms: C_17  and  C_18
REMARK                            x       y       z     vdW  Elec       q    Type
REMARK                         _______ _______ _______ _____ _____    ______ ____
ROOT
ATOM      1  C   UNL     1      -1.168  10.062  18.278  0.00  0.00    +0.000 C 
ATOM      2  C   UNL     1      -0.297  10.553  19.174  0.00  0.00    +0.000 C 
ATOM      3  C   UNL     1       0.848   9.778  19.785  0.00  0.00    +0.000 C 
ATOM      4  N   UNL     1       0.817  10.133  21.207  0.00  0.00    +0.000 N 
ATOM      5  C   UNL     1       1.294   9.162  22.168  0.00  0.00    +0.000 C 
ATOM      6  C   UNL     1      -0.025  11.179  21.562  0.00  0.00    +0.000 C 
ATOM      7  N   UNL     1      -0.430  11.437  22.769  0.00  0.00    +0.000 NA
ATOM      8  S   UNL     1      -0.523  12.024  20.075  0.00  0.00    +0.000 S 
ENDROOT
BRANCH   1  12
ATOM      9  C   UNL     1      -4.891  11.834  17.095  0.00  0.00    +0.000 A 
ATOM     10  C   UNL     1      -4.489  11.861  18.432  0.00  0.00    +0.000 A 
ATOM     11  C   UNL     1      -3.278  11.283  18.833  0.00  0.00    +0.000 A 
ATOM     12  C   UNL     1      -2.457  10.657  17.894  0.00  0.00    +0.000 A 
ATOM     13  C   UNL     1      -2.868  10.615  16.555  0.00  0.00    +0.000 A 
ATOM     14  C   UNL     1      -4.077  11.201  16.155  0.00  0.00    +0.000 A 
BRANCH   9  16
ATOM     15  C   UNL     1      -7.092  12.312  17.855  0.00  0.00    +0.000 C 
ATOM     16  O   UNL     1      -6.099  12.422  16.842  0.00  0.00    +0.000 OA
ENDBRANCH   9  16
ENDBRANCH   1  12
BRANCH   7  17
ATOM     17  C   UNL     1      -1.380  12.433  23.077  0.00  0.00    +0.000 A 
ATOM     18  C   UNL     1      -1.047  13.780  23.272  0.00  0.00    +0.000 A 
ATOM     19  C   UNL     1      -2.005  14.727  23.634  0.00  0.00    +0.000 A 
ATOM     20  C   UNL     1      -3.356  14.377  23.696  0.00  0.00    +0.000 A 
ATOM     21  C   UNL     1      -3.718  13.057  23.387  0.00  0.00    +0.000 A 
ATOM     22  C   UNL     1      -2.735  12.096  23.094  0.00  0.00    +0.000 A 
BRANCH  20  23
ATOM     23  C   UNL     1      -4.394  15.412  24.051  0.00  0.00    +0.000 C 
ATOM     24  F   UNL     1      -5.653  14.901  24.172  0.00  0.00    +0.000 F 
ATOM     25  F   UNL     1      -4.131  16.025  25.238  0.00  0.00    +0.000 F 
ATOM     26  F   UNL     1      -4.488  16.408  23.127  0.00  0.00    +0.000 F 
ENDBRANCH  20  23
ENDBRANCH   7  17
TORSDOF 4
ENDMDL
MODEL 2
REMARK VINA RESULT:      -6.7      0.115      1.211
REMARK  Name = 
REMARK  6 active torsions:
REMARK  status: ('A' for Active; 'I' for Inactive)
REMARK    1  A    between atoms: C_1  and  O_2
REMARK    2  A    between atoms: O_2  and  C_3
REMARK    3  A    between atoms: C_6  and  C_7
REMARK    4  A    between atoms: N_10  and  C_11
REMARK    5  A    between atoms: N_13  and  C_14
REMARK    6  A    between atoms: C_17  and  C_18
REMARK                            x       y       z     vdW  Elec       q    Type
REMARK                         _______ _______ _______ _____ _____    ______ ____
ROOT
ATOM      1  C   UNL     1      -1.185  10.070  18.232  0.00  0.00    +0.000 C 
ATOM      2  C   UNL     1      -0.296  10.539  19.123  0.00  0.00    +0.000 C 
ATOM      3  C   UNL     1       0.840   9.740  19.717  0.00  0.00    +0.000 C 
ATOM      4  N   UNL     1       0.829  10.083  21.142  0.00  0.00    +0.000 N 
ATOM      5  C   UNL     1       1.299   9.097  22.089  0.00  0.00    +0.000 C 
ATOM      6  C   UNL     1       0.009  11.140  21.514  0.00  0.00    +0.000 C 
ATOM      7  N   UNL     1      -0.381  11.395  22.727  0.00  0.00    +0.000 NA
ATOM      8  S   UNL     1      -0.489  12.007  20.038  0.00  0.00    +0.000 S 
ENDROOT
BRANCH   1  12
ATOM      9  C   UNL     1      -4.959  11.843  17.229  0.00  0.00    +0.000 A 
ATOM     10  C   UNL     1      -4.178  11.239  16.242  0.00  0.00    +0.000 A 
ATOM     11  C   UNL     1      -2.942  10.659  16.555  0.00  0.00    +0.000 A 
ATOM     12  C   UNL     1      -2.467  10.690  17.866  0.00  0.00    +0.000 A 
ATOM     13  C   UNL     1      -3.243  11.312  18.854  0.00  0.00    +0.000 A 
ATOM     14  C   UNL     1      -4.483  11.885  18.539  0.00  0.00    +0.000 A 
BRANCH   9  16
ATOM     15  C   UNL     1      -7.170  12.545  17.750  0.00  0.00    +0.000 C 
ATOM     16  O   UNL     1      -6.136  12.381  16.786  0.00  0.00    +0.000 OA
ENDBRANCH   9  16
ENDBRANCH   1  12
BRANCH   7  17
ATOM     17  C   UNL     1      -1.310  12.404  23.051  0.00  0.00    +0.000 A 
ATOM     18  C   UNL     1      -0.960  13.751  23.214  0.00  0.00    +0.000 A 
ATOM     19  C   UNL     1      -1.896  14.712  23.595  0.00  0.00    +0.000 A 
ATOM     20  C   UNL     1      -3.247  14.375  23.709  0.00  0.00    +0.000 A 
ATOM     21  C   UNL     1      -3.631  13.055  23.433  0.00  0.00    +0.000 A 
ATOM     22  C   UNL     1      -2.667  12.080  23.120  0.00  0.00    +0.000 A 
BRANCH  20  23
ATOM     23  C   UNL     1      -4.263  15.425  24.084  0.00  0.00    +0.000 C 
ATOM     24  F   UNL     1      -4.311  16.472  23.210  0.00  0.00    +0.000 F 
ATOM     25  F   UNL     1      -5.530  14.929  24.133  0.00  0.00    +0.000 F 
ATOM     26  F   UNL     1      -4.028  15.978  25.306  0.00  0.00    +0.000 F 
ENDBRANCH  20  23
ENDBRANCH   7  17
TORSDOF 4
ENDMDL
MODEL 3
REMARK VINA RESULT:      -6.7      0.318      1.551
REMARK  Name = 
REMARK  6 active torsions:
REMARK  status: ('A' for Active; 'I' for Inactive)
REMARK    1  A    between atoms: C_1  and  O_2
REMARK    2  A    between atoms: O_2  and  C_3
REMARK    3  A    between atoms: C_6  and  C_7
REMARK    4  A    between atoms: N_10  and  C_11
REMARK    5  A    between atoms: N_13  and  C_14
REMARK    6  A    between atoms: C_17  and  C_18
REMARK                            x       y       z     vdW  Elec       q    Type
REMARK                         _______ _______ _______ _____ _____    ______ ____
ROOT
ATOM      1  C   UNL     1      -1.235  10.157  18.238  0.00  0.00    +0.000 C 
ATOM      2  C   UNL     1      -0.366  10.634  19.144  0.00  0.00    +0.000 C 
ATOM      3  C   UNL     1       0.790   9.858  19.730  0.00  0.00    +0.000 C 
ATOM      4  N   UNL     1       0.761  10.174  21.161  0.00  0.00    +0.000 N 
ATOM      5  C   UNL     1       1.253   9.185  22.093  0.00  0.00    +0.000 C 
ATOM      6  C   UNL     1      -0.092  11.200  21.546  0.00  0.00    +0.000 C 
ATOM      7  N   UNL     1      -0.496  11.421  22.761  0.00  0.00    +0.000 NA
ATOM      8  S   UNL     1      -0.606  12.079  20.083  0.00  0.00    +0.000 S 
ENDROOT
BRANCH   1  12
ATOM      9  C   UNL     1      -5.053  11.840  17.245  0.00  0.00    +0.000 A 
ATOM     10  C   UNL     1      -4.257  11.261  16.254  0.00  0.00    +0.000 A 
ATOM     11  C   UNL     1      -3.007  10.711  16.564  0.00  0.00    +0.000 A 
ATOM     12  C   UNL     1      -2.533  10.746  17.875  0.00  0.00    +0.000 A 
ATOM     13  C   UNL     1      -3.324  11.342  18.867  0.00  0.00    +0.000 A 
ATOM     14  C   UNL     1      -4.578  11.886  18.555  0.00  0.00    +0.000 A 
BRANCH   9  16
ATOM     15  C   UNL     1      -6.640  13.607  17.341  0.00  0.00    +0.000 C 
ATOM     16  O   UNL     1      -6.244  12.350  16.805  0.00  0.00    +0.000 OA
ENDBRANCH   9  16
ENDBRANCH   1  12
BRANCH   7  17
ATOM     17  C   UNL     1      -1.455  12.397  23.098  0.00  0.00    +0.000 A 
ATOM     18  C   UNL     1      -2.802  12.100  23.348  0.00  0.00    +0.000 A 
ATOM     19  C   UNL     1      -3.736  13.100  23.619  0.00  0.00    +0.000 A 
ATOM     20  C   UNL     1      -3.326  14.428  23.770  0.00  0.00    +0.000 A 
ATOM     21  C   UNL     1      -1.961  14.723  23.640  0.00  0.00    +0.000 A 
ATOM     22  C   UNL     1      -1.041  13.716  23.295  0.00  0.00    +0.000 A 
BRANCH  20  23
ATOM     23  C   UNL     1      -4.332  15.500  24.101  0.00  0.00    +0.000 C 
ATOM     24  F   UNL     1      -4.101  16.112  25.298  0.00  0.00    +0.000 F 
ATOM     25  F   UNL     1      -4.351  16.499  23.176  0.00  0.00    +0.000 F 
ATOM     26  F   UNL     1      -5.608  15.028  24.170  0.00  0.00    +0.000 F 
ENDBRANCH  20  23
ENDBRANCH   7  17
TORSDOF 4
ENDMDL
MODEL 4
REMARK VINA RESULT:      -6.4      7.115     10.041
REMARK  Name = 
REMARK  6 active torsions:
REMARK  status: ('A' for Active; 'I' for Inactive)
REMARK    1  A    between atoms: C_1  and  O_2
REMARK    2  A    between atoms: O_2  and  C_3
REMARK    3  A    between atoms: C_6  and  C_7
REMARK    4  A    between atoms: N_10  and  C_11
REMARK    5  A    between atoms: N_13  and  C_14
REMARK    6  A    between atoms: C_17  and  C_18
REMARK                            x       y       z     vdW  Elec       q    Type
REMARK                         _______ _______ _______ _____ _____    ______ ____
ROOT
ATOM      1  C   UNL     1       6.537   4.578  18.041  0.00  0.00    +0.000 C 
ATOM      2  C   UNL     1       5.421   4.194  18.683  0.00  0.00    +0.000 C 
ATOM      3  C   UNL     1       4.661   2.917  18.411  0.00  0.00    +0.000 C 
ATOM      4  N   UNL     1       3.251   3.318  18.416  0.00  0.00    +0.000 N 
ATOM      5  C   UNL     1       2.321   2.570  17.599  0.00  0.00    +0.000 C 
ATOM      6  C   UNL     1       2.978   4.603  18.865  0.00  0.00    +0.000 C 
ATOM      7  N   UNL     1       1.871   5.250  18.659  0.00  0.00    +0.000 NA
ATOM      8  S   UNL     1       4.438   5.234  19.671  0.00  0.00    +0.000 S 
ENDROOT
BRANCH   1  12
ATOM      9  C   UNL     1       8.250   8.509  18.133  0.00  0.00    +0.000 A 
ATOM     10  C   UNL     1       7.343   8.157  17.132  0.00  0.00    +0.000 A 
ATOM     11  C   UNL     1       6.778   6.876  17.087  0.00  0.00    +0.000 A 
ATOM     12  C   UNL     1       7.129   5.924  18.045  0.00  0.00    +0.000 A 
ATOM     13  C   UNL     1       8.052   6.272  19.041  0.00  0.00    +0.000 A 
ATOM     14  C   UNL     1       8.610   7.557  19.086  0.00  0.00    +0.000 A 
BRANCH   9  16
ATOM     15  C   UNL     1       9.271  10.346  19.245  0.00  0.00    +0.000 C 
ATOM     16  O   UNL     1       8.734   9.785  18.052  0.00  0.00    +0.000 OA
ENDBRANCH   9  16
ENDBRANCH   1  12
BRANCH   7  17
ATOM     17  C   UNL     1       1.674   6.597  19.025  0.00  0.00    +0.000 A 
ATOM     18  C   UNL     1       1.445   7.011  20.344  0.00  0.00    +0.000 A 
ATOM     19  C   UNL     1       1.194   8.346  20.661  0.00  0.00    +0.000 A 
ATOM     20  C   UNL     1       1.284   9.334  19.677  0.00  0.00    +0.000 A 
ATOM     21  C   UNL     1       1.630   8.948  18.374  0.00  0.00    +0.000 A 
ATOM     22  C   UNL     1       1.809   7.591  18.053  0.00  0.00    +0.000 A 
BRANCH  20  23
ATOM     23  C   UNL     1       1.050  10.781  20.030  0.00  0.00    +0.000 C 
ATOM     24  F   UNL     1       1.804  11.649  19.295  0.00  0.00    +0.000 F 
ATOM     25  F   UNL     1      -0.243  11.161  19.836  0.00  0.00    +0.000 F 
ATOM     26  F   UNL     1       1.332  11.062  21.333  0.00  0.00    +0.000 F 
ENDBRANCH  20  23
ENDBRANCH   7  17
TORSDOF 4
ENDMDL
MODEL 5
REMARK VINA RESULT:      -6.3      7.106      9.962
REMARK  Name = 
REMARK  6 active torsions:
REMARK  status: ('A' for Active; 'I' for Inactive)
REMARK    1  A    between atoms: C_1  and  O_2
REMARK    2  A    between atoms: O_2  and  C_3
REMARK    3  A    between atoms: C_6  and  C_7
REMARK    4  A    between atoms: N_10  and  C_11
REMARK    5  A    between atoms: N_13  and  C_14
REMARK    6  A    between atoms: C_17  and  C_18
REMARK                            x       y       z     vdW  Elec       q    Type
REMARK                         _______ _______ _______ _____ _____    ______ ____
ROOT
ATOM      1  C   UNL     1       6.630   4.740  17.972  0.00  0.00    +0.000 C 
ATOM      2  C   UNL     1       5.544   4.283  18.616  0.00  0.00    +0.000 C 
ATOM      3  C   UNL     1       4.835   2.986  18.307  0.00  0.00    +0.000 C 
ATOM      4  N   UNL     1       3.409   3.323  18.350  0.00  0.00    +0.000 N 
ATOM      5  C   UNL     1       2.498   2.567  17.519  0.00  0.00    +0.000 C 
ATOM      6  C   UNL     1       3.089   4.577  18.853  0.00  0.00    +0.000 C 
ATOM      7  N   UNL     1       1.951   5.182  18.690  0.00  0.00    +0.000 NA
ATOM      8  S   UNL     1       4.533   5.240  19.660  0.00  0.00    +0.000 S 
ENDROOT
BRANCH   1  12
ATOM      9  C   UNL     1       8.193   8.735  18.029  0.00  0.00    +0.000 A 
ATOM     10  C   UNL     1       8.642   7.787  18.951  0.00  0.00    +0.000 A 
ATOM     11  C   UNL     1       8.138   6.480  18.946  0.00  0.00    +0.000 A 
ATOM     12  C   UNL     1       7.163   6.110  18.020  0.00  0.00    +0.000 A 
ATOM     13  C   UNL     1       6.699   7.066  17.105  0.00  0.00    +0.000 A 
ATOM     14  C   UNL     1       7.210   8.371  17.108  0.00  0.00    +0.000 A 
BRANCH   9  16
ATOM     15  C   UNL     1       9.357  10.286  19.403  0.00  0.00    +0.000 C 
ATOM     16  O   UNL     1       8.757   9.974  18.152  0.00  0.00    +0.000 OA
ENDBRANCH   9  16
ENDBRANCH   1  12
BRANCH   7  17
ATOM     17  C   UNL     1       1.702   6.504  19.112  0.00  0.00    +0.000 A 
ATOM     18  C   UNL     1       1.424   6.849  20.441  0.00  0.00    +0.000 A 
ATOM     19  C   UNL     1       1.123   8.160  20.812  0.00  0.00    +0.000 A 
ATOM     20  C   UNL     1       1.210   9.195  19.877  0.00  0.00    +0.000 A 
ATOM     21  C   UNL     1       1.603   8.881  18.568  0.00  0.00    +0.000 A 
ATOM     22  C   UNL     1       1.833   7.546  18.191  0.00  0.00    +0.000 A 
BRANCH  20  23
ATOM     23  C   UNL     1       0.921  10.616  20.289  0.00  0.00    +0.000 C 
ATOM     24  F   UNL     1      -0.390  10.968  20.147  0.00  0.00    +0.000 F 
ATOM     25  F   UNL     1       1.224  10.851  21.596  0.00  0.00    +0.000 F 
ATOM     26  F   UNL     1       1.627  11.532  19.570  0.00  0.00    +0.000 F 
ENDBRANCH  20  23
ENDBRANCH   7  17
TORSDOF 4
ENDMDL
MODEL 6
REMARK VINA RESULT:      -6.3      1.231      1.774
REMARK  Name = 
REMARK  6 active torsions:
REMARK  status: ('A' for Active; 'I' for Inactive)
REMARK    1  A    between atoms: C_1  and  O_2
REMARK    2  A    between atoms: O_2  and  C_3
REMARK    3  A    between atoms: C_6  and  C_7
REMARK    4  A    between atoms: N_10  and  C_11
REMARK    5  A    between atoms: N_13  and  C_14
REMARK    6  A    between atoms: C_17  and  C_18
REMARK                            x       y       z     vdW  Elec       q    Type
REMARK                         _______ _______ _______ _____ _____    ______ ____
ROOT
ATOM      1  C   UNL     1      -2.470  10.083  17.447  0.00  0.00    +0.000 C 
ATOM      2  C   UNL     1      -1.345  10.541  18.021  0.00  0.00    +0.000 C 
ATOM      3  C   UNL     1      -0.043   9.780  18.104  0.00  0.00    +0.000 C 
ATOM      4  N   UNL     1       0.431  10.007  19.472  0.00  0.00    +0.000 N 
ATOM      5  C   UNL     1       1.240   8.984  20.097  0.00  0.00    +0.000 C 
ATOM      6  C   UNL     1      -0.248  10.970  20.207  0.00  0.00    +0.000 C 
ATOM      7  N   UNL     1      -0.199  11.099  21.499  0.00  0.00    +0.000 NA
ATOM      8  S   UNL     1      -1.263  11.914  19.086  0.00  0.00    +0.000 S 
ENDROOT
BRANCH   1  12
ATOM      9  C   UNL     1      -6.383  11.778  17.915  0.00  0.00    +0.000 A 
ATOM     10  C   UNL     1      -5.978  10.704  18.710  0.00  0.00    +0.000 A 
ATOM     11  C   UNL     1      -4.705  10.139  18.566  0.00  0.00    +0.000 A 
ATOM     12  C   UNL     1      -3.822  10.638  17.608  0.00  0.00    +0.000 A 
ATOM     13  C   UNL     1      -4.234  11.706  16.798  0.00  0.00    +0.000 A 
ATOM     14  C   UNL     1      -5.507  12.274  16.949  0.00  0.00    +0.000 A 
BRANCH   9  16
ATOM     15  C   UNL     1      -7.783  13.505  18.757  0.00  0.00    +0.000 C 
ATOM     16  O   UNL     1      -7.654  12.225  18.150  0.00  0.00    +0.000 OA
ENDBRANCH   9  16
ENDBRANCH   1  12
BRANCH   7  17
ATOM     17  C   UNL     1      -0.994  12.011  22.222  0.00  0.00    +0.000 A 
ATOM     18  C   UNL     1      -2.197  11.657  22.847  0.00  0.00    +0.000 A 
ATOM     19  C   UNL     1      -2.988  12.600  23.504  0.00  0.00    +0.000 A 
ATOM     20  C   UNL     1      -2.539  13.914  23.659  0.00  0.00    +0.000 A 
ATOM     21  C   UNL     1      -1.281  14.254  23.140  0.00  0.00    +0.000 A 
ATOM     22  C   UNL     1      -0.526  13.312  22.418  0.00  0.00    +0.000 A 
BRANCH  20  23
ATOM     23  C   UNL     1      -3.380  14.922  24.401  0.00  0.00    +0.000 C 
ATOM     24  F   UNL     1      -4.721  14.698  24.290  0.00  0.00    +0.000 F 
ATOM     25  F   UNL     1      -3.118  14.934  25.737  0.00  0.00    +0.000 F 
ATOM     26  F   UNL     1      -3.184  16.198  23.968  0.00  0.00    +0.000 F 
ENDBRANCH  20  23
ENDBRANCH   7  17
TORSDOF 4
ENDMDL
MODEL 7
REMARK VINA RESULT:      -6.3      1.263      2.152
REMARK  Name = 
REMARK  6 active torsions:
REMARK  status: ('A' for Active; 'I' for Inactive)
REMARK    1  A    between atoms: C_1  and  O_2
REMARK    2  A    between atoms: O_2  and  C_3
REMARK    3  A    between atoms: C_6  and  C_7
REMARK    4  A    between atoms: N_10  and  C_11
REMARK    5  A    between atoms: N_13  and  C_14
REMARK    6  A    between atoms: C_17  and  C_18
REMARK                            x       y       z     vdW  Elec       q    Type
REMARK                         _______ _______ _______ _____ _____    ______ ____
ROOT
ATOM      1  C   UNL     1      -2.694  10.190  17.480  0.00  0.00    +0.000 C 
ATOM      2  C   UNL     1      -1.541  10.624  18.015  0.00  0.00    +0.000 C 
ATOM      3  C   UNL     1      -0.251   9.838  18.049  0.00  0.00    +0.000 C 
ATOM      4  N   UNL     1       0.276  10.049  19.401  0.00  0.00    +0.000 N 
ATOM      5  C   UNL     1       1.086   9.009  19.993  0.00  0.00    +0.000 C 
ATOM      6  C   UNL     1      -0.358  11.023  20.162  0.00  0.00    +0.000 C 
ATOM      7  N   UNL     1      -0.261  11.145  21.452  0.00  0.00    +0.000 NA
ATOM      8  S   UNL     1      -1.394  11.990  19.082  0.00  0.00    +0.000 S 
ENDROOT
BRANCH   1  12
ATOM      9  C   UNL     1      -6.619  11.807  18.097  0.00  0.00    +0.000 A 
ATOM     10  C   UNL     1      -5.769  12.361  17.137  0.00  0.00    +0.000 A 
ATOM     11  C   UNL     1      -4.484  11.845  16.927  0.00  0.00    +0.000 A 
ATOM     12  C   UNL     1      -4.028  10.770  17.691  0.00  0.00    +0.000 A 
ATOM     13  C   UNL     1      -4.875  10.225  18.667  0.00  0.00    +0.000 A 
ATOM     14  C   UNL     1      -6.163  10.739  18.870  0.00  0.00    +0.000 A 
BRANCH   9  16
ATOM     15  C   UNL     1      -7.897  13.801  17.905  0.00  0.00    +0.000 C 
ATOM     16  O   UNL     1      -7.839  12.413  18.208  0.00  0.00    +0.000 OA
ENDBRANCH   9  16
ENDBRANCH   1  12
BRANCH   7  17
ATOM     17  C   UNL     1      -1.013  12.070  22.206  0.00  0.00    +0.000 A 
ATOM     18  C   UNL     1      -2.207  11.740  22.860  0.00  0.00    +0.000 A 
ATOM     19  C   UNL     1      -2.956  12.695  23.547  0.00  0.00    +0.000 A 
ATOM     20  C   UNL     1      -2.467  13.996  23.704  0.00  0.00    +0.000 A 
ATOM     21  C   UNL     1      -1.215  14.309  23.155  0.00  0.00    +0.000 A 
ATOM     22  C   UNL     1      -0.505  13.356  22.404  0.00  0.00    +0.000 A 
BRANCH  20  23
ATOM     23  C   UNL     1      -3.261  15.016  24.480  0.00  0.00    +0.000 C 
ATOM     24  F   UNL     1      -2.944  16.305  24.165  0.00  0.00    +0.000 F 
ATOM     25  F   UNL     1      -4.601  14.904  24.266  0.00  0.00    +0.000 F 
ATOM     26  F   UNL     1      -3.086  14.913  25.826  0.00  0.00    +0.000 F 
ENDBRANCH  20  23
ENDBRANCH   7  17
TORSDOF 4
ENDMDL
MODEL 8
REMARK VINA RESULT:      -6.2      1.243      1.674
REMARK  Name = 
REMARK  6 active torsions:
REMARK  status: ('A' for Active; 'I' for Inactive)
REMARK    1  A    between atoms: C_1  and  O_2
REMARK    2  A    between atoms: O_2  and  C_3
REMARK    3  A    between atoms: C_6  and  C_7
REMARK    4  A    between atoms: N_10  and  C_11
REMARK    5  A    between atoms: N_13  and  C_14
REMARK    6  A    between atoms: C_17  and  C_18
REMARK                            x       y       z     vdW  Elec       q    Type
REMARK                         _______ _______ _______ _____ _____    ______ ____
ROOT
ATOM      1  C   UNL     1      -2.574  10.082  17.455  0.00  0.00    +0.000 C 
ATOM      2  C   UNL     1      -1.429  10.542  17.986  0.00  0.00    +0.000 C 
ATOM      3  C   UNL     1      -0.134   9.768  18.059  0.00  0.00    +0.000 C 
ATOM      4  N   UNL     1       0.378  10.028  19.407  0.00  0.00    +0.000 N 
ATOM      5  C   UNL     1       1.191   9.013  20.041  0.00  0.00    +0.000 C 
ATOM      6  C   UNL     1      -0.271  11.020  20.131  0.00  0.00    +0.000 C 
ATOM      7  N   UNL     1      -0.187  11.185  21.417  0.00  0.00    +0.000 NA
ATOM      8  S   UNL     1      -1.303  11.944  19.010  0.00  0.00    +0.000 S 
ENDROOT
BRANCH   1  12
ATOM      9  C   UNL     1      -6.453  11.837  17.974  0.00  0.00    +0.000 A 
ATOM     10  C   UNL     1      -6.041  10.780  18.788  0.00  0.00    +0.000 A 
ATOM     11  C   UNL     1      -4.778  10.196  18.628  0.00  0.00    +0.000 A 
ATOM     12  C   UNL     1      -3.915  10.658  17.635  0.00  0.00    +0.000 A 
ATOM     13  C   UNL     1      -4.335  11.708  16.806  0.00  0.00    +0.000 A 
ATOM     14  C   UNL     1      -5.596  12.295  16.973  0.00  0.00    +0.000 A 
BRANCH   9  16
ATOM     15  C   UNL     1      -7.900  13.714  18.155  0.00  0.00    +0.000 C 
ATOM     16  O   UNL     1      -7.712  12.306  18.228  0.00  0.00    +0.000 OA
ENDBRANCH   9  16
ENDBRANCH   1  12
BRANCH   7  17
ATOM     17  C   UNL     1      -0.953  12.127  22.134  0.00  0.00    +0.000 A 
ATOM     18  C   UNL     1      -0.517  13.431  22.401  0.00  0.00    +0.000 A 
ATOM     19  C   UNL     1      -1.276  14.317  23.165  0.00  0.00    +0.000 A 
ATOM     20  C   UNL     1      -2.560  13.962  23.589  0.00  0.00    +0.000 A 
ATOM     21  C   UNL     1      -3.057  12.701  23.227  0.00  0.00    +0.000 A 
ATOM     22  C   UNL     1      -2.253  11.792  22.518  0.00  0.00    +0.000 A 
BRANCH  20  23
ATOM     23  C   UNL     1      -3.394  14.936  24.383  0.00  0.00    +0.000 C 
ATOM     24  F   UNL     1      -3.112  14.930  25.718  0.00  0.00    +0.000 F 
ATOM     25  F   UNL     1      -3.218  16.223  23.976  0.00  0.00    +0.000 F 
ATOM     26  F   UNL     1      -4.730  14.690  24.289  0.00  0.00    +0.000 F 
ENDBRANCH  20  23
ENDBRANCH   7  17
TORSDOF 4
ENDMDL
MODEL 9
REMARK VINA RESULT:      -6.2      8.871     11.048
REMARK  Name = 
REMARK  6 active torsions:
REMARK  status: ('A' for Active; 'I' for Inactive)
REMARK    1  A    between atoms: C_1  and  O_2
REMARK    2  A    between atoms: O_2  and  C_3
REMARK    3  A    between atoms: C_6  and  C_7
REMARK    4  A    between atoms: N_10  and  C_11
REMARK    5  A    between atoms: N_13  and  C_14
REMARK    6  A    between atoms: C_17  and  C_18
REMARK                            x       y       z     vdW  Elec       q    Type
REMARK                         _______ _______ _______ _____ _____    ______ ____
ROOT
ATOM      1  C   UNL     1      10.168  14.477  18.921  0.00  0.00    +0.000 C 
ATOM      2  C   UNL     1       9.386  15.492  18.517  0.00  0.00    +0.000 C 
ATOM      3  C   UNL     1       9.653  16.954  18.790  0.00  0.00    +0.000 C 
ATOM      4  N   UNL     1       8.349  17.503  19.173  0.00  0.00    +0.000 N 
ATOM      5  C   UNL     1       8.317  18.628  20.080  0.00  0.00    +0.000 C 
ATOM      6  C   UNL     1       7.251  16.675  18.976  0.00  0.00    +0.000 C 
ATOM      7  N   UNL     1       6.084  16.836  19.523  0.00  0.00    +0.000 NA
ATOM      8  S   UNL     1       7.755  15.317  17.937  0.00  0.00    +0.000 S 
ENDROOT
BRANCH   1  12
ATOM      9  C   UNL     1       9.176  10.307  19.063  0.00  0.00    +0.000 A 
ATOM     10  C   UNL     1       9.046  11.024  17.872  0.00  0.00    +0.000 A 
ATOM     11  C   UNL     1       9.363  12.387  17.812  0.00  0.00    +0.000 A 
ATOM     12  C   UNL     1       9.805  13.053  18.955  0.00  0.00    +0.000 A 
ATOM     13  C   UNL     1       9.919  12.337  20.155  0.00  0.00    +0.000 A 
ATOM     14  C   UNL     1       9.607  10.972  20.210  0.00  0.00    +0.000 A 
BRANCH   9  16
ATOM     15  C   UNL     1       8.047   8.596  17.859  0.00  0.00    +0.000 C 
ATOM     16  O   UNL     1       8.821   8.988  18.986  0.00  0.00    +0.000 OA
ENDBRANCH   9  16
ENDBRANCH   1  12
BRANCH   7  17
ATOM     17  C   UNL     1       5.029  15.910  19.396  0.00  0.00    +0.000 A 
ATOM     18  C   UNL     1       4.621  15.060  20.431  0.00  0.00    +0.000 A 
ATOM     19  C   UNL     1       3.612  14.114  20.250  0.00  0.00    +0.000 A 
ATOM     20  C   UNL     1       2.892  14.070  19.053  0.00  0.00    +0.000 A 
ATOM     21  C   UNL     1       3.210  14.996  18.049  0.00  0.00    +0.000 A 
ATOM     22  C   UNL     1       4.277  15.896  18.218  0.00  0.00    +0.000 A 
BRANCH  20  23
ATOM     23  C   UNL     1       1.776  13.072  18.874  0.00  0.00    +0.000 C 
ATOM     24  F   UNL     1       1.049  12.859  20.009  0.00  0.00    +0.000 F 
ATOM     25  F   UNL     1       0.877  13.460  17.929  0.00  0.00    +0.000 F 
ATOM     26  F   UNL     1       2.221  11.843  18.488  0.00  0.00    +0.000 F 
ENDBRANCH  20  23
ENDBRANCH   7  17
TORSDOF 4
ENDMDL
