MODEL 1
REMARK VINA RESULT:      -7.6      0.000      0.000
REMARK  Name = 
REMARK  1 active torsions:
REMARK  status: ('A' for Active; 'I' for Inactive)
REMARK    1  A    between atoms: C_7  and  C_8
REMARK                            x       y       z     vdW  Elec       q    Type
REMARK                         _______ _______ _______ _____ _____    ______ ____
ROOT
ATOM      1  N   UNL     1       8.586   7.873  18.695  0.00  0.00    +0.000 N 
ATOM      2  C   UNL     1       7.785   6.958  18.151  0.00  0.00    +0.000 A 
ATOM      3  N   UNL     1       7.499   6.799  16.883  0.00  0.00    +0.000 NA
ATOM      4  C   UNL     1       6.572   5.791  16.895  0.00  0.00    +0.000 A 
ATOM      5  C   UNL     1       5.819   5.238  15.860  0.00  0.00    +0.000 A 
ATOM      6  C   UNL     1       4.856   4.271  16.191  0.00  0.00    +0.000 A 
ATOM      7  C   UNL     1       4.718   3.773  17.497  0.00  0.00    +0.000 A 
ATOM      8  C   UNL     1       5.492   4.321  18.544  0.00  0.00    +0.000 A 
ATOM      9  C   UNL     1       6.379   5.334  18.187  0.00  0.00    +0.000 A 
ATOM     10  O   UNL     1       7.177   6.083  19.007  0.00  0.00    +0.000 OA
ATOM     11  H   UNL     1       9.211   8.368  18.074  0.00  0.00    +0.000 HD
ATOM     12  H   UNL     1       8.908   7.739  19.643  0.00  0.00    +0.000 HD
ENDROOT
BRANCH   7  13
ATOM     13  C   UNL     1       3.655   2.785  17.862  0.00  0.00    +0.000 C 
ATOM     14  O   UNL     1       3.910   1.601  17.636  0.00  0.00    +0.000 OA
ATOM     15  N   UNL     1       2.468   3.173  18.474  0.00  0.00    +0.000 N 
ATOM     16  C   UNL     1       1.634   2.147  19.106  0.00  0.00    +0.000 C 
ATOM     17  C   UNL     1       1.348   2.528  20.575  0.00  0.00    +0.000 C 
ATOM     18  N   UNL     1       0.770   3.880  20.729  0.00  0.00    +0.000 NA
ATOM     19  C   UNL     1       1.598   4.882  20.030  0.00  0.00    +0.000 C 
ATOM     20  C   UNL     1       1.863   4.508  18.555  0.00  0.00    +0.000 C 
ATOM     21  H   UNL     1       0.722   4.112  21.720  0.00  0.00    +0.000 HD
ENDBRANCH   7  13
TORSDOF 1
ENDMDL
MODEL 2
REMARK VINA RESULT:      -7.5      2.265      3.395
REMARK  Name = 
REMARK  1 active torsions:
REMARK  status: ('A' for Active; 'I' for Inactive)
REMARK    1  A    between atoms: C_7  and  C_8
REMARK                            x       y       z     vdW  Elec       q    Type
REMARK                         _______ _______ _______ _____ _____    ______ ____
ROOT
ATOM      1  N   UNL     1       7.013   4.233  12.721  0.00  0.00    +0.000 N 
ATOM      2  C   UNL     1       6.749   4.654  13.956  0.00  0.00    +0.000 A 
ATOM      3  N   UNL     1       7.571   5.232  14.797  0.00  0.00    +0.000 NA
ATOM      4  C   UNL     1       6.816   5.364  15.932  0.00  0.00    +0.000 A 
ATOM      5  C   UNL     1       7.162   5.820  17.204  0.00  0.00    +0.000 A 
ATOM      6  C   UNL     1       6.192   5.744  18.216  0.00  0.00    +0.000 A 
ATOM      7  C   UNL     1       4.872   5.337  17.955  0.00  0.00    +0.000 A 
ATOM      8  C   UNL     1       4.517   4.891  16.663  0.00  0.00    +0.000 A 
ATOM      9  C   UNL     1       5.529   4.907  15.707  0.00  0.00    +0.000 A 
ATOM     10  O   UNL     1       5.478   4.455  14.417  0.00  0.00    +0.000 OA
ATOM     11  H   UNL     1       7.861   4.573  12.288  0.00  0.00    +0.000 HD
ATOM     12  H   UNL     1       6.244   4.028  12.099  0.00  0.00    +0.000 HD
ENDROOT
BRANCH   7  13
ATOM     13  C   UNL     1       3.853   5.202  19.043  0.00  0.00    +0.000 C 
ATOM     14  O   UNL     1       3.434   6.253  19.532  0.00  0.00    +0.000 OA
ATOM     15  N   UNL     1       3.363   3.964  19.442  0.00  0.00    +0.000 N 
ATOM     16  C   UNL     1       2.143   3.918  20.253  0.00  0.00    +0.000 C 
ATOM     17  C   UNL     1       1.098   2.997  19.585  0.00  0.00    +0.000 C 
ATOM     18  N   UNL     1       1.613   1.644  19.288  0.00  0.00    +0.000 NA
ATOM     19  C   UNL     1       2.873   1.724  18.524  0.00  0.00    +0.000 C 
ATOM     20  C   UNL     1       3.924   2.627  19.207  0.00  0.00    +0.000 C 
ATOM     21  H   UNL     1       0.918   1.135  18.742  0.00  0.00    +0.000 HD
ENDBRANCH   7  13
TORSDOF 1
ENDMDL
MODEL 3
REMARK VINA RESULT:      -7.3      2.239      3.114
REMARK  Name = 
REMARK  1 active torsions:
REMARK  status: ('A' for Active; 'I' for Inactive)
REMARK    1  A    between atoms: C_7  and  C_8
REMARK                            x       y       z     vdW  Elec       q    Type
REMARK                         _______ _______ _______ _____ _____    ______ ____
ROOT
ATOM      1  N   UNL     1       7.462   4.626  12.233  0.00  0.00    +0.000 N 
ATOM      2  C   UNL     1       7.070   4.672  13.505  0.00  0.00    +0.000 A 
ATOM      3  N   UNL     1       7.740   5.136  14.531  0.00  0.00    +0.000 NA
ATOM      4  C   UNL     1       6.921   4.857  15.592  0.00  0.00    +0.000 A 
ATOM      5  C   UNL     1       7.122   5.022  16.962  0.00  0.00    +0.000 A 
ATOM      6  C   UNL     1       6.131   4.543  17.834  0.00  0.00    +0.000 A 
ATOM      7  C   UNL     1       4.914   4.020  17.365  0.00  0.00    +0.000 A 
ATOM      8  C   UNL     1       4.703   3.868  15.977  0.00  0.00    +0.000 A 
ATOM      9  C   UNL     1       5.743   4.282  15.148  0.00  0.00    +0.000 A 
ATOM     10  O   UNL     1       5.832   4.171  13.788  0.00  0.00    +0.000 OA
ATOM     11  H   UNL     1       8.260   5.190  11.973  0.00  0.00    +0.000 HD
ATOM     12  H   UNL     1       6.770   4.471  11.513  0.00  0.00    +0.000 HD
ENDROOT
BRANCH   7  13
ATOM     13  C   UNL     1       3.882   3.458  18.292  0.00  0.00    +0.000 C 
ATOM     14  O   UNL     1       3.987   2.261  18.565  0.00  0.00    +0.000 OA
ATOM     15  N   UNL     1       2.892   4.252  18.859  0.00  0.00    +0.000 N 
ATOM     16  C   UNL     1       2.137   3.729  20.001  0.00  0.00    +0.000 C 
ATOM     17  C   UNL     1       2.210   4.720  21.183  0.00  0.00    +0.000 C 
ATOM     18  N   UNL     1       1.788   6.091  20.826  0.00  0.00    +0.000 NA
ATOM     19  C   UNL     1       2.520   6.567  19.637  0.00  0.00    +0.000 C 
ATOM     20  C   UNL     1       2.426   5.583  18.449  0.00  0.00    +0.000 C 
ATOM     21  H   UNL     1       1.977   6.713  21.611  0.00  0.00    +0.000 HD
ENDBRANCH   7  13
TORSDOF 1
ENDMDL
MODEL 4
REMARK VINA RESULT:      -7.2      1.683      2.406
REMARK  Name = 
REMARK  1 active torsions:
REMARK  status: ('A' for Active; 'I' for Inactive)
REMARK    1  A    between atoms: C_7  and  C_8
REMARK                            x       y       z     vdW  Elec       q    Type
REMARK                         _______ _______ _______ _____ _____    ______ ____
ROOT
ATOM      1  N   UNL     1       8.075   5.567  13.341  0.00  0.00    +0.000 N 
ATOM      2  C   UNL     1       7.369   5.314  14.441  0.00  0.00    +0.000 A 
ATOM      3  N   UNL     1       7.584   5.769  15.651  0.00  0.00    +0.000 NA
ATOM      4  C   UNL     1       6.633   5.129  16.400  0.00  0.00    +0.000 A 
ATOM      5  C   UNL     1       6.413   5.125  17.777  0.00  0.00    +0.000 A 
ATOM      6  C   UNL     1       5.413   4.279  18.281  0.00  0.00    +0.000 A 
ATOM      7  C   UNL     1       4.566   3.540  17.438  0.00  0.00    +0.000 A 
ATOM      8  C   UNL     1       4.778   3.556  16.041  0.00  0.00    +0.000 A 
ATOM      9  C   UNL     1       5.832   4.345  15.588  0.00  0.00    +0.000 A 
ATOM     10  O   UNL     1       6.300   4.473  14.309  0.00  0.00    +0.000 OA
ATOM     11  H   UNL     1       8.713   6.350  13.370  0.00  0.00    +0.000 HD
ATOM     12  H   UNL     1       7.670   5.352  12.440  0.00  0.00    +0.000 HD
ENDROOT
BRANCH   7  13
ATOM     13  C   UNL     1       3.538   2.595  17.975  0.00  0.00    +0.000 C 
ATOM     14  O   UNL     1       3.799   1.394  17.883  0.00  0.00    +0.000 OA
ATOM     15  N   UNL     1       2.378   3.045  18.595  0.00  0.00    +0.000 N 
ATOM     16  C   UNL     1       1.591   2.098  19.389  0.00  0.00    +0.000 C 
ATOM     17  C   UNL     1       1.373   2.655  20.814  0.00  0.00    +0.000 C 
ATOM     18  N   UNL     1       0.784   4.011  20.830  0.00  0.00    +0.000 NA
ATOM     19  C   UNL     1       1.561   4.926  19.972  0.00  0.00    +0.000 C 
ATOM     20  C   UNL     1       1.757   4.375  18.542  0.00  0.00    +0.000 C 
ATOM     21  H   UNL     1       0.782   4.362  21.787  0.00  0.00    +0.000 HD
ENDBRANCH   7  13
TORSDOF 1
ENDMDL
MODEL 5
REMARK VINA RESULT:      -7.2      3.583      5.332
REMARK  Name = 
REMARK  1 active torsions:
REMARK  status: ('A' for Active; 'I' for Inactive)
REMARK    1  A    between atoms: C_7  and  C_8
REMARK                            x       y       z     vdW  Elec       q    Type
REMARK                         _______ _______ _______ _____ _____    ______ ____
ROOT
ATOM      1  N   UNL     1      -0.257   9.452  22.537  0.00  0.00    +0.000 N 
ATOM      2  C   UNL     1       0.469   9.123  21.470  0.00  0.00    +0.000 A 
ATOM      3  N   UNL     1       0.618   9.807  20.363  0.00  0.00    +0.000 NA
ATOM      4  C   UNL     1       1.378   8.977  19.582  0.00  0.00    +0.000 A 
ATOM      5  C   UNL     1       1.788   9.103  18.255  0.00  0.00    +0.000 A 
ATOM      6  C   UNL     1       2.483   8.028  17.677  0.00  0.00    +0.000 A 
ATOM      7  C   UNL     1       2.870   6.902  18.423  0.00  0.00    +0.000 A 
ATOM      8  C   UNL     1       2.469   6.782  19.772  0.00  0.00    +0.000 A 
ATOM      9  C   UNL     1       1.712   7.832  20.285  0.00  0.00    +0.000 A 
ATOM     10  O   UNL     1       1.133   7.929  21.520  0.00  0.00    +0.000 OA
ATOM     11  H   UNL     1      -0.560  10.413  22.611  0.00  0.00    +0.000 HD
ATOM     12  H   UNL     1      -0.098   8.964  23.407  0.00  0.00    +0.000 HD
ENDROOT
BRANCH   7  13
ATOM     13  C   UNL     1       3.560   5.733  17.795  0.00  0.00    +0.000 C 
ATOM     14  O   UNL     1       4.740   5.901  17.478  0.00  0.00    +0.000 OA
ATOM     15  N   UNL     1       2.927   4.506  17.629  0.00  0.00    +0.000 N 
ATOM     16  C   UNL     1       3.744   3.327  17.331  0.00  0.00    +0.000 C 
ATOM     17  C   UNL     1       3.453   2.208  18.356  0.00  0.00    +0.000 C 
ATOM     18  N   UNL     1       2.018   1.871  18.464  0.00  0.00    +0.000 NA
ATOM     19  C   UNL     1       1.215   3.086  18.702  0.00  0.00    +0.000 C 
ATOM     20  C   UNL     1       1.493   4.194  17.662  0.00  0.00    +0.000 C 
ATOM     21  H   UNL     1       1.885   1.221  19.238  0.00  0.00    +0.000 HD
ENDBRANCH   7  13
TORSDOF 1
ENDMDL
MODEL 6
REMARK VINA RESULT:      -7.2      1.865      6.005
REMARK  Name = 
REMARK  1 active torsions:
REMARK  status: ('A' for Active; 'I' for Inactive)
REMARK    1  A    between atoms: C_7  and  C_8
REMARK                            x       y       z     vdW  Elec       q    Type
REMARK                         _______ _______ _______ _____ _____    ______ ____
ROOT
ATOM      1  N   UNL     1       1.457   2.664  22.119  0.00  0.00    +0.000 N 
ATOM      2  C   UNL     1       1.958   2.972  20.924  0.00  0.00    +0.000 A 
ATOM      3  N   UNL     1       1.913   2.254  19.830  0.00  0.00    +0.000 NA
ATOM      4  C   UNL     1       2.651   2.990  18.941  0.00  0.00    +0.000 A 
ATOM      5  C   UNL     1       3.048   2.705  17.636  0.00  0.00    +0.000 A 
ATOM      6  C   UNL     1       3.902   3.617  16.994  0.00  0.00    +0.000 A 
ATOM      7  C   UNL     1       4.262   4.841  17.581  0.00  0.00    +0.000 A 
ATOM      8  C   UNL     1       3.846   5.138  18.898  0.00  0.00    +0.000 A 
ATOM      9  C   UNL     1       3.067   4.172  19.529  0.00  0.00    +0.000 A 
ATOM     10  O   UNL     1       2.607   4.170  20.818  0.00  0.00    +0.000 OA
ATOM     11  H   UNL     1       0.788   1.907  22.159  0.00  0.00    +0.000 HD
ATOM     12  H   UNL     1       1.347   3.396  22.807  0.00  0.00    +0.000 HD
ENDROOT
BRANCH   7  13
ATOM     13  C   UNL     1       5.216   5.787  16.922  0.00  0.00    +0.000 C 
ATOM     14  O   UNL     1       4.764   6.459  15.993  0.00  0.00    +0.000 OA
ATOM     15  N   UNL     1       6.523   5.944  17.369  0.00  0.00    +0.000 N 
ATOM     16  C   UNL     1       7.288   7.109  16.914  0.00  0.00    +0.000 C 
ATOM     17  C   UNL     1       7.840   7.887  18.129  0.00  0.00    +0.000 C 
ATOM     18  N   UNL     1       8.620   7.045  19.059  0.00  0.00    +0.000 NA
ATOM     19  C   UNL     1       7.849   5.850  19.451  0.00  0.00    +0.000 C 
ATOM     20  C   UNL     1       7.318   5.062  18.233  0.00  0.00    +0.000 C 
ATOM     21  H   UNL     1       8.847   7.589  19.891  0.00  0.00    +0.000 HD
ENDBRANCH   7  13
TORSDOF 1
ENDMDL
MODEL 7
REMARK VINA RESULT:      -7.1      1.862      2.589
REMARK  Name = 
REMARK  1 active torsions:
REMARK  status: ('A' for Active; 'I' for Inactive)
REMARK    1  A    between atoms: C_7  and  C_8
REMARK                            x       y       z     vdW  Elec       q    Type
REMARK                         _______ _______ _______ _____ _____    ______ ____
ROOT
ATOM      1  N   UNL     1       7.512   5.167  13.383  0.00  0.00    +0.000 N 
ATOM      2  C   UNL     1       7.064   5.108  14.636  0.00  0.00    +0.000 A 
ATOM      3  N   UNL     1       7.396   5.881  15.640  0.00  0.00    +0.000 NA
ATOM      4  C   UNL     1       6.721   5.329  16.697  0.00  0.00    +0.000 A 
ATOM      5  C   UNL     1       6.745   5.646  18.054  0.00  0.00    +0.000 A 
ATOM      6  C   UNL     1       6.018   4.827  18.934  0.00  0.00    +0.000 A 
ATOM      7  C   UNL     1       5.189   3.790  18.473  0.00  0.00    +0.000 A 
ATOM      8  C   UNL     1       5.152   3.479  17.096  0.00  0.00    +0.000 A 
ATOM      9  C   UNL     1       5.949   4.263  16.267  0.00  0.00    +0.000 A 
ATOM     10  O   UNL     1       6.160   4.124  14.922  0.00  0.00    +0.000 OA
ATOM     11  H   UNL     1       7.992   6.011  13.102  0.00  0.00    +0.000 HD
ATOM     12  H   UNL     1       7.005   4.678  12.659  0.00  0.00    +0.000 HD
ENDROOT
BRANCH   7  13
ATOM     13  C   UNL     1       4.458   2.882  19.412  0.00  0.00    +0.000 C 
ATOM     14  O   UNL     1       5.156   2.172  20.139  0.00  0.00    +0.000 OA
ATOM     15  N   UNL     1       3.071   2.879  19.501  0.00  0.00    +0.000 N 
ATOM     16  C   UNL     1       2.441   2.232  20.655  0.00  0.00    +0.000 C 
ATOM     17  C   UNL     1       1.485   3.220  21.360  0.00  0.00    +0.000 C 
ATOM     18  N   UNL     1       0.485   3.817  20.450  0.00  0.00    +0.000 NA
ATOM     19  C   UNL     1       1.143   4.405  19.268  0.00  0.00    +0.000 C 
ATOM     20  C   UNL     1       2.082   3.407  18.553  0.00  0.00    +0.000 C 
ATOM     21  H   UNL     1      -0.028   4.543  20.949  0.00  0.00    +0.000 HD
ENDBRANCH   7  13
TORSDOF 1
ENDMDL
MODEL 8
REMARK VINA RESULT:      -7.1      4.009      5.427
REMARK  Name = 
REMARK  1 active torsions:
REMARK  status: ('A' for Active; 'I' for Inactive)
REMARK    1  A    between atoms: C_7  and  C_8
REMARK                            x       y       z     vdW  Elec       q    Type
REMARK                         _______ _______ _______ _____ _____    ______ ____
ROOT
ATOM      1  N   UNL     1       0.421  12.095  18.539  0.00  0.00    +0.000 N 
ATOM      2  C   UNL     1       0.782  10.846  18.829  0.00  0.00    +0.000 A 
ATOM      3  N   UNL     1       0.635  10.216  19.968  0.00  0.00    +0.000 NA
ATOM      4  C   UNL     1       1.254   9.015  19.744  0.00  0.00    +0.000 A 
ATOM      5  C   UNL     1       1.513   7.953  20.608  0.00  0.00    +0.000 A 
ATOM      6  C   UNL     1       2.271   6.876  20.119  0.00  0.00    +0.000 A 
ATOM      7  C   UNL     1       2.663   6.792  18.772  0.00  0.00    +0.000 A 
ATOM      8  C   UNL     1       2.386   7.861  17.892  0.00  0.00    +0.000 A 
ATOM      9  C   UNL     1       1.704   8.946  18.437  0.00  0.00    +0.000 A 
ATOM     10  O   UNL     1       1.386  10.132  17.834  0.00  0.00    +0.000 OA
ATOM     11  H   UNL     1      -0.221  12.550  19.173  0.00  0.00    +0.000 HD
ATOM     12  H   UNL     1       0.369  12.377  17.570  0.00  0.00    +0.000 HD
ENDROOT
BRANCH   7  13
ATOM     13  C   UNL     1       3.517   5.674  18.262  0.00  0.00    +0.000 C 
ATOM     14  O   UNL     1       4.727   5.900  18.189  0.00  0.00    +0.000 OA
ATOM     15  N   UNL     1       2.986   4.430  17.943  0.00  0.00    +0.000 N 
ATOM     16  C   UNL     1       3.899   3.295  17.780  0.00  0.00    +0.000 C 
ATOM     17  C   UNL     1       3.465   2.131  18.698  0.00  0.00    +0.000 C 
ATOM     18  N   UNL     1       2.053   1.733  18.512  0.00  0.00    +0.000 NA
ATOM     19  C   UNL     1       1.164   2.906  18.619  0.00  0.00    +0.000 C 
ATOM     20  C   UNL     1       1.589   4.059  17.684  0.00  0.00    +0.000 C 
ATOM     21  H   UNL     1       1.802   1.051  19.228  0.00  0.00    +0.000 HD
ENDBRANCH   7  13
TORSDOF 1
ENDMDL
MODEL 9
REMARK VINA RESULT:      -6.8      3.546      5.998
REMARK  Name = 
REMARK  1 active torsions:
REMARK  status: ('A' for Active; 'I' for Inactive)
REMARK    1  A    between atoms: C_7  and  C_8
REMARK                            x       y       z     vdW  Elec       q    Type
REMARK                         _______ _______ _______ _____ _____    ______ ____
ROOT
ATOM      1  N   UNL     1      -0.087   9.509  22.217  0.00  0.00    +0.000 N 
ATOM      2  C   UNL     1       0.654   9.097  21.188  0.00  0.00    +0.000 A 
ATOM      3  N   UNL     1       0.903   9.742  20.075  0.00  0.00    +0.000 NA
ATOM      4  C   UNL     1       1.624   8.835  19.344  0.00  0.00    +0.000 A 
ATOM      5  C   UNL     1       2.097   8.898  18.034  0.00  0.00    +0.000 A 
ATOM      6  C   UNL     1       2.725   7.757  17.506  0.00  0.00    +0.000 A 
ATOM      7  C   UNL     1       2.986   6.621  18.290  0.00  0.00    +0.000 A 
ATOM      8  C   UNL     1       2.522   6.564  19.623  0.00  0.00    +0.000 A 
ATOM      9  C   UNL     1       1.834   7.684  20.082  0.00  0.00    +0.000 A 
ATOM     10  O   UNL     1       1.214   7.856  21.290  0.00  0.00    +0.000 OA
ATOM     11  H   UNL     1      -0.313  10.493  22.260  0.00  0.00    +0.000 HD
ATOM     12  H   UNL     1      -0.004   9.029  23.102  0.00  0.00    +0.000 HD
ENDROOT
BRANCH   7  13
ATOM     13  C   UNL     1       3.604   5.385  17.715  0.00  0.00    +0.000 C 
ATOM     14  O   UNL     1       2.825   4.493  17.375  0.00  0.00    +0.000 OA
ATOM     15  N   UNL     1       4.976   5.270  17.520  0.00  0.00    +0.000 N 
ATOM     16  C   UNL     1       5.477   4.199  16.655  0.00  0.00    +0.000 C 
ATOM     17  C   UNL     1       6.381   4.790  15.550  0.00  0.00    +0.000 C 
ATOM     18  N   UNL     1       7.476   5.632  16.076  0.00  0.00    +0.000 NA
ATOM     19  C   UNL     1       6.948   6.661  16.992  0.00  0.00    +0.000 C 
ATOM     20  C   UNL     1       6.063   6.063  18.109  0.00  0.00    +0.000 C 
ATOM     21  H   UNL     1       7.953   6.084  15.297  0.00  0.00    +0.000 HD
ENDBRANCH   7  13
TORSDOF 1
ENDMDL
