MODEL 1
REMARK VINA RESULT:      -8.8      0.000      0.000
REMARK  Name = 
REMARK  9 active torsions:
REMARK  status: ('A' for Active; 'I' for Inactive)
REMARK    1  A    between atoms: C_1  and  O_2
REMARK    2  A    between atoms: O_2  and  C_3
REMARK    3  A    between atoms: C_3  and  C_5
REMARK    4  A    between atoms: C_9  and  N_10
REMARK    5  A    between atoms: C_11  and  C_13
REMARK    6  A    between atoms: C_15  and  N_16
REMARK    7  A    between atoms: C_18  and  C_19
REMARK    8  A    between atoms: C_19  and  N_20
REMARK    9  A    between atoms: C_31  and  O_32
REMARK                            x       y       z     vdW  Elec       q    Type
REMARK                         _______ _______ _______ _____ _____    ______ ____
ROOT
ATOM      1  C   UNL     1       0.824   9.980  20.076  0.00  0.00    +0.000 A 
ATOM      2  C   UNL     1       1.213   8.659  20.337  0.00  0.00    +0.000 A 
ATOM      3  C   UNL     1       1.841   7.890  19.356  0.00  0.00    +0.000 A 
ATOM      4  C   UNL     1       2.037   8.420  18.078  0.00  0.00    +0.000 A 
ATOM      5  C   UNL     1       1.654   9.740  17.810  0.00  0.00    +0.000 A 
ATOM      6  C   UNL     1       1.051  10.518  18.807  0.00  0.00    +0.000 A 
ENDROOT
BRANCH   3   7
ATOM      7  N   UNL     1       2.338   6.611  19.692  0.00  0.00    +0.000 N 
ATOM      8  C   UNL     1       3.324   5.907  19.045  0.00  0.00    +0.000 A 
ATOM      9  C   UNL     1       3.380   4.699  19.699  0.00  0.00    +0.000 A 
ATOM     10  N   UNL     1       2.480   4.711  20.730  0.00  0.00    +0.000 NA
ATOM     11  N   UNL     1       1.828   5.867  20.698  0.00  0.00    +0.000 NA
BRANCH   9  12
ATOM     12  C   UNL     1       4.214   3.504  19.385  0.00  0.00    +0.000 C 
BRANCH  12  13
ATOM     13  N   UNL     1       4.999   3.600  18.165  0.00  0.00    +0.000 N 
ATOM     14  C   UNL     1       6.001   4.556  18.235  0.00  0.00    +0.000 A 
ATOM     15  N   UNL     1       6.582   4.832  19.412  0.00  0.00    +0.000 NA
ATOM     16  C   UNL     1       7.539   5.776  19.420  0.00  0.00    +0.000 A 
ATOM     17  C   UNL     1       7.930   6.460  18.299  0.00  0.00    +0.000 A 
ATOM     18  C   UNL     1       7.273   6.113  17.144  0.00  0.00    +0.000 A 
ATOM     19  N   UNL     1       6.305   5.176  17.089  0.00  0.00    +0.000 NA
ATOM     20  H   UNL     1       4.480   3.770  17.314  0.00  0.00    +0.000 HD
ENDBRANCH  12  13
ENDBRANCH   9  12
ENDBRANCH   3   7
BRANCH   1  22
ATOM     21  N   UNL     1      -0.697  11.659  21.019  0.00  0.00    +0.000 N 
ATOM     22  C   UNL     1       0.305  10.736  21.245  0.00  0.00    +0.000 C 
ATOM     23  O   UNL     1       0.772  10.440  22.344  0.00  0.00    +0.000 OA
ATOM     24  H   UNL     1      -1.089  11.695  20.084  0.00  0.00    +0.000 HD
BRANCH  21  29
ATOM     25  C   UNL     1      -3.087  13.135  23.455  0.00  0.00    +0.000 A 
ATOM     26  C   UNL     1      -2.359  14.239  23.921  0.00  0.00    +0.000 A 
ATOM     27  C   UNL     1      -1.089  14.493  23.428  0.00  0.00    +0.000 A 
ATOM     28  C   UNL     1      -0.535  13.642  22.472  0.00  0.00    +0.000 A 
ATOM     29  C   UNL     1      -1.234  12.529  21.998  0.00  0.00    +0.000 A 
ATOM     30  C   UNL     1      -2.525  12.285  22.485  0.00  0.00    +0.000 A 
BRANCH  25  31
ATOM     31  C   UNL     1      -4.450  12.839  23.975  0.00  0.00    +0.000 C 
ATOM     32  O   UNL     1      -4.701  11.937  24.756  0.00  0.00    +0.000 OA
BRANCH  31  34
ATOM     33  C   UNL     1      -6.196  13.170  22.438  0.00  0.00    +0.000 C 
ATOM     34  O   UNL     1      -5.343  13.711  23.445  0.00  0.00    +0.000 OA
ENDBRANCH  31  34
ENDBRANCH  25  31
ENDBRANCH  21  29
ENDBRANCH   1  22
BRANCH   6  35
ATOM     35  O   UNL     1       0.716  11.815  18.535  0.00  0.00    +0.000 OA
ATOM     36  H   UNL     1      -0.047  11.821  17.928  0.00  0.00    +0.000 HD
ENDBRANCH   6  35
TORSDOF 8
ENDMDL
MODEL 2
REMARK VINA RESULT:      -8.8      0.890      1.113
REMARK  Name = 
REMARK  9 active torsions:
REMARK  status: ('A' for Active; 'I' for Inactive)
REMARK    1  A    between atoms: C_1  and  O_2
REMARK    2  A    between atoms: O_2  and  C_3
REMARK    3  A    between atoms: C_3  and  C_5
REMARK    4  A    between atoms: C_9  and  N_10
REMARK    5  A    between atoms: C_11  and  C_13
REMARK    6  A    between atoms: C_15  and  N_16
REMARK    7  A    between atoms: C_18  and  C_19
REMARK    8  A    between atoms: C_19  and  N_20
REMARK    9  A    between atoms: C_31  and  O_32
REMARK                            x       y       z     vdW  Elec       q    Type
REMARK                         _______ _______ _______ _____ _____    ______ ____
ROOT
ATOM      1  C   UNL     1       0.799   9.960  20.118  0.00  0.00    +0.000 A 
ATOM      2  C   UNL     1       1.219   8.644  20.359  0.00  0.00    +0.000 A 
ATOM      3  C   UNL     1       1.884   7.912  19.374  0.00  0.00    +0.000 A 
ATOM      4  C   UNL     1       2.088   8.474  18.111  0.00  0.00    +0.000 A 
ATOM      5  C   UNL     1       1.674   9.789  17.863  0.00  0.00    +0.000 A 
ATOM      6  C   UNL     1       1.033  10.530  18.865  0.00  0.00    +0.000 A 
ENDROOT
BRANCH   3   7
ATOM      7  N   UNL     1       2.409   6.640  19.693  0.00  0.00    +0.000 N 
ATOM      8  C   UNL     1       3.458   5.999  19.082  0.00  0.00    +0.000 A 
ATOM      9  C   UNL     1       3.521   4.769  19.694  0.00  0.00    +0.000 A 
ATOM     10  N   UNL     1       2.563   4.709  20.669  0.00  0.00    +0.000 NA
ATOM     11  N   UNL     1       1.869   5.841  20.639  0.00  0.00    +0.000 NA
BRANCH   9  12
ATOM     12  C   UNL     1       4.419   3.618  19.389  0.00  0.00    +0.000 C 
BRANCH  12  13
ATOM     13  N   UNL     1       4.377   3.149  18.013  0.00  0.00    +0.000 N 
ATOM     14  C   UNL     1       5.279   3.802  17.187  0.00  0.00    +0.000 A 
ATOM     15  N   UNL     1       6.435   4.261  17.688  0.00  0.00    +0.000 NA
ATOM     16  C   UNL     1       7.265   4.896  16.842  0.00  0.00    +0.000 A 
ATOM     17  C   UNL     1       6.979   5.096  15.517  0.00  0.00    +0.000 A 
ATOM     18  C   UNL     1       5.770   4.597  15.099  0.00  0.00    +0.000 A 
ATOM     19  N   UNL     1       4.905   3.958  15.912  0.00  0.00    +0.000 NA
ATOM     20  H   UNL     1       3.474   3.183  17.558  0.00  0.00    +0.000 HD
ENDBRANCH  12  13
ENDBRANCH   9  12
ENDBRANCH   3   7
BRANCH   1  22
ATOM     21  N   UNL     1      -0.706  11.656  21.057  0.00  0.00    +0.000 N 
ATOM     22  C   UNL     1       0.240  10.678  21.293  0.00  0.00    +0.000 C 
ATOM     23  O   UNL     1       0.624  10.305  22.401  0.00  0.00    +0.000 OA
ATOM     24  H   UNL     1      -1.038  11.757  20.103  0.00  0.00    +0.000 HD
BRANCH  21  29
ATOM     25  C   UNL     1      -3.130  13.028  23.519  0.00  0.00    +0.000 A 
ATOM     26  C   UNL     1      -2.437  14.150  23.993  0.00  0.00    +0.000 A 
ATOM     27  C   UNL     1      -1.179  14.451  23.496  0.00  0.00    +0.000 A 
ATOM     28  C   UNL     1      -0.603  13.628  22.529  0.00  0.00    +0.000 A 
ATOM     29  C   UNL     1      -1.267  12.498  22.047  0.00  0.00    +0.000 A 
ATOM     30  C   UNL     1      -2.546  12.207  22.538  0.00  0.00    +0.000 A 
BRANCH  25  31
ATOM     31  C   UNL     1      -4.480  12.682  24.043  0.00  0.00    +0.000 C 
ATOM     32  O   UNL     1      -4.673  11.955  25.003  0.00  0.00    +0.000 OA
BRANCH  31  34
ATOM     33  C   UNL     1      -6.686  13.483  23.946  0.00  0.00    +0.000 C 
ATOM     34  O   UNL     1      -5.434  13.287  23.292  0.00  0.00    +0.000 OA
ENDBRANCH  31  34
ENDBRANCH  25  31
ENDBRANCH  21  29
ENDBRANCH   1  22
BRANCH   6  35
ATOM     35  O   UNL     1       0.668  11.822  18.613  0.00  0.00    +0.000 OA
ATOM     36  H   UNL     1       0.248  11.864  17.734  0.00  0.00    +0.000 HD
ENDBRANCH   6  35
TORSDOF 8
ENDMDL
MODEL 3
REMARK VINA RESULT:      -8.6      4.963     11.701
REMARK  Name = 
REMARK  9 active torsions:
REMARK  status: ('A' for Active; 'I' for Inactive)
REMARK    1  A    between atoms: C_1  and  O_2
REMARK    2  A    between atoms: O_2  and  C_3
REMARK    3  A    between atoms: C_3  and  C_5
REMARK    4  A    between atoms: C_9  and  N_10
REMARK    5  A    between atoms: C_11  and  C_13
REMARK    6  A    between atoms: C_15  and  N_16
REMARK    7  A    between atoms: C_18  and  C_19
REMARK    8  A    between atoms: C_19  and  N_20
REMARK    9  A    between atoms: C_31  and  O_32
REMARK                            x       y       z     vdW  Elec       q    Type
REMARK                         _______ _______ _______ _____ _____    ______ ____
ROOT
ATOM      1  C   UNL     1       3.639   4.906  18.074  0.00  0.00    +0.000 A 
ATOM      2  C   UNL     1       3.109   6.185  17.847  0.00  0.00    +0.000 A 
ATOM      3  C   UNL     1       2.440   6.873  18.860  0.00  0.00    +0.000 A 
ATOM      4  C   UNL     1       2.245   6.263  20.102  0.00  0.00    +0.000 A 
ATOM      5  C   UNL     1       2.773   4.988  20.337  0.00  0.00    +0.000 A 
ATOM      6  C   UNL     1       3.470   4.313  19.327  0.00  0.00    +0.000 A 
ENDROOT
BRANCH   3   7
ATOM      7  N   UNL     1       2.035   8.208  18.639  0.00  0.00    +0.000 N 
ATOM      8  C   UNL     1       1.192   8.960  19.420  0.00  0.00    +0.000 A 
ATOM      9  C   UNL     1       1.050  10.147  18.740  0.00  0.00    +0.000 A 
ATOM     10  N   UNL     1       1.825  10.108  17.612  0.00  0.00    +0.000 NA
ATOM     11  N   UNL     1       2.396   8.911  17.543  0.00  0.00    +0.000 NA
BRANCH   9  12
ATOM     12  C   UNL     1       0.189  11.318  19.074  0.00  0.00    +0.000 C 
BRANCH  12  13
ATOM     13  N   UNL     1      -0.829  11.639  18.087  0.00  0.00    +0.000 N 
ATOM     14  C   UNL     1      -2.065  11.918  18.650  0.00  0.00    +0.000 A 
ATOM     15  N   UNL     1      -2.136  12.473  19.869  0.00  0.00    +0.000 NA
ATOM     16  C   UNL     1      -3.361  12.710  20.368  0.00  0.00    +0.000 A 
ATOM     17  C   UNL     1      -4.518  12.407  19.697  0.00  0.00    +0.000 A 
ATOM     18  C   UNL     1      -4.343  11.835  18.461  0.00  0.00    +0.000 A 
ATOM     19  N   UNL     1      -3.135  11.575  17.923  0.00  0.00    +0.000 NA
ATOM     20  H   UNL     1      -0.978  10.951  17.361  0.00  0.00    +0.000 HD
ENDBRANCH  12  13
ENDBRANCH   9  12
ENDBRANCH   3   7
BRANCH   1  22
ATOM     21  N   UNL     1       5.012   5.237  16.068  0.00  0.00    +0.000 N 
ATOM     22  C   UNL     1       4.456   4.348  16.966  0.00  0.00    +0.000 C 
ATOM     23  O   UNL     1       4.624   3.129  16.964  0.00  0.00    +0.000 OA
ATOM     24  H   UNL     1       4.913   6.226  16.275  0.00  0.00    +0.000 HD
BRANCH  21  29
ATOM     25  C   UNL     1       5.782   3.732  12.757  0.00  0.00    +0.000 A 
ATOM     26  C   UNL     1       7.124   4.101  12.591  0.00  0.00    +0.000 A 
ATOM     27  C   UNL     1       7.768   4.839  13.571  0.00  0.00    +0.000 A 
ATOM     28  C   UNL     1       7.074   5.219  14.719  0.00  0.00    +0.000 A 
ATOM     29  C   UNL     1       5.733   4.873  14.905  0.00  0.00    +0.000 A 
ATOM     30  C   UNL     1       5.090   4.112  13.921  0.00  0.00    +0.000 A 
BRANCH  25  31
ATOM     31  C   UNL     1       5.069   2.944  11.715  0.00  0.00    +0.000 C 
ATOM     32  O   UNL     1       5.410   1.833  11.346  0.00  0.00    +0.000 OA
BRANCH  31  34
ATOM     33  C   UNL     1       3.211   2.980  10.277  0.00  0.00    +0.000 C 
ATOM     34  O   UNL     1       4.008   3.651  11.250  0.00  0.00    +0.000 OA
ENDBRANCH  31  34
ENDBRANCH  25  31
ENDBRANCH  21  29
ENDBRANCH   1  22
BRANCH   6  35
ATOM     35  O   UNL     1       4.007   3.084  19.589  0.00  0.00    +0.000 OA
ATOM     36  H   UNL     1       4.864   3.205  20.038  0.00  0.00    +0.000 HD
ENDBRANCH   6  35
TORSDOF 8
ENDMDL
MODEL 4
REMARK VINA RESULT:      -8.5      3.602      5.341
REMARK  Name = 
REMARK  9 active torsions:
REMARK  status: ('A' for Active; 'I' for Inactive)
REMARK    1  A    between atoms: C_1  and  O_2
REMARK    2  A    between atoms: O_2  and  C_3
REMARK    3  A    between atoms: C_3  and  C_5
REMARK    4  A    between atoms: C_9  and  N_10
REMARK    5  A    between atoms: C_11  and  C_13
REMARK    6  A    between atoms: C_15  and  N_16
REMARK    7  A    between atoms: C_18  and  C_19
REMARK    8  A    between atoms: C_19  and  N_20
REMARK    9  A    between atoms: C_31  and  O_32
REMARK                            x       y       z     vdW  Elec       q    Type
REMARK                         _______ _______ _______ _____ _____    ______ ____
ROOT
ATOM      1  C   UNL     1      -0.009  10.123  20.193  0.00  0.00    +0.000 A 
ATOM      2  C   UNL     1       0.725   9.046  19.676  0.00  0.00    +0.000 A 
ATOM      3  C   UNL     1       1.522   8.257  20.507  0.00  0.00    +0.000 A 
ATOM      4  C   UNL     1       1.637   8.574  21.863  0.00  0.00    +0.000 A 
ATOM      5  C   UNL     1       0.906   9.647  22.387  0.00  0.00    +0.000 A 
ATOM      6  C   UNL     1       0.084  10.417  21.555  0.00  0.00    +0.000 A 
ENDROOT
BRANCH   3   7
ATOM      7  N   UNL     1       2.142   7.103  19.979  0.00  0.00    +0.000 N 
ATOM      8  C   UNL     1       2.727   6.967  18.744  0.00  0.00    +0.000 A 
ATOM      9  C   UNL     1       3.103   5.646  18.677  0.00  0.00    +0.000 A 
ATOM     10  N   UNL     1       2.785   5.034  19.859  0.00  0.00    +0.000 NA
ATOM     11  N   UNL     1       2.171   5.922  20.633  0.00  0.00    +0.000 NA
BRANCH   9  12
ATOM     12  C   UNL     1       3.718   4.906  17.538  0.00  0.00    +0.000 C 
BRANCH  12  13
ATOM     13  N   UNL     1       4.606   5.691  16.697  0.00  0.00    +0.000 N 
ATOM     14  C   UNL     1       5.789   6.041  17.330  0.00  0.00    +0.000 A 
ATOM     15  N   UNL     1       6.313   5.232  18.262  0.00  0.00    +0.000 NA
ATOM     16  C   UNL     1       7.455   5.629  18.850  0.00  0.00    +0.000 A 
ATOM     17  C   UNL     1       8.088   6.807  18.547  0.00  0.00    +0.000 A 
ATOM     18  C   UNL     1       7.470   7.570  17.587  0.00  0.00    +0.000 A 
ATOM     19  N   UNL     1       6.324   7.214  16.974  0.00  0.00    +0.000 NA
ATOM     20  H   UNL     1       4.215   6.537  16.303  0.00  0.00    +0.000 HD
ENDBRANCH  12  13
ENDBRANCH   9  12
ENDBRANCH   3   7
BRANCH   1  22
ATOM     21  N   UNL     1      -1.906  10.008  18.641  0.00  0.00    +0.000 N 
ATOM     22  C   UNL     1      -0.932  10.786  19.235  0.00  0.00    +0.000 C 
ATOM     23  O   UNL     1      -0.795  12.000  19.087  0.00  0.00    +0.000 OA
ATOM     24  H   UNL     1      -1.996   9.051  18.968  0.00  0.00    +0.000 HD
BRANCH  21  29
ATOM     25  C   UNL     1      -3.503  10.420  15.309  0.00  0.00    +0.000 A 
ATOM     26  C   UNL     1      -4.531  11.325  15.606  0.00  0.00    +0.000 A 
ATOM     27  C   UNL     1      -4.690  11.797  16.899  0.00  0.00    +0.000 A 
ATOM     28  C   UNL     1      -3.827  11.362  17.905  0.00  0.00    +0.000 A 
ATOM     29  C   UNL     1      -2.800  10.453  17.638  0.00  0.00    +0.000 A 
ATOM     30  C   UNL     1      -2.631   9.992  16.327  0.00  0.00    +0.000 A 
BRANCH  25  31
ATOM     31  C   UNL     1      -3.318   9.894  13.929  0.00  0.00    +0.000 C 
ATOM     32  O   UNL     1      -2.230   9.660  13.428  0.00  0.00    +0.000 OA
BRANCH  31  34
ATOM     33  C   UNL     1      -4.518   9.828  11.910  0.00  0.00    +0.000 C 
ATOM     34  O   UNL     1      -4.525   9.731  13.333  0.00  0.00    +0.000 OA
ENDBRANCH  31  34
ENDBRANCH  25  31
ENDBRANCH  21  29
ENDBRANCH   1  22
BRANCH   6  35
ATOM     35  O   UNL     1      -0.648  11.438  22.094  0.00  0.00    +0.000 OA
ATOM     36  H   UNL     1      -0.827  12.097  21.398  0.00  0.00    +0.000 HD
ENDBRANCH   6  35
TORSDOF 8
ENDMDL
MODEL 5
REMARK VINA RESULT:      -8.5      4.949     11.521
REMARK  Name = 
REMARK  9 active torsions:
REMARK  status: ('A' for Active; 'I' for Inactive)
REMARK    1  A    between atoms: C_1  and  O_2
REMARK    2  A    between atoms: O_2  and  C_3
REMARK    3  A    between atoms: C_3  and  C_5
REMARK    4  A    between atoms: C_9  and  N_10
REMARK    5  A    between atoms: C_11  and  C_13
REMARK    6  A    between atoms: C_15  and  N_16
REMARK    7  A    between atoms: C_18  and  C_19
REMARK    8  A    between atoms: C_19  and  N_20
REMARK    9  A    between atoms: C_31  and  O_32
REMARK                            x       y       z     vdW  Elec       q    Type
REMARK                         _______ _______ _______ _____ _____    ______ ____
ROOT
ATOM      1  C   UNL     1       3.899   4.600  18.772  0.00  0.00    +0.000 A 
ATOM      2  C   UNL     1       3.240   5.833  18.881  0.00  0.00    +0.000 A 
ATOM      3  C   UNL     1       2.302   6.057  19.890  0.00  0.00    +0.000 A 
ATOM      4  C   UNL     1       1.971   5.025  20.772  0.00  0.00    +0.000 A 
ATOM      5  C   UNL     1       2.627   3.792  20.671  0.00  0.00    +0.000 A 
ATOM      6  C   UNL     1       3.589   3.581  19.676  0.00  0.00    +0.000 A 
ENDROOT
BRANCH   3   7
ATOM      7  N   UNL     1       1.755   7.350  20.052  0.00  0.00    +0.000 N 
ATOM      8  C   UNL     1       1.783   8.381  19.145  0.00  0.00    +0.000 A 
ATOM      9  C   UNL     1       1.201   9.440  19.801  0.00  0.00    +0.000 A 
ATOM     10  N   UNL     1       0.803   9.028  21.044  0.00  0.00    +0.000 NA
ATOM     11  N   UNL     1       1.174   7.762  21.199  0.00  0.00    +0.000 NA
BRANCH   9  12
ATOM     12  C   UNL     1       1.027  10.846  19.336  0.00  0.00    +0.000 C 
BRANCH  12  13
ATOM     13  N   UNL     1       0.236  11.004  18.126  0.00  0.00    +0.000 N 
ATOM     14  C   UNL     1      -1.091  11.313  18.379  0.00  0.00    +0.000 A 
ATOM     15  N   UNL     1      -1.419  12.016  19.473  0.00  0.00    +0.000 NA
ATOM     16  C   UNL     1      -2.723  12.275  19.671  0.00  0.00    +0.000 A 
ATOM     17  C   UNL     1      -3.712  11.850  18.822  0.00  0.00    +0.000 A 
ATOM     18  C   UNL     1      -3.279  11.131  17.735  0.00  0.00    +0.000 A 
ATOM     19  N   UNL     1      -1.984  10.844  17.498  0.00  0.00    +0.000 NA
ATOM     20  H   UNL     1       0.247  10.225  17.482  0.00  0.00    +0.000 HD
ENDBRANCH  12  13
ENDBRANCH   9  12
ENDBRANCH   3   7
BRANCH   1  22
ATOM     21  N   UNL     1       4.633   4.775  16.437  0.00  0.00    +0.000 N 
ATOM     22  C   UNL     1       4.979   4.541  17.754  0.00  0.00    +0.000 C 
ATOM     23  O   UNL     1       6.120   4.344  18.170  0.00  0.00    +0.000 OA
ATOM     24  H   UNL     1       3.679   5.071  16.256  0.00  0.00    +0.000 HD
BRANCH  21  29
ATOM     25  C   UNL     1       5.969   3.779  13.114  0.00  0.00    +0.000 A 
ATOM     26  C   UNL     1       7.231   4.388  13.130  0.00  0.00    +0.000 A 
ATOM     27  C   UNL     1       7.637   5.118  14.236  0.00  0.00    +0.000 A 
ATOM     28  C   UNL     1       6.781   5.251  15.329  0.00  0.00    +0.000 A 
ATOM     29  C   UNL     1       5.514   4.663  15.335  0.00  0.00    +0.000 A 
ATOM     30  C   UNL     1       5.114   3.911  14.223  0.00  0.00    +0.000 A 
BRANCH  25  31
ATOM     31  C   UNL     1       5.510   2.995  11.935  0.00  0.00    +0.000 C 
ATOM     32  O   UNL     1       4.368   3.013  11.506  0.00  0.00    +0.000 OA
BRANCH  31  34
ATOM     33  C   UNL     1       6.224   0.928  11.078  0.00  0.00    +0.000 C 
ATOM     34  O   UNL     1       6.542   2.272  11.434  0.00  0.00    +0.000 OA
ENDBRANCH  31  34
ENDBRANCH  25  31
ENDBRANCH  21  29
ENDBRANCH   1  22
BRANCH   6  35
ATOM     35  O   UNL     1       4.241   2.382  19.617  0.00  0.00    +0.000 OA
ATOM     36  H   UNL     1       4.588   2.169  20.503  0.00  0.00    +0.000 HD
ENDBRANCH   6  35
TORSDOF 8
ENDMDL
MODEL 6
REMARK VINA RESULT:      -8.4      1.800      2.462
REMARK  Name = 
REMARK  9 active torsions:
REMARK  status: ('A' for Active; 'I' for Inactive)
REMARK    1  A    between atoms: C_1  and  O_2
REMARK    2  A    between atoms: O_2  and  C_3
REMARK    3  A    between atoms: C_3  and  C_5
REMARK    4  A    between atoms: C_9  and  N_10
REMARK    5  A    between atoms: C_11  and  C_13
REMARK    6  A    between atoms: C_15  and  N_16
REMARK    7  A    between atoms: C_18  and  C_19
REMARK    8  A    between atoms: C_19  and  N_20
REMARK    9  A    between atoms: C_31  and  O_32
REMARK                            x       y       z     vdW  Elec       q    Type
REMARK                         _______ _______ _______ _____ _____    ______ ____
ROOT
ATOM      1  C   UNL     1       0.478  10.176  20.568  0.00  0.00    +0.000 A 
ATOM      2  C   UNL     1       0.875   8.843  20.740  0.00  0.00    +0.000 A 
ATOM      3  C   UNL     1       1.593   8.175  19.747  0.00  0.00    +0.000 A 
ATOM      4  C   UNL     1       1.876   8.822  18.542  0.00  0.00    +0.000 A 
ATOM      5  C   UNL     1       1.485  10.156  18.363  0.00  0.00    +0.000 A 
ATOM      6  C   UNL     1       0.791  10.831  19.375  0.00  0.00    +0.000 A 
ENDROOT
BRANCH   3   7
ATOM      7  N   UNL     1       2.090   6.878  20.006  0.00  0.00    +0.000 N 
ATOM      8  C   UNL     1       3.133   6.248  19.372  0.00  0.00    +0.000 A 
ATOM      9  C   UNL     1       3.166   4.988  19.922  0.00  0.00    +0.000 A 
ATOM     10  N   UNL     1       2.196   4.897  20.883  0.00  0.00    +0.000 NA
ATOM     11  N   UNL     1       1.525   6.043  20.904  0.00  0.00    +0.000 NA
BRANCH   9  12
ATOM     12  C   UNL     1       4.044   3.836  19.566  0.00  0.00    +0.000 C 
BRANCH  12  13
ATOM     13  N   UNL     1       4.028   3.457  18.162  0.00  0.00    +0.000 N 
ATOM     14  C   UNL     1       5.096   3.974  17.445  0.00  0.00    +0.000 A 
ATOM     15  N   UNL     1       6.272   4.186  18.054  0.00  0.00    +0.000 NA
ATOM     16  C   UNL     1       7.267   4.700  17.312  0.00  0.00    +0.000 A 
ATOM     17  C   UNL     1       7.128   5.019  15.986  0.00  0.00    +0.000 A 
ATOM     18  C   UNL     1       5.886   4.775  15.454  0.00  0.00    +0.000 A 
ATOM     19  N   UNL     1       4.859   4.264  16.161  0.00  0.00    +0.000 NA
ATOM     20  H   UNL     1       3.185   3.680  17.650  0.00  0.00    +0.000 HD
ENDBRANCH  12  13
ENDBRANCH   9  12
ENDBRANCH   3   7
BRANCH   1  22
ATOM     21  N   UNL     1      -1.147  11.740  21.536  0.00  0.00    +0.000 N 
ATOM     22  C   UNL     1      -0.146  10.816  21.757  0.00  0.00    +0.000 C 
ATOM     23  O   UNL     1       0.241  10.427  22.858  0.00  0.00    +0.000 OA
ATOM     24  H   UNL     1      -1.467  11.856  20.579  0.00  0.00    +0.000 HD
BRANCH  21  29
ATOM     25  C   UNL     1      -1.684  14.373  24.105  0.00  0.00    +0.000 A 
ATOM     26  C   UNL     1      -2.971  14.055  24.561  0.00  0.00    +0.000 A 
ATOM     27  C   UNL     1      -3.651  12.975  24.024  0.00  0.00    +0.000 A 
ATOM     28  C   UNL     1      -3.055  12.210  23.022  0.00  0.00    +0.000 A 
ATOM     29  C   UNL     1      -1.777  12.510  22.542  0.00  0.00    +0.000 A 
ATOM     30  C   UNL     1      -1.085  13.592  23.100  0.00  0.00    +0.000 A 
BRANCH  25  31
ATOM     31  C   UNL     1      -0.936  15.533  24.663  0.00  0.00    +0.000 C 
ATOM     32  O   UNL     1       0.048  16.026  24.139  0.00  0.00    +0.000 OA
BRANCH  31  34
ATOM     33  C   UNL     1      -1.489  17.343  26.055  0.00  0.00    +0.000 C 
ATOM     34  O   UNL     1      -1.512  15.936  25.823  0.00  0.00    +0.000 OA
ENDBRANCH  31  34
ENDBRANCH  25  31
ENDBRANCH  21  29
ENDBRANCH   1  22
BRANCH   6  35
ATOM     35  O   UNL     1       0.449  12.142  19.194  0.00  0.00    +0.000 OA
ATOM     36  H   UNL     1       1.202  12.609  18.788  0.00  0.00    +0.000 HD
ENDBRANCH   6  35
TORSDOF 8
ENDMDL
MODEL 7
REMARK VINA RESULT:      -8.4      5.425     11.298
REMARK  Name = 
REMARK  9 active torsions:
REMARK  status: ('A' for Active; 'I' for Inactive)
REMARK    1  A    between atoms: C_1  and  O_2
REMARK    2  A    between atoms: O_2  and  C_3
REMARK    3  A    between atoms: C_3  and  C_5
REMARK    4  A    between atoms: C_9  and  N_10
REMARK    5  A    between atoms: C_11  and  C_13
REMARK    6  A    between atoms: C_15  and  N_16
REMARK    7  A    between atoms: C_18  and  C_19
REMARK    8  A    between atoms: C_19  and  N_20
REMARK    9  A    between atoms: C_31  and  O_32
REMARK                            x       y       z     vdW  Elec       q    Type
REMARK                         _______ _______ _______ _____ _____    ______ ____
ROOT
ATOM      1  C   UNL     1       4.067   4.499  18.718  0.00  0.00    +0.000 A 
ATOM      2  C   UNL     1       3.378   5.718  18.798  0.00  0.00    +0.000 A 
ATOM      3  C   UNL     1       2.463   5.958  19.825  0.00  0.00    +0.000 A 
ATOM      4  C   UNL     1       2.187   4.954  20.757  0.00  0.00    +0.000 A 
ATOM      5  C   UNL     1       2.873   3.735  20.685  0.00  0.00    +0.000 A 
ATOM      6  C   UNL     1       3.812   3.510  19.670  0.00  0.00    +0.000 A 
ENDROOT
BRANCH   3   7
ATOM      7  N   UNL     1       1.886   7.241  19.952  0.00  0.00    +0.000 N 
ATOM      8  C   UNL     1       1.850   8.232  19.001  0.00  0.00    +0.000 A 
ATOM      9  C   UNL     1       1.263   9.303  19.633  0.00  0.00    +0.000 A 
ATOM     10  N   UNL     1       0.924   8.935  20.907  0.00  0.00    +0.000 NA
ATOM     11  N   UNL     1       1.337   7.688  21.102  0.00  0.00    +0.000 NA
BRANCH   9  12
ATOM     12  C   UNL     1       1.031  10.681  19.114  0.00  0.00    +0.000 C 
BRANCH  12  13
ATOM     13  N   UNL     1       0.935  11.716  20.131  0.00  0.00    +0.000 N 
ATOM     14  C   UNL     1       1.874  12.724  19.975  0.00  0.00    +0.000 A 
ATOM     15  N   UNL     1       2.312  13.047  18.749  0.00  0.00    +0.000 NA
ATOM     16  C   UNL     1       3.231  14.023  18.660  0.00  0.00    +0.000 A 
ATOM     17  C   UNL     1       3.736  14.682  19.751  0.00  0.00    +0.000 A 
ATOM     18  C   UNL     1       3.234  14.275  20.963  0.00  0.00    +0.000 A 
ATOM     19  N   UNL     1       2.314  13.299  21.100  0.00  0.00    +0.000 NA
ATOM     20  H   UNL     1       0.986  11.404  21.091  0.00  0.00    +0.000 HD
ENDBRANCH  12  13
ENDBRANCH   9  12
ENDBRANCH   3   7
BRANCH   1  22
ATOM     21  N   UNL     1       4.766   4.780  16.383  0.00  0.00    +0.000 N 
ATOM     22  C   UNL     1       5.119   4.428  17.671  0.00  0.00    +0.000 C 
ATOM     23  O   UNL     1       6.248   4.114  18.044  0.00  0.00    +0.000 OA
ATOM     24  H   UNL     1       3.835   5.161  16.246  0.00  0.00    +0.000 HD
BRANCH  21  29
ATOM     25  C   UNL     1       6.030   3.757  13.040  0.00  0.00    +0.000 A 
ATOM     26  C   UNL     1       7.265   4.419  12.997  0.00  0.00    +0.000 A 
ATOM     27  C   UNL     1       7.676   5.193  14.070  0.00  0.00    +0.000 A 
ATOM     28  C   UNL     1       6.852   5.318  15.189  0.00  0.00    +0.000 A 
ATOM     29  C   UNL     1       5.613   4.677  15.253  0.00  0.00    +0.000 A 
ATOM     30  C   UNL     1       5.208   3.881  14.174  0.00  0.00    +0.000 A 
BRANCH  25  31
ATOM     31  C   UNL     1       5.565   2.925  11.896  0.00  0.00    +0.000 C 
ATOM     32  O   UNL     1       4.431   2.953  11.449  0.00  0.00    +0.000 OA
BRANCH  31  34
ATOM     33  C   UNL     1       6.216   0.818  11.087  0.00  0.00    +0.000 C 
ATOM     34  O   UNL     1       6.583   2.147  11.450  0.00  0.00    +0.000 OA
ENDBRANCH  31  34
ENDBRANCH  25  31
ENDBRANCH  21  29
ENDBRANCH   1  22
BRANCH   6  35
ATOM     35  O   UNL     1       4.495   2.327  19.639  0.00  0.00    +0.000 OA
ATOM     36  H   UNL     1       5.204   2.357  20.307  0.00  0.00    +0.000 HD
ENDBRANCH   6  35
TORSDOF 8
ENDMDL
MODEL 8
REMARK VINA RESULT:      -8.3      3.848     10.960
REMARK  Name = 
REMARK  9 active torsions:
REMARK  status: ('A' for Active; 'I' for Inactive)
REMARK    1  A    between atoms: C_1  and  O_2
REMARK    2  A    between atoms: O_2  and  C_3
REMARK    3  A    between atoms: C_3  and  C_5
REMARK    4  A    between atoms: C_9  and  N_10
REMARK    5  A    between atoms: C_11  and  C_13
REMARK    6  A    between atoms: C_15  and  N_16
REMARK    7  A    between atoms: C_18  and  C_19
REMARK    8  A    between atoms: C_19  and  N_20
REMARK    9  A    between atoms: C_31  and  O_32
REMARK                            x       y       z     vdW  Elec       q    Type
REMARK                         _______ _______ _______ _____ _____    ______ ____
ROOT
ATOM      1  C   UNL     1       0.929   8.804  20.466  0.00  0.00    +0.000 A 
ATOM      2  C   UNL     1      -0.054   9.154  19.530  0.00  0.00    +0.000 A 
ATOM      3  C   UNL     1      -0.810  10.317  19.686  0.00  0.00    +0.000 A 
ATOM      4  C   UNL     1      -0.626  11.118  20.816  0.00  0.00    +0.000 A 
ATOM      5  C   UNL     1       0.357  10.777  21.753  0.00  0.00    +0.000 A 
ATOM      6  C   UNL     1       1.133   9.625  21.577  0.00  0.00    +0.000 A 
ENDROOT
BRANCH   3   7
ATOM      7  N   UNL     1      -1.699  10.707  18.660  0.00  0.00    +0.000 N 
ATOM      8  C   UNL     1      -2.888  11.379  18.803  0.00  0.00    +0.000 A 
ATOM      9  C   UNL     1      -3.410  11.443  17.532  0.00  0.00    +0.000 A 
ATOM     10  N   UNL     1      -2.528  10.863  16.661  0.00  0.00    +0.000 NA
ATOM     11  N   UNL     1      -1.504  10.389  17.361  0.00  0.00    +0.000 NA
BRANCH   9  12
ATOM     12  C   UNL     1      -4.722  11.993  17.087  0.00  0.00    +0.000 C 
BRANCH  12  13
ATOM     13  N   UNL     1      -5.869  11.133  17.333  0.00  0.00    +0.000 N 
ATOM     14  C   UNL     1      -6.419  11.304  18.593  0.00  0.00    +0.000 A 
ATOM     15  N   UNL     1      -6.357  12.501  19.194  0.00  0.00    +0.000 NA
ATOM     16  C   UNL     1      -6.897  12.604  20.421  0.00  0.00    +0.000 A 
ATOM     17  C   UNL     1      -7.489  11.553  21.072  0.00  0.00    +0.000 A 
ATOM     18  C   UNL     1      -7.496  10.367  20.381  0.00  0.00    +0.000 A 
ATOM     19  N   UNL     1      -6.964  10.217  19.151  0.00  0.00    +0.000 NA
ATOM     20  H   UNL     1      -5.717  10.142  17.202  0.00  0.00    +0.000 HD
ENDBRANCH  12  13
ENDBRANCH   9  12
ENDBRANCH   3   7
BRANCH   1  22
ATOM     21  N   UNL     1       2.307   7.591  18.837  0.00  0.00    +0.000 N 
ATOM     22  C   UNL     1       1.764   7.628  20.106  0.00  0.00    +0.000 C 
ATOM     23  O   UNL     1       1.956   6.797  20.993  0.00  0.00    +0.000 OA
ATOM     24  H   UNL     1       2.186   8.416  18.259  0.00  0.00    +0.000 HD
BRANCH  21  29
ATOM     25  C   UNL     1       5.149   5.633  17.455  0.00  0.00    +0.000 A 
ATOM     26  C   UNL     1       4.538   4.396  17.209  0.00  0.00    +0.000 A 
ATOM     27  C   UNL     1       3.194   4.215  17.494  0.00  0.00    +0.000 A 
ATOM     28  C   UNL     1       2.454   5.266  18.035  0.00  0.00    +0.000 A 
ATOM     29  C   UNL     1       3.041   6.506  18.300  0.00  0.00    +0.000 A 
ATOM     30  C   UNL     1       4.395   6.691  17.994  0.00  0.00    +0.000 A 
BRANCH  25  31
ATOM     31  C   UNL     1       6.592   5.848  17.162  0.00  0.00    +0.000 C 
ATOM     32  O   UNL     1       7.008   6.593  16.290  0.00  0.00    +0.000 OA
BRANCH  31  34
ATOM     33  C   UNL     1       7.742   5.739  19.208  0.00  0.00    +0.000 C 
ATOM     34  O   UNL     1       7.349   5.094  17.999  0.00  0.00    +0.000 OA
ENDBRANCH  31  34
ENDBRANCH  25  31
ENDBRANCH  21  29
ENDBRANCH   1  22
BRANCH   6  35
ATOM     35  O   UNL     1       2.110   9.329  22.486  0.00  0.00    +0.000 OA
ATOM     36  H   UNL     1       2.694   8.646  22.108  0.00  0.00    +0.000 HD
ENDBRANCH   6  35
TORSDOF 8
ENDMDL
MODEL 9
REMARK VINA RESULT:      -8.3      5.322     11.535
REMARK  Name = 
REMARK  9 active torsions:
REMARK  status: ('A' for Active; 'I' for Inactive)
REMARK    1  A    between atoms: C_1  and  O_2
REMARK    2  A    between atoms: O_2  and  C_3
REMARK    3  A    between atoms: C_3  and  C_5
REMARK    4  A    between atoms: C_9  and  N_10
REMARK    5  A    between atoms: C_11  and  C_13
REMARK    6  A    between atoms: C_15  and  N_16
REMARK    7  A    between atoms: C_18  and  C_19
REMARK    8  A    between atoms: C_19  and  N_20
REMARK    9  A    between atoms: C_31  and  O_32
REMARK                            x       y       z     vdW  Elec       q    Type
REMARK                         _______ _______ _______ _____ _____    ______ ____
ROOT
ATOM      1  C   UNL     1       3.841   4.802  17.892  0.00  0.00    +0.000 A 
ATOM      2  C   UNL     1       3.290   6.078  17.706  0.00  0.00    +0.000 A 
ATOM      3  C   UNL     1       2.596   6.716  18.735  0.00  0.00    +0.000 A 
ATOM      4  C   UNL     1       2.398   6.057  19.951  0.00  0.00    +0.000 A 
ATOM      5  C   UNL     1       2.947   4.784  20.146  0.00  0.00    +0.000 A 
ATOM      6  C   UNL     1       3.669   4.160  19.120  0.00  0.00    +0.000 A 
ENDROOT
BRANCH   3   7
ATOM      7  N   UNL     1       2.169   8.051  18.558  0.00  0.00    +0.000 N 
ATOM      8  C   UNL     1       1.318   8.764  19.366  0.00  0.00    +0.000 A 
ATOM      9  C   UNL     1       1.154   9.970  18.725  0.00  0.00    +0.000 A 
ATOM     10  N   UNL     1       1.923   9.979  17.593  0.00  0.00    +0.000 NA
ATOM     11  N   UNL     1       2.512   8.794  17.483  0.00  0.00    +0.000 NA
BRANCH   9  12
ATOM     12  C   UNL     1       0.276  11.115  19.100  0.00  0.00    +0.000 C 
BRANCH  12  13
ATOM     13  N   UNL     1       0.656  11.814  20.317  0.00  0.00    +0.000 N 
ATOM     14  C   UNL     1       1.547  12.852  20.094  0.00  0.00    +0.000 A 
ATOM     15  N   UNL     1       1.514  13.526  18.935  0.00  0.00    +0.000 NA
ATOM     16  C   UNL     1       2.409  14.515  18.771  0.00  0.00    +0.000 A 
ATOM     17  C   UNL     1       3.341  14.850  19.718  0.00  0.00    +0.000 A 
ATOM     18  C   UNL     1       3.302  14.099  20.867  0.00  0.00    +0.000 A 
ATOM     19  N   UNL     1       2.425  13.097  21.074  0.00  0.00    +0.000 NA
ATOM     20  H   UNL     1       1.040  11.242  21.058  0.00  0.00    +0.000 HD
ENDBRANCH  12  13
ENDBRANCH   9  12
ENDBRANCH   3   7
BRANCH   1  22
ATOM     21  N   UNL     1       5.177   5.227  15.878  0.00  0.00    +0.000 N 
ATOM     22  C   UNL     1       4.682   4.300  16.774  0.00  0.00    +0.000 C 
ATOM     23  O   UNL     1       4.923   3.094  16.765  0.00  0.00    +0.000 OA
ATOM     24  H   UNL     1       5.020   6.207  16.092  0.00  0.00    +0.000 HD
BRANCH  21  29
ATOM     25  C   UNL     1       6.088   3.644  12.640  0.00  0.00    +0.000 A 
ATOM     26  C   UNL     1       7.333   4.235  12.384  0.00  0.00    +0.000 A 
ATOM     27  C   UNL     1       7.867   5.147  13.281  0.00  0.00    +0.000 A 
ATOM     28  C   UNL     1       7.157   5.480  14.434  0.00  0.00    +0.000 A 
ATOM     29  C   UNL     1       5.910   4.913  14.708  0.00  0.00    +0.000 A 
ATOM     30  C   UNL     1       5.381   3.979  13.809  0.00  0.00    +0.000 A 
BRANCH  25  31
ATOM     31  C   UNL     1       5.492   2.667  11.688  0.00  0.00    +0.000 C 
ATOM     32  O   UNL     1       4.314   2.652  11.374  0.00  0.00    +0.000 OA
BRANCH  31  34
ATOM     33  C   UNL     1       6.058   0.445  11.176  0.00  0.00    +0.000 C 
ATOM     34  O   UNL     1       6.450   1.815  11.245  0.00  0.00    +0.000 OA
ENDBRANCH  31  34
ENDBRANCH  25  31
ENDBRANCH  21  29
ENDBRANCH   1  22
BRANCH   6  35
ATOM     35  O   UNL     1       4.226   2.932  19.343  0.00  0.00    +0.000 OA
ATOM     36  H   UNL     1       4.979   2.814  18.735  0.00  0.00    +0.000 HD
ENDBRANCH   6  35
TORSDOF 8
ENDMDL
