MODEL 1
REMARK VINA RESULT:      -7.3      0.000      0.000
REMARK  Name = 
REMARK  4 active torsions:
REMARK  status: ('A' for Active; 'I' for Inactive)
REMARK    1  A    between atoms: C_1  and  O_2
REMARK    2  A    between atoms: O_2  and  C_3
REMARK    3  A    between atoms: N_8  and  C_9
REMARK    4  A    between atoms: C_13  and  C_15
REMARK                            x       y       z     vdW  Elec       q    Type
REMARK                         _______ _______ _______ _____ _____    ______ ____
ROOT
ATOM      1  C   UNL     1       0.962  10.310  18.552  0.00  0.00    +0.000 C 
ATOM      2  C   UNL     1       2.186   9.698  17.882  0.00  0.00    +0.000 C 
ATOM      3  C   UNL     1       2.235   8.190  18.042  0.00  0.00    +0.000 C 
ATOM      4  N   UNL     1       2.018   7.685  19.393  0.00  0.00    +0.000 N 
ATOM      5  C   UNL     1       2.322   6.354  19.778  0.00  0.00    +0.000 C 
ATOM      6  O   UNL     1       2.095   5.927  20.911  0.00  0.00    +0.000 OA
ATOM      7  C   UNL     1       1.011   8.365  20.211  0.00  0.00    +0.000 C 
ATOM      8  C   UNL     1       0.922   9.878  20.014  0.00  0.00    +0.000 C 
ENDROOT
BRANCH   1  14
ATOM      9  C   UNL     1      -3.084  11.978  19.099  0.00  0.00    +0.000 A 
ATOM     10  C   UNL     1      -4.064  11.538  18.223  0.00  0.00    +0.000 A 
ATOM     11  C   UNL     1      -3.697  10.586  17.290  0.00  0.00    +0.000 A 
ATOM     12  N   UNL     1      -2.451  10.069  17.179  0.00  0.00    +0.000 NA
ATOM     13  C   UNL     1      -1.497  10.520  18.020  0.00  0.00    +0.000 A 
ATOM     14  N   UNL     1      -0.260   9.961  17.843  0.00  0.00    +0.000 N 
ATOM     15  C   UNL     1      -1.790  11.477  18.982  0.00  0.00    +0.000 A 
ATOM     16  H   UNL     1      -0.263   9.251  17.121  0.00  0.00    +0.000 HD
BRANCH   9  18
ATOM     17  C   UNL     1      -4.469  12.830  20.828  0.00  0.00    +0.000 C 
ATOM     18  O   UNL     1      -3.255  12.906  20.090  0.00  0.00    +0.000 OA
ENDBRANCH   9  18
ENDBRANCH   1  14
BRANCH   5  19
ATOM     19  C   UNL     1       2.945   5.400  18.804  0.00  0.00    +0.000 A 
ATOM     20  C   UNL     1       4.333   5.424  18.618  0.00  0.00    +0.000 A 
ATOM     21  C   UNL     1       4.933   4.567  17.685  0.00  0.00    +0.000 A 
ATOM     22  C   UNL     1       4.151   3.699  16.924  0.00  0.00    +0.000 A 
ATOM     23  C   UNL     1       2.780   3.628  17.147  0.00  0.00    +0.000 A 
ATOM     24  C   UNL     1       2.195   4.434  18.123  0.00  0.00    +0.000 A 
ENDBRANCH   5  19
TORSDOF 3
ENDMDL
MODEL 2
REMARK VINA RESULT:      -7.3      0.117      1.011
REMARK  Name = 
REMARK  4 active torsions:
REMARK  status: ('A' for Active; 'I' for Inactive)
REMARK    1  A    between atoms: C_1  and  O_2
REMARK    2  A    between atoms: O_2  and  C_3
REMARK    3  A    between atoms: N_8  and  C_9
REMARK    4  A    between atoms: C_13  and  C_15
REMARK                            x       y       z     vdW  Elec       q    Type
REMARK                         _______ _______ _______ _____ _____    ______ ____
ROOT
ATOM      1  C   UNL     1       0.966  10.305  18.541  0.00  0.00    +0.000 C 
ATOM      2  C   UNL     1       2.200   9.714  17.871  0.00  0.00    +0.000 C 
ATOM      3  C   UNL     1       2.270   8.206  18.021  0.00  0.00    +0.000 C 
ATOM      4  N   UNL     1       2.054   7.688  19.368  0.00  0.00    +0.000 N 
ATOM      5  C   UNL     1       2.375   6.359  19.744  0.00  0.00    +0.000 C 
ATOM      6  O   UNL     1       2.150   5.921  20.873  0.00  0.00    +0.000 OA
ATOM      7  C   UNL     1       1.035   8.349  20.187  0.00  0.00    +0.000 C 
ATOM      8  C   UNL     1       0.926   9.862  20.000  0.00  0.00    +0.000 C 
ENDROOT
BRANCH   1  14
ATOM      9  C   UNL     1      -3.096  11.946  19.054  0.00  0.00    +0.000 A 
ATOM     10  C   UNL     1      -4.067  11.496  18.173  0.00  0.00    +0.000 A 
ATOM     11  C   UNL     1      -3.687  10.542  17.246  0.00  0.00    +0.000 A 
ATOM     12  N   UNL     1      -2.436  10.034  17.146  0.00  0.00    +0.000 NA
ATOM     13  C   UNL     1      -1.491  10.495  17.992  0.00  0.00    +0.000 A 
ATOM     14  N   UNL     1      -0.248   9.944  17.826  0.00  0.00    +0.000 N 
ATOM     15  C   UNL     1      -1.798  11.454  18.948  0.00  0.00    +0.000 A 
ATOM     16  H   UNL     1      -0.242   9.231  17.106  0.00  0.00    +0.000 HD
BRANCH   9  18
ATOM     17  C   UNL     1      -4.618  13.081  20.477  0.00  0.00    +0.000 C 
ATOM     18  O   UNL     1      -3.280  12.876  20.040  0.00  0.00    +0.000 OA
ENDBRANCH   9  18
ENDBRANCH   1  14
BRANCH   5  19
ATOM     19  C   UNL     1       3.015   5.421  18.766  0.00  0.00    +0.000 A 
ATOM     20  C   UNL     1       2.210   4.515  18.063  0.00  0.00    +0.000 A 
ATOM     21  C   UNL     1       2.790   3.603  17.171  0.00  0.00    +0.000 A 
ATOM     22  C   UNL     1       4.173   3.577  16.993  0.00  0.00    +0.000 A 
ATOM     23  C   UNL     1       4.971   4.512  17.642  0.00  0.00    +0.000 A 
ATOM     24  C   UNL     1       4.384   5.463  18.477  0.00  0.00    +0.000 A 
ENDBRANCH   5  19
TORSDOF 3
ENDMDL
MODEL 3
REMARK VINA RESULT:      -6.9      5.700      8.247
REMARK  Name = 
REMARK  4 active torsions:
REMARK  status: ('A' for Active; 'I' for Inactive)
REMARK    1  A    between atoms: C_1  and  O_2
REMARK    2  A    between atoms: O_2  and  C_3
REMARK    3  A    between atoms: N_8  and  C_9
REMARK    4  A    between atoms: C_13  and  C_15
REMARK                            x       y       z     vdW  Elec       q    Type
REMARK                         _______ _______ _______ _____ _____    ______ ____
ROOT
ATOM      1  C   UNL     1       5.271   5.851  17.842  0.00  0.00    +0.000 C 
ATOM      2  C   UNL     1       4.396   5.632  16.614  0.00  0.00    +0.000 C 
ATOM      3  C   UNL     1       5.118   4.863  15.523  0.00  0.00    +0.000 C 
ATOM      4  N   UNL     1       6.456   5.338  15.187  0.00  0.00    +0.000 N 
ATOM      5  C   UNL     1       7.143   4.942  14.011  0.00  0.00    +0.000 C 
ATOM      6  O   UNL     1       8.289   5.317  13.759  0.00  0.00    +0.000 OA
ATOM      7  C   UNL     1       7.304   5.797  16.290  0.00  0.00    +0.000 C 
ATOM      8  C   UNL     1       6.572   6.525  17.417  0.00  0.00    +0.000 C 
ENDROOT
BRANCH   1  14
ATOM      9  C   UNL     1       2.574   3.737  20.619  0.00  0.00    +0.000 A 
ATOM     10  C   UNL     1       3.004   2.506  21.091  0.00  0.00    +0.000 A 
ATOM     11  C   UNL     1       4.255   2.075  20.687  0.00  0.00    +0.000 A 
ATOM     12  N   UNL     1       5.071   2.774  19.862  0.00  0.00    +0.000 NA
ATOM     13  C   UNL     1       4.635   3.960  19.388  0.00  0.00    +0.000 A 
ATOM     14  N   UNL     1       5.508   4.603  18.553  0.00  0.00    +0.000 N 
ATOM     15  C   UNL     1       3.390   4.456  19.748  0.00  0.00    +0.000 A 
ATOM     16  H   UNL     1       6.380   4.099  18.452  0.00  0.00    +0.000 HD
BRANCH   9  18
ATOM     17  C   UNL     1       1.322   5.746  20.774  0.00  0.00    +0.000 C 
ATOM     18  O   UNL     1       1.378   4.331  20.910  0.00  0.00    +0.000 OA
ENDBRANCH   9  18
ENDBRANCH   1  14
BRANCH   5  19
ATOM     19  C   UNL     1       6.489   4.038  13.011  0.00  0.00    +0.000 A 
ATOM     20  C   UNL     1       5.101   4.106  12.834  0.00  0.00    +0.000 A 
ATOM     21  C   UNL     1       4.463   3.244  11.932  0.00  0.00    +0.000 A 
ATOM     22  C   UNL     1       5.202   2.300  11.220  0.00  0.00    +0.000 A 
ATOM     23  C   UNL     1       6.586   2.268  11.346  0.00  0.00    +0.000 A 
ATOM     24  C   UNL     1       7.225   3.172  12.194  0.00  0.00    +0.000 A 
ENDBRANCH   5  19
TORSDOF 3
ENDMDL
MODEL 4
REMARK VINA RESULT:      -6.7      5.675      8.183
REMARK  Name = 
REMARK  4 active torsions:
REMARK  status: ('A' for Active; 'I' for Inactive)
REMARK    1  A    between atoms: C_1  and  O_2
REMARK    2  A    between atoms: O_2  and  C_3
REMARK    3  A    between atoms: N_8  and  C_9
REMARK    4  A    between atoms: C_13  and  C_15
REMARK                            x       y       z     vdW  Elec       q    Type
REMARK                         _______ _______ _______ _____ _____    ______ ____
ROOT
ATOM      1  C   UNL     1       5.339   5.916  17.863  0.00  0.00    +0.000 C 
ATOM      2  C   UNL     1       4.423   5.711  16.662  0.00  0.00    +0.000 C 
ATOM      3  C   UNL     1       5.091   4.911  15.559  0.00  0.00    +0.000 C 
ATOM      4  N   UNL     1       6.432   5.342  15.181  0.00  0.00    +0.000 N 
ATOM      5  C   UNL     1       7.073   4.915  13.990  0.00  0.00    +0.000 C 
ATOM      6  O   UNL     1       8.222   5.252  13.703  0.00  0.00    +0.000 OA
ATOM      7  C   UNL     1       7.324   5.786  16.256  0.00  0.00    +0.000 C 
ATOM      8  C   UNL     1       6.647   6.547  17.395  0.00  0.00    +0.000 C 
ENDROOT
BRANCH   1  14
ATOM      9  C   UNL     1       2.573   3.800  20.570  0.00  0.00    +0.000 A 
ATOM     10  C   UNL     1       2.992   2.570  21.053  0.00  0.00    +0.000 A 
ATOM     11  C   UNL     1       4.252   2.140  20.681  0.00  0.00    +0.000 A 
ATOM     12  N   UNL     1       5.089   2.839  19.878  0.00  0.00    +0.000 NA
ATOM     13  C   UNL     1       4.665   4.025  19.392  0.00  0.00    +0.000 A 
ATOM     14  N   UNL     1       5.558   4.669  18.579  0.00  0.00    +0.000 N 
ATOM     15  C   UNL     1       3.410   4.520  19.720  0.00  0.00    +0.000 A 
ATOM     16  H   UNL     1       6.433   4.165  18.501  0.00  0.00    +0.000 HD
BRANCH   9  18
ATOM     17  C   UNL     1       1.340   5.816  20.789  0.00  0.00    +0.000 C 
ATOM     18  O   UNL     1       1.369   4.394  20.831  0.00  0.00    +0.000 OA
ENDBRANCH   9  18
ENDBRANCH   1  14
BRANCH   5  19
ATOM     19  C   UNL     1       6.364   4.021  13.018  0.00  0.00    +0.000 A 
ATOM     20  C   UNL     1       7.094   3.040  12.335  0.00  0.00    +0.000 A 
ATOM     21  C   UNL     1       6.460   2.218  11.394  0.00  0.00    +0.000 A 
ATOM     22  C   UNL     1       5.103   2.384  11.117  0.00  0.00    +0.000 A 
ATOM     23  C   UNL     1       4.360   3.314  11.835  0.00  0.00    +0.000 A 
ATOM     24  C   UNL     1       4.980   4.084  12.819  0.00  0.00    +0.000 A 
ENDBRANCH   5  19
TORSDOF 3
ENDMDL
MODEL 5
REMARK VINA RESULT:      -6.5      5.846      7.780
REMARK  Name = 
REMARK  4 active torsions:
REMARK  status: ('A' for Active; 'I' for Inactive)
REMARK    1  A    between atoms: C_1  and  O_2
REMARK    2  A    between atoms: O_2  and  C_3
REMARK    3  A    between atoms: N_8  and  C_9
REMARK    4  A    between atoms: C_13  and  C_15
REMARK                            x       y       z     vdW  Elec       q    Type
REMARK                         _______ _______ _______ _____ _____    ______ ____
ROOT
ATOM      1  C   UNL     1       3.600   6.463  18.138  0.00  0.00    +0.000 C 
ATOM      2  C   UNL     1       4.125   7.101  16.858  0.00  0.00    +0.000 C 
ATOM      3  C   UNL     1       4.920   6.125  16.012  0.00  0.00    +0.000 C 
ATOM      4  N   UNL     1       5.937   5.351  16.717  0.00  0.00    +0.000 N 
ATOM      5  C   UNL     1       6.957   4.628  16.049  0.00  0.00    +0.000 C 
ATOM      6  O   UNL     1       7.784   3.944  16.653  0.00  0.00    +0.000 OA
ATOM      7  C   UNL     1       5.610   4.884  18.067  0.00  0.00    +0.000 C 
ATOM      8  C   UNL     1       4.765   5.843  18.904  0.00  0.00    +0.000 C 
ENDROOT
BRANCH   1  14
ATOM      9  C   UNL     1       2.675   2.732  20.300  0.00  0.00    +0.000 A 
ATOM     10  C   UNL     1       1.555   2.030  19.883  0.00  0.00    +0.000 A 
ATOM     11  C   UNL     1       0.858   2.537  18.801  0.00  0.00    +0.000 A 
ATOM     12  N   UNL     1       1.197   3.667  18.138  0.00  0.00    +0.000 NA
ATOM     13  C   UNL     1       2.276   4.357  18.565  0.00  0.00    +0.000 A 
ATOM     14  N   UNL     1       2.552   5.494  17.855  0.00  0.00    +0.000 N 
ATOM     15  C   UNL     1       3.023   3.912  19.647  0.00  0.00    +0.000 A 
ATOM     16  H   UNL     1       1.916   5.620  17.077  0.00  0.00    +0.000 HD
BRANCH   9  18
ATOM     17  C   UNL     1       4.723   1.759  21.002  0.00  0.00    +0.000 C 
ATOM     18  O   UNL     1       3.493   2.387  21.341  0.00  0.00    +0.000 OA
ENDBRANCH   9  18
ENDBRANCH   1  14
BRANCH   5  19
ATOM     19  C   UNL     1       7.072   4.669  14.555  0.00  0.00    +0.000 A 
ATOM     20  C   UNL     1       6.303   3.785  13.786  0.00  0.00    +0.000 A 
ATOM     21  C   UNL     1       6.422   3.780  12.390  0.00  0.00    +0.000 A 
ATOM     22  C   UNL     1       7.319   4.641  11.758  0.00  0.00    +0.000 A 
ATOM     23  C   UNL     1       8.040   5.562  12.510  0.00  0.00    +0.000 A 
ATOM     24  C   UNL     1       7.870   5.610  13.894  0.00  0.00    +0.000 A 
ENDBRANCH   5  19
TORSDOF 3
ENDMDL
MODEL 6
REMARK VINA RESULT:      -6.5      5.577      9.159
REMARK  Name = 
REMARK  4 active torsions:
REMARK  status: ('A' for Active; 'I' for Inactive)
REMARK    1  A    between atoms: C_1  and  O_2
REMARK    2  A    between atoms: O_2  and  C_3
REMARK    3  A    between atoms: N_8  and  C_9
REMARK    4  A    between atoms: C_13  and  C_15
REMARK                            x       y       z     vdW  Elec       q    Type
REMARK                         _______ _______ _______ _____ _____    ______ ____
ROOT
ATOM      1  C   UNL     1       6.573   5.087  16.784  0.00  0.00    +0.000 C 
ATOM      2  C   UNL     1       6.358   4.397  18.126  0.00  0.00    +0.000 C 
ATOM      3  C   UNL     1       4.891   4.324  18.507  0.00  0.00    +0.000 C 
ATOM      4  N   UNL     1       4.137   5.567  18.383  0.00  0.00    +0.000 N 
ATOM      5  C   UNL     1       2.860   5.757  18.969  0.00  0.00    +0.000 C 
ATOM      6  O   UNL     1       2.216   6.796  18.822  0.00  0.00    +0.000 OA
ATOM      7  C   UNL     1       4.441   6.426  17.235  0.00  0.00    +0.000 C 
ATOM      8  C   UNL     1       5.910   6.461  16.815  0.00  0.00    +0.000 C 
ENDROOT
BRANCH   1  14
ATOM      9  C   UNL     1       7.716   5.275  12.528  0.00  0.00    +0.000 A 
ATOM     10  C   UNL     1       7.173   4.310  11.693  0.00  0.00    +0.000 A 
ATOM     11  C   UNL     1       6.290   3.408  12.259  0.00  0.00    +0.000 A 
ATOM     12  N   UNL     1       5.933   3.409  13.565  0.00  0.00    +0.000 NA
ATOM     13  C   UNL     1       6.485   4.336  14.376  0.00  0.00    +0.000 A 
ATOM     14  N   UNL     1       6.087   4.269  15.684  0.00  0.00    +0.000 N 
ATOM     15  C   UNL     1       7.382   5.273  13.880  0.00  0.00    +0.000 A 
ATOM     16  H   UNL     1       5.394   3.545  15.834  0.00  0.00    +0.000 HD
BRANCH   9  18
ATOM     17  C   UNL     1       9.785   6.365  12.931  0.00  0.00    +0.000 C 
ATOM     18  O   UNL     1       8.598   6.251  12.155  0.00  0.00    +0.000 OA
ENDBRANCH   9  18
ENDBRANCH   1  14
BRANCH   5  19
ATOM     19  C   UNL     1       2.236   4.682  19.807  0.00  0.00    +0.000 A 
ATOM     20  C   UNL     1       2.626   4.546  21.145  0.00  0.00    +0.000 A 
ATOM     21  C   UNL     1       2.084   3.525  21.936  0.00  0.00    +0.000 A 
ATOM     22  C   UNL     1       1.167   2.626  21.391  0.00  0.00    +0.000 A 
ATOM     23  C   UNL     1       0.731   2.792  20.082  0.00  0.00    +0.000 A 
ATOM     24  C   UNL     1       1.222   3.850  19.318  0.00  0.00    +0.000 A 
ENDBRANCH   5  19
TORSDOF 3
ENDMDL
MODEL 7
REMARK VINA RESULT:      -6.5      3.301      8.511
REMARK  Name = 
REMARK  4 active torsions:
REMARK  status: ('A' for Active; 'I' for Inactive)
REMARK    1  A    between atoms: C_1  and  O_2
REMARK    2  A    between atoms: O_2  and  C_3
REMARK    3  A    between atoms: N_8  and  C_9
REMARK    4  A    between atoms: C_13  and  C_15
REMARK                            x       y       z     vdW  Elec       q    Type
REMARK                         _______ _______ _______ _____ _____    ______ ____
ROOT
ATOM      1  C   UNL     1       2.932   3.731  19.062  0.00  0.00    +0.000 C 
ATOM      2  C   UNL     1       2.272   4.732  18.122  0.00  0.00    +0.000 C 
ATOM      3  C   UNL     1       2.235   6.132  18.706  0.00  0.00    +0.000 C 
ATOM      4  N   UNL     1       1.750   6.239  20.078  0.00  0.00    +0.000 N 
ATOM      5  C   UNL     1       1.369   7.470  20.669  0.00  0.00    +0.000 C 
ATOM      6  O   UNL     1       1.001   7.553  21.841  0.00  0.00    +0.000 OA
ATOM      7  C   UNL     1       2.145   5.183  21.015  0.00  0.00    +0.000 C 
ATOM      8  C   UNL     1       2.234   3.779  20.418  0.00  0.00    +0.000 C 
ENDROOT
BRANCH   1  14
ATOM      9  C   UNL     1       5.879   4.231  15.819  0.00  0.00    +0.000 A 
ATOM     10  C   UNL     1       7.174   4.552  16.196  0.00  0.00    +0.000 A 
ATOM     11  C   UNL     1       7.435   4.641  17.551  0.00  0.00    +0.000 A 
ATOM     12  N   UNL     1       6.509   4.441  18.520  0.00  0.00    +0.000 NA
ATOM     13  C   UNL     1       5.245   4.152  18.143  0.00  0.00    +0.000 A 
ATOM     14  N   UNL     1       4.363   3.974  19.174  0.00  0.00    +0.000 N 
ATOM     15  C   UNL     1       4.908   4.049  16.801  0.00  0.00    +0.000 A 
ATOM     16  H   UNL     1       4.814   4.047  20.078  0.00  0.00    +0.000 HD
BRANCH   9  18
ATOM     17  C   UNL     1       6.427   3.949  13.527  0.00  0.00    +0.000 C 
ATOM     18  O   UNL     1       5.432   4.093  14.534  0.00  0.00    +0.000 OA
ENDBRANCH   9  18
ENDBRANCH   1  14
BRANCH   5  19
ATOM     19  C   UNL     1       1.399   8.741  19.874  0.00  0.00    +0.000 A 
ATOM     20  C   UNL     1       0.873   9.911  20.438  0.00  0.00    +0.000 A 
ATOM     21  C   UNL     1       0.856  11.101  19.700  0.00  0.00    +0.000 A 
ATOM     22  C   UNL     1       1.344  11.126  18.393  0.00  0.00    +0.000 A 
ATOM     23  C   UNL     1       1.921   9.983  17.850  0.00  0.00    +0.000 A 
ATOM     24  C   UNL     1       1.998   8.818  18.611  0.00  0.00    +0.000 A 
ENDBRANCH   5  19
TORSDOF 3
ENDMDL
MODEL 8
REMARK VINA RESULT:      -6.5      3.352      8.492
REMARK  Name = 
REMARK  4 active torsions:
REMARK  status: ('A' for Active; 'I' for Inactive)
REMARK    1  A    between atoms: C_1  and  O_2
REMARK    2  A    between atoms: O_2  and  C_3
REMARK    3  A    between atoms: N_8  and  C_9
REMARK    4  A    between atoms: C_13  and  C_15
REMARK                            x       y       z     vdW  Elec       q    Type
REMARK                         _______ _______ _______ _____ _____    ______ ____
ROOT
ATOM      1  C   UNL     1       3.014   3.616  19.028  0.00  0.00    +0.000 C 
ATOM      2  C   UNL     1       2.327   4.601  18.090  0.00  0.00    +0.000 C 
ATOM      3  C   UNL     1       2.289   6.007  18.658  0.00  0.00    +0.000 C 
ATOM      4  N   UNL     1       1.829   6.125  20.038  0.00  0.00    +0.000 N 
ATOM      5  C   UNL     1       1.448   7.360  20.622  0.00  0.00    +0.000 C 
ATOM      6  O   UNL     1       1.101   7.453  21.799  0.00  0.00    +0.000 OA
ATOM      7  C   UNL     1       2.250   5.084  20.979  0.00  0.00    +0.000 C 
ATOM      8  C   UNL     1       2.340   3.674  20.396  0.00  0.00    +0.000 C 
ENDROOT
BRANCH   1  14
ATOM      9  C   UNL     1       5.860   4.296  15.729  0.00  0.00    +0.000 A 
ATOM     10  C   UNL     1       7.162   4.616  16.083  0.00  0.00    +0.000 A 
ATOM     11  C   UNL     1       7.460   4.649  17.433  0.00  0.00    +0.000 A 
ATOM     12  N   UNL     1       6.565   4.395  18.417  0.00  0.00    +0.000 NA
ATOM     13  C   UNL     1       5.294   4.107  18.064  0.00  0.00    +0.000 A 
ATOM     14  N   UNL     1       4.443   3.872  19.111  0.00  0.00    +0.000 N 
ATOM     15  C   UNL     1       4.920   4.059  16.728  0.00  0.00    +0.000 A 
ATOM     16  H   UNL     1       4.920   3.911  20.003  0.00  0.00    +0.000 HD
BRANCH   9  18
ATOM     17  C   UNL     1       6.313   3.845  13.443  0.00  0.00    +0.000 C 
ATOM     18  O   UNL     1       5.378   4.208  14.452  0.00  0.00    +0.000 OA
ENDBRANCH   9  18
ENDBRANCH   1  14
BRANCH   5  19
ATOM     19  C   UNL     1       1.452   8.622  19.813  0.00  0.00    +0.000 A 
ATOM     20  C   UNL     1       2.001   8.604  18.524  0.00  0.00    +0.000 A 
ATOM     21  C   UNL     1       2.049   9.780  17.764  0.00  0.00    +0.000 A 
ATOM     22  C   UNL     1       1.571  10.979  18.292  0.00  0.00    +0.000 A 
ATOM     23  C   UNL     1       0.971  10.991  19.546  0.00  0.00    +0.000 A 
ATOM     24  C   UNL     1       0.863   9.805  20.273  0.00  0.00    +0.000 A 
ENDBRANCH   5  19
TORSDOF 3
ENDMDL
MODEL 9
REMARK VINA RESULT:      -6.4      2.036      7.847
REMARK  Name = 
REMARK  4 active torsions:
REMARK  status: ('A' for Active; 'I' for Inactive)
REMARK    1  A    between atoms: C_1  and  O_2
REMARK    2  A    between atoms: O_2  and  C_3
REMARK    3  A    between atoms: N_8  and  C_9
REMARK    4  A    between atoms: C_13  and  C_15
REMARK                            x       y       z     vdW  Elec       q    Type
REMARK                         _______ _______ _______ _____ _____    ______ ____
ROOT
ATOM      1  C   UNL     1       1.077   8.541  21.616  0.00  0.00    +0.000 C 
ATOM      2  C   UNL     1      -0.411   8.434  21.307  0.00  0.00    +0.000 C 
ATOM      3  C   UNL     1      -0.859   9.449  20.271  0.00  0.00    +0.000 C 
ATOM      4  N   UNL     1      -0.425  10.824  20.496  0.00  0.00    +0.000 N 
ATOM      5  C   UNL     1      -0.987  11.932  19.814  0.00  0.00    +0.000 C 
ATOM      6  O   UNL     1      -0.584  13.083  19.982  0.00  0.00    +0.000 OA
ATOM      7  C   UNL     1       0.928  11.024  21.021  0.00  0.00    +0.000 C 
ATOM      8  C   UNL     1       1.402   9.974  22.025  0.00  0.00    +0.000 C 
ENDROOT
BRANCH   1  14
ATOM      9  C   UNL     1       1.716   4.423  20.172  0.00  0.00    +0.000 A 
ATOM     10  C   UNL     1       2.459   4.277  19.010  0.00  0.00    +0.000 A 
ATOM     11  C   UNL     1       2.970   5.427  18.437  0.00  0.00    +0.000 A 
ATOM     12  N   UNL     1       2.784   6.673  18.934  0.00  0.00    +0.000 NA
ATOM     13  C   UNL     1       2.039   6.809  20.052  0.00  0.00    +0.000 A 
ATOM     14  N   UNL     1       1.885   8.097  20.490  0.00  0.00    +0.000 N 
ATOM     15  C   UNL     1       1.492   5.699  20.682  0.00  0.00    +0.000 A 
ATOM     16  H   UNL     1       2.399   8.756  19.919  0.00  0.00    +0.000 HD
BRANCH   9  18
ATOM     17  C   UNL     1       2.017   2.570  21.624  0.00  0.00    +0.000 C 
ATOM     18  O   UNL     1       1.138   3.408  20.884  0.00  0.00    +0.000 OA
ENDBRANCH   9  18
ENDBRANCH   1  14
BRANCH   5  19
ATOM     19  C   UNL     1      -2.116  11.742  18.846  0.00  0.00    +0.000 A 
ATOM     20  C   UNL     1      -3.426  12.007  19.264  0.00  0.00    +0.000 A 
ATOM     21  C   UNL     1      -4.500  11.800  18.389  0.00  0.00    +0.000 A 
ATOM     22  C   UNL     1      -4.274  11.310  17.103  0.00  0.00    +0.000 A 
ATOM     23  C   UNL     1      -2.972  11.102  16.661  0.00  0.00    +0.000 A 
ATOM     24  C   UNL     1      -1.902  11.373  17.513  0.00  0.00    +0.000 A 
ENDBRANCH   5  19
TORSDOF 3
ENDMDL
