MODEL 1
REMARK VINA RESULT:      -7.8      0.000      0.000
REMARK  Name = 
REMARK  6 active torsions:
REMARK  status: ('A' for Active; 'I' for Inactive)
REMARK    1  A    between atoms: C_2  and  C_4
REMARK    2  A    between atoms: C_6  and  C_7
REMARK    3  A    between atoms: C_7  and  C_8
REMARK    4  A    between atoms: C_8  and  C_9
REMARK    5  A    between atoms: N_18  and  C_19
REMARK    6  A    between atoms: C_19  and  C_20
REMARK                            x       y       z     vdW  Elec       q    Type
REMARK                         _______ _______ _______ _____ _____    ______ ____
ROOT
ATOM      1  C   UNL     1       6.867   5.153  15.404  0.00  0.00    +0.000 A 
ATOM      2  N   UNL     1       7.665   6.153  15.941  0.00  0.00    +0.000 NA
ATOM      3  C   UNL     1       7.287   6.286  17.204  0.00  0.00    +0.000 A 
ATOM      4  N   UNL     1       6.287   5.367  17.510  0.00  0.00    +0.000 N 
ATOM      5  C   UNL     1       5.628   5.106  18.708  0.00  0.00    +0.000 A 
ATOM      6  O   UNL     1       5.924   5.699  19.733  0.00  0.00    +0.000 OA
ATOM      7  N   UNL     1       4.653   4.130  18.550  0.00  0.00    +0.000 N 
ATOM      8  N   UNL     1       4.400   3.458  17.382  0.00  0.00    +0.000 NA
ATOM      9  N   UNL     1       5.055   3.719  16.355  0.00  0.00    +0.000 NA
ATOM     10  C   UNL     1       6.007   4.670  16.364  0.00  0.00    +0.000 A 
ENDROOT
BRANCH   1  12
ATOM     11  N   UNL     1       6.329   3.502  13.791  0.00  0.00    +0.000 N 
ATOM     12  C   UNL     1       6.952   4.694  14.020  0.00  0.00    +0.000 C 
ATOM     13  O   UNL     1       7.517   5.298  13.115  0.00  0.00    +0.000 OA
ATOM     14  H   UNL     1       6.342   3.119  12.858  0.00  0.00    +0.000 HD
ATOM     15  H   UNL     1       5.857   3.021  14.547  0.00  0.00    +0.000 HD
ENDBRANCH   1  12
BRANCH   3  16
ATOM     16  C   UNL     1       7.873   7.277  18.177  0.00  0.00    +0.000 C 
BRANCH  16  17
ATOM     17  C   UNL     1       7.659   8.726  17.710  0.00  0.00    +0.000 C 
BRANCH  17  18
ATOM     18  C   UNL     1       8.644   9.706  18.307  0.00  0.00    +0.000 A 
ATOM     19  C   UNL     1       8.918   9.694  19.682  0.00  0.00    +0.000 A 
ATOM     20  C   UNL     1       9.855  10.574  20.229  0.00  0.00    +0.000 A 
ATOM     21  C   UNL     1      10.525  11.481  19.409  0.00  0.00    +0.000 A 
ATOM     22  C   UNL     1      10.254  11.510  18.043  0.00  0.00    +0.000 A 
ATOM     23  C   UNL     1       9.318  10.629  17.494  0.00  0.00    +0.000 A 
ENDBRANCH  17  18
ENDBRANCH  16  17
ENDBRANCH   3  16
BRANCH   7  24
ATOM     24  C   UNL     1       3.842   3.704  19.687  0.00  0.00    +0.000 C 
BRANCH  24  25
ATOM     25  C   UNL     1       2.387   4.168  19.637  0.00  0.00    +0.000 C 
ATOM     26 CL   UNL     1       1.309   3.071  20.536  0.00  0.00    +0.000 Cl
ENDBRANCH  24  25
ENDBRANCH   7  24
TORSDOF 6
ENDMDL
MODEL 2
REMARK VINA RESULT:      -7.8      0.403      1.013
REMARK  Name = 
REMARK  6 active torsions:
REMARK  status: ('A' for Active; 'I' for Inactive)
REMARK    1  A    between atoms: C_2  and  C_4
REMARK    2  A    between atoms: C_6  and  C_7
REMARK    3  A    between atoms: C_7  and  C_8
REMARK    4  A    between atoms: C_8  and  C_9
REMARK    5  A    between atoms: N_18  and  C_19
REMARK    6  A    between atoms: C_19  and  C_20
REMARK                            x       y       z     vdW  Elec       q    Type
REMARK                         _______ _______ _______ _____ _____    ______ ____
ROOT
ATOM      1  C   UNL     1       6.831   5.095  15.394  0.00  0.00    +0.000 A 
ATOM      2  N   UNL     1       7.599   6.140  15.885  0.00  0.00    +0.000 NA
ATOM      3  C   UNL     1       7.250   6.286  17.156  0.00  0.00    +0.000 A 
ATOM      4  N   UNL     1       6.299   5.334  17.510  0.00  0.00    +0.000 N 
ATOM      5  C   UNL     1       5.685   5.074  18.732  0.00  0.00    +0.000 A 
ATOM      6  O   UNL     1       5.983   5.703  19.734  0.00  0.00    +0.000 OA
ATOM      7  N   UNL     1       4.748   4.054  18.623  0.00  0.00    +0.000 N 
ATOM      8  N   UNL     1       4.492   3.345  17.478  0.00  0.00    +0.000 NA
ATOM      9  N   UNL     1       5.107   3.608  16.428  0.00  0.00    +0.000 NA
ATOM     10  C   UNL     1       6.018   4.599  16.389  0.00  0.00    +0.000 A 
ENDROOT
BRANCH   1  12
ATOM     11  N   UNL     1       6.254   3.420  13.818  0.00  0.00    +0.000 N 
ATOM     12  C   UNL     1       6.897   4.606  14.019  0.00  0.00    +0.000 C 
ATOM     13  O   UNL     1       7.465   5.183  13.098  0.00  0.00    +0.000 OA
ATOM     14  H   UNL     1       6.253   3.019  12.893  0.00  0.00    +0.000 HD
ATOM     15  H   UNL     1       5.780   2.963  14.587  0.00  0.00    +0.000 HD
ENDBRANCH   1  12
BRANCH   3  16
ATOM     16  C   UNL     1       7.819   7.325  18.089  0.00  0.00    +0.000 C 
BRANCH  16  17
ATOM     17  C   UNL     1       7.622   8.749  17.544  0.00  0.00    +0.000 C 
BRANCH  17  18
ATOM     18  C   UNL     1       8.468   9.787  18.244  0.00  0.00    +0.000 A 
ATOM     19  C   UNL     1       8.638  11.063  17.688  0.00  0.00    +0.000 A 
ATOM     20  C   UNL     1       9.390  12.035  18.352  0.00  0.00    +0.000 A 
ATOM     21  C   UNL     1       9.986  11.742  19.578  0.00  0.00    +0.000 A 
ATOM     22  C   UNL     1       9.833  10.475  20.136  0.00  0.00    +0.000 A 
ATOM     23  C   UNL     1       9.080   9.502  19.474  0.00  0.00    +0.000 A 
ENDBRANCH  17  18
ENDBRANCH  16  17
ENDBRANCH   3  16
BRANCH   7  24
ATOM     24  C   UNL     1       3.988   3.622  19.792  0.00  0.00    +0.000 C 
BRANCH  24  25
ATOM     25  C   UNL     1       2.687   4.389  20.021  0.00  0.00    +0.000 C 
ATOM     26 CL   UNL     1       1.257   3.419  19.585  0.00  0.00    +0.000 Cl
ENDBRANCH  24  25
ENDBRANCH   7  24
TORSDOF 6
ENDMDL
MODEL 3
REMARK VINA RESULT:      -7.8      3.084      6.584
REMARK  Name = 
REMARK  6 active torsions:
REMARK  status: ('A' for Active; 'I' for Inactive)
REMARK    1  A    between atoms: C_2  and  C_4
REMARK    2  A    between atoms: C_6  and  C_7
REMARK    3  A    between atoms: C_7  and  C_8
REMARK    4  A    between atoms: C_8  and  C_9
REMARK    5  A    between atoms: N_18  and  C_19
REMARK    6  A    between atoms: C_19  and  C_20
REMARK                            x       y       z     vdW  Elec       q    Type
REMARK                         _______ _______ _______ _____ _____    ______ ____
ROOT
ATOM      1  C   UNL     1       6.973   5.576  18.103  0.00  0.00    +0.000 A 
ATOM      2  N   UNL     1       6.879   5.840  16.744  0.00  0.00    +0.000 NA
ATOM      3  C   UNL     1       5.874   5.102  16.295  0.00  0.00    +0.000 A 
ATOM      4  N   UNL     1       5.289   4.392  17.340  0.00  0.00    +0.000 N 
ATOM      5  C   UNL     1       4.189   3.540  17.356  0.00  0.00    +0.000 A 
ATOM      6  O   UNL     1       3.533   3.338  16.346  0.00  0.00    +0.000 OA
ATOM      7  N   UNL     1       3.981   3.001  18.618  0.00  0.00    +0.000 N 
ATOM      8  N   UNL     1       4.721   3.306  19.731  0.00  0.00    +0.000 NA
ATOM      9  N   UNL     1       5.671   4.108  19.651  0.00  0.00    +0.000 NA
ATOM     10  C   UNL     1       6.000   4.675  18.476  0.00  0.00    +0.000 A 
ENDROOT
BRANCH   1  12
ATOM     11  N   UNL     1       8.347   5.384  20.025  0.00  0.00    +0.000 N 
ATOM     12  C   UNL     1       7.964   6.183  18.988  0.00  0.00    +0.000 C 
ATOM     13  O   UNL     1       8.438   7.305  18.843  0.00  0.00    +0.000 OA
ATOM     14  H   UNL     1       9.030   5.732  20.679  0.00  0.00    +0.000 HD
ATOM     15  H   UNL     1       7.953   4.456  20.124  0.00  0.00    +0.000 HD
ENDBRANCH   1  12
BRANCH   3  16
ATOM     16  C   UNL     1       5.418   5.054  14.859  0.00  0.00    +0.000 C 
BRANCH  16  17
ATOM     17  C   UNL     1       6.521   4.523  13.929  0.00  0.00    +0.000 C 
BRANCH  17  18
ATOM     18  C   UNL     1       6.001   3.647  12.812  0.00  0.00    +0.000 A 
ATOM     19  C   UNL     1       6.813   2.653  12.247  0.00  0.00    +0.000 A 
ATOM     20  C   UNL     1       6.322   1.820  11.239  0.00  0.00    +0.000 A 
ATOM     21  C   UNL     1       5.015   1.973  10.780  0.00  0.00    +0.000 A 
ATOM     22  C   UNL     1       4.201   2.963  11.326  0.00  0.00    +0.000 A 
ATOM     23  C   UNL     1       4.691   3.798  12.335  0.00  0.00    +0.000 A 
ENDBRANCH  17  18
ENDBRANCH  16  17
ENDBRANCH   3  16
BRANCH   7  24
ATOM     24  C   UNL     1       2.875   2.078  18.855  0.00  0.00    +0.000 C 
BRANCH  24  25
ATOM     25  C   UNL     1       1.638   2.718  19.483  0.00  0.00    +0.000 C 
ATOM     26 CL   UNL     1       1.593   2.484  21.249  0.00  0.00    +0.000 Cl
ENDBRANCH  24  25
ENDBRANCH   7  24
TORSDOF 6
ENDMDL
MODEL 4
REMARK VINA RESULT:      -7.7      3.529      5.593
REMARK  Name = 
REMARK  6 active torsions:
REMARK  status: ('A' for Active; 'I' for Inactive)
REMARK    1  A    between atoms: C_2  and  C_4
REMARK    2  A    between atoms: C_6  and  C_7
REMARK    3  A    between atoms: C_7  and  C_8
REMARK    4  A    between atoms: C_8  and  C_9
REMARK    5  A    between atoms: N_18  and  C_19
REMARK    6  A    between atoms: C_19  and  C_20
REMARK                            x       y       z     vdW  Elec       q    Type
REMARK                         _______ _______ _______ _____ _____    ______ ____
ROOT
ATOM      1  C   UNL     1       5.848   6.415  17.640  0.00  0.00    +0.000 A 
ATOM      2  N   UNL     1       4.822   7.292  17.319  0.00  0.00    +0.000 NA
ATOM      3  C   UNL     1       3.700   6.706  17.713  0.00  0.00    +0.000 A 
ATOM      4  N   UNL     1       3.979   5.484  18.319  0.00  0.00    +0.000 N 
ATOM      5  C   UNL     1       3.135   4.556  18.921  0.00  0.00    +0.000 A 
ATOM      6  O   UNL     1       1.937   4.765  19.023  0.00  0.00    +0.000 OA
ATOM      7  N   UNL     1       3.836   3.438  19.355  0.00  0.00    +0.000 N 
ATOM      8  N   UNL     1       5.194   3.281  19.261  0.00  0.00    +0.000 NA
ATOM      9  N   UNL     1       5.894   4.171  18.742  0.00  0.00    +0.000 NA
ATOM     10  C   UNL     1       5.333   5.291  18.249  0.00  0.00    +0.000 A 
ENDROOT
BRANCH   1  12
ATOM     11  N   UNL     1       8.003   6.928  18.482  0.00  0.00    +0.000 N 
ATOM     12  C   UNL     1       7.259   6.671  17.367  0.00  0.00    +0.000 C 
ATOM     13  O   UNL     1       7.771   6.659  16.253  0.00  0.00    +0.000 OA
ATOM     14  H   UNL     1       8.988   7.113  18.376  0.00  0.00    +0.000 HD
ATOM     15  H   UNL     1       7.567   6.923  19.396  0.00  0.00    +0.000 HD
ENDBRANCH   1  12
BRANCH   3  16
ATOM     16  C   UNL     1       2.321   7.292  17.548  0.00  0.00    +0.000 C 
BRANCH  16  17
ATOM     17  C   UNL     1       2.282   8.776  17.947  0.00  0.00    +0.000 C 
BRANCH  17  18
ATOM     18  C   UNL     1       1.423   9.054  19.160  0.00  0.00    +0.000 A 
ATOM     19  C   UNL     1       0.467  10.080  19.138  0.00  0.00    +0.000 A 
ATOM     20  C   UNL     1      -0.352  10.314  20.245  0.00  0.00    +0.000 A 
ATOM     21  C   UNL     1      -0.222   9.530  21.390  0.00  0.00    +0.000 A 
ATOM     22  C   UNL     1       0.731   8.514  21.428  0.00  0.00    +0.000 A 
ATOM     23  C   UNL     1       1.551   8.278  20.321  0.00  0.00    +0.000 A 
ENDBRANCH  17  18
ENDBRANCH  16  17
ENDBRANCH   3  16
BRANCH   7  24
ATOM     24  C   UNL     1       3.139   2.340  20.017  0.00  0.00    +0.000 C 
BRANCH  24  25
ATOM     25  C   UNL     1       2.846   2.575  21.498  0.00  0.00    +0.000 C 
ATOM     26 CL   UNL     1       1.104   2.783  21.807  0.00  0.00    +0.000 Cl
ENDBRANCH  24  25
ENDBRANCH   7  24
TORSDOF 6
ENDMDL
MODEL 5
REMARK VINA RESULT:      -7.7      4.315      6.225
REMARK  Name = 
REMARK  6 active torsions:
REMARK  status: ('A' for Active; 'I' for Inactive)
REMARK    1  A    between atoms: C_2  and  C_4
REMARK    2  A    between atoms: C_6  and  C_7
REMARK    3  A    between atoms: C_7  and  C_8
REMARK    4  A    between atoms: C_8  and  C_9
REMARK    5  A    between atoms: N_18  and  C_19
REMARK    6  A    between atoms: C_19  and  C_20
REMARK                            x       y       z     vdW  Elec       q    Type
REMARK                         _______ _______ _______ _____ _____    ______ ____
ROOT
ATOM      1  C   UNL     1       4.270   3.594  18.838  0.00  0.00    +0.000 A 
ATOM      2  N   UNL     1       4.974   3.948  17.697  0.00  0.00    +0.000 NA
ATOM      3  C   UNL     1       4.623   5.197  17.423  0.00  0.00    +0.000 A 
ATOM      4  N   UNL     1       3.736   5.674  18.383  0.00  0.00    +0.000 N 
ATOM      5  C   UNL     1       3.146   6.925  18.534  0.00  0.00    +0.000 A 
ATOM      6  O   UNL     1       3.410   7.843  17.773  0.00  0.00    +0.000 OA
ATOM      7  N   UNL     1       2.275   6.950  19.615  0.00  0.00    +0.000 N 
ATOM      8  N   UNL     1       2.057   5.901  20.469  0.00  0.00    +0.000 NA
ATOM      9  N   UNL     1       2.649   4.818  20.295  0.00  0.00    +0.000 NA
ATOM     10  C   UNL     1       3.495   4.651  19.262  0.00  0.00    +0.000 A 
ENDROOT
BRANCH   1  12
ATOM     11  N   UNL     1       3.968   1.248  18.687  0.00  0.00    +0.000 N 
ATOM     12  C   UNL     1       4.359   2.285  19.481  0.00  0.00    +0.000 C 
ATOM     13  O   UNL     1       4.752   2.094  20.627  0.00  0.00    +0.000 OA
ATOM     14  H   UNL     1       4.003   0.311  19.059  0.00  0.00    +0.000 HD
ATOM     15  H   UNL     1       3.657   1.422  17.740  0.00  0.00    +0.000 HD
ENDBRANCH   1  12
BRANCH   3  16
ATOM     16  C   UNL     1       5.131   5.994  16.248  0.00  0.00    +0.000 C 
BRANCH  16  17
ATOM     17  C   UNL     1       6.540   5.546  15.823  0.00  0.00    +0.000 C 
BRANCH  17  18
ATOM     18  C   UNL     1       6.588   4.932  14.442  0.00  0.00    +0.000 A 
ATOM     19  C   UNL     1       7.590   5.299  13.533  0.00  0.00    +0.000 A 
ATOM     20  C   UNL     1       7.657   4.705  12.270  0.00  0.00    +0.000 A 
ATOM     21  C   UNL     1       6.721   3.742  11.899  0.00  0.00    +0.000 A 
ATOM     22  C   UNL     1       5.715   3.376  12.790  0.00  0.00    +0.000 A 
ATOM     23  C   UNL     1       5.646   3.967  14.054  0.00  0.00    +0.000 A 
ENDBRANCH  17  18
ENDBRANCH  16  17
ENDBRANCH   3  16
BRANCH   7  24
ATOM     24  C   UNL     1       1.549   8.172  19.951  0.00  0.00    +0.000 C 
BRANCH  24  25
ATOM     25  C   UNL     1       1.330   8.387  21.448  0.00  0.00    +0.000 C 
ATOM     26 CL   UNL     1      -0.386   8.667  21.835  0.00  0.00    +0.000 Cl
ENDBRANCH  24  25
ENDBRANCH   7  24
TORSDOF 6
ENDMDL
MODEL 6
REMARK VINA RESULT:      -7.7      3.615      7.458
REMARK  Name = 
REMARK  6 active torsions:
REMARK  status: ('A' for Active; 'I' for Inactive)
REMARK    1  A    between atoms: C_2  and  C_4
REMARK    2  A    between atoms: C_6  and  C_7
REMARK    3  A    between atoms: C_7  and  C_8
REMARK    4  A    between atoms: C_8  and  C_9
REMARK    5  A    between atoms: N_18  and  C_19
REMARK    6  A    between atoms: C_19  and  C_20
REMARK                            x       y       z     vdW  Elec       q    Type
REMARK                         _______ _______ _______ _____ _____    ______ ____
ROOT
ATOM      1  C   UNL     1       6.651   5.385  17.706  0.00  0.00    +0.000 A 
ATOM      2  N   UNL     1       5.431   4.840  18.081  0.00  0.00    +0.000 NA
ATOM      3  C   UNL     1       4.870   4.393  16.966  0.00  0.00    +0.000 A 
ATOM      4  N   UNL     1       5.717   4.602  15.881  0.00  0.00    +0.000 N 
ATOM      5  C   UNL     1       5.576   4.257  14.540  0.00  0.00    +0.000 A 
ATOM      6  O   UNL     1       4.603   3.634  14.147  0.00  0.00    +0.000 OA
ATOM      7  N   UNL     1       6.649   4.708  13.783  0.00  0.00    +0.000 N 
ATOM      8  N   UNL     1       7.745   5.360  14.289  0.00  0.00    +0.000 NA
ATOM      9  N   UNL     1       7.820   5.604  15.508  0.00  0.00    +0.000 NA
ATOM     10  C   UNL     1       6.829   5.251  16.347  0.00  0.00    +0.000 A 
ENDROOT
BRANCH   1  12
ATOM     11  N   UNL     1       7.987   7.256  18.281  0.00  0.00    +0.000 N 
ATOM     12  C   UNL     1       7.593   6.000  18.638  0.00  0.00    +0.000 C 
ATOM     13  O   UNL     1       8.011   5.471  19.662  0.00  0.00    +0.000 OA
ATOM     14  H   UNL     1       8.636   7.749  18.876  0.00  0.00    +0.000 HD
ATOM     15  H   UNL     1       7.624   7.683  17.438  0.00  0.00    +0.000 HD
ENDBRANCH   1  12
BRANCH   3  16
ATOM     16  C   UNL     1       3.517   3.734  16.889  0.00  0.00    +0.000 C 
BRANCH  16  17
ATOM     17  C   UNL     1       3.451   2.468  17.759  0.00  0.00    +0.000 C 
BRANCH  17  18
ATOM     18  C   UNL     1       2.713   2.667  19.063  0.00  0.00    +0.000 A 
ATOM     19  C   UNL     1       1.349   2.995  19.069  0.00  0.00    +0.000 A 
ATOM     20  C   UNL     1       0.658   3.145  20.273  0.00  0.00    +0.000 A 
ATOM     21  C   UNL     1       1.321   2.974  21.487  0.00  0.00    +0.000 A 
ATOM     22  C   UNL     1       2.678   2.658  21.495  0.00  0.00    +0.000 A 
ATOM     23  C   UNL     1       3.372   2.507  20.291  0.00  0.00    +0.000 A 
ENDBRANCH  17  18
ENDBRANCH  16  17
ENDBRANCH   3  16
BRANCH   7  24
ATOM     24  C   UNL     1       6.702   4.452  12.347  0.00  0.00    +0.000 C 
BRANCH  24  25
ATOM     25  C   UNL     1       7.041   3.010  11.972  0.00  0.00    +0.000 C 
ATOM     26 CL   UNL     1       5.598   2.100  11.459  0.00  0.00    +0.000 Cl
ENDBRANCH  24  25
ENDBRANCH   7  24
TORSDOF 6
ENDMDL
MODEL 7
REMARK VINA RESULT:      -7.7      3.670      6.004
REMARK  Name = 
REMARK  6 active torsions:
REMARK  status: ('A' for Active; 'I' for Inactive)
REMARK    1  A    between atoms: C_2  and  C_4
REMARK    2  A    between atoms: C_6  and  C_7
REMARK    3  A    between atoms: C_7  and  C_8
REMARK    4  A    between atoms: C_8  and  C_9
REMARK    5  A    between atoms: N_18  and  C_19
REMARK    6  A    between atoms: C_19  and  C_20
REMARK                            x       y       z     vdW  Elec       q    Type
REMARK                         _______ _______ _______ _____ _____    ______ ____
ROOT
ATOM      1  C   UNL     1       2.625   3.883  20.053  0.00  0.00    +0.000 A 
ATOM      2  N   UNL     1       3.320   3.477  18.923  0.00  0.00    +0.000 NA
ATOM      3  C   UNL     1       3.440   4.555  18.160  0.00  0.00    +0.000 A 
ATOM      4  N   UNL     1       2.872   5.660  18.788  0.00  0.00    +0.000 N 
ATOM      5  C   UNL     1       2.806   6.993  18.395  0.00  0.00    +0.000 A 
ATOM      6  O   UNL     1       3.332   7.374  17.363  0.00  0.00    +0.000 OA
ATOM      7  N   UNL     1       2.093   7.758  19.310  0.00  0.00    +0.000 N 
ATOM      8  N   UNL     1       1.567   7.285  20.484  0.00  0.00    +0.000 NA
ATOM      9  N   UNL     1       1.696   6.084  20.789  0.00  0.00    +0.000 NA
ATOM     10  C   UNL     1       2.336   5.227  19.972  0.00  0.00    +0.000 A 
ENDROOT
BRANCH   1  12
ATOM     11  N   UNL     1       0.926   2.857  21.349  0.00  0.00    +0.000 N 
ATOM     12  C   UNL     1       2.269   2.995  21.157  0.00  0.00    +0.000 C 
ATOM     13  O   UNL     1       3.075   2.403  21.867  0.00  0.00    +0.000 OA
ATOM     14  H   UNL     1       0.601   2.258  22.092  0.00  0.00    +0.000 HD
ATOM     15  H   UNL     1       0.274   3.344  20.747  0.00  0.00    +0.000 HD
ENDBRANCH   1  12
BRANCH   3  16
ATOM     16  C   UNL     1       4.116   4.582  16.812  0.00  0.00    +0.000 C 
BRANCH  16  17
ATOM     17  C   UNL     1       5.588   4.147  16.905  0.00  0.00    +0.000 C 
BRANCH  17  18
ATOM     18  C   UNL     1       6.499   5.212  17.472  0.00  0.00    +0.000 A 
ATOM     19  C   UNL     1       6.642   6.448  16.824  0.00  0.00    +0.000 A 
ATOM     20  C   UNL     1       7.456   7.446  17.365  0.00  0.00    +0.000 A 
ATOM     21  C   UNL     1       8.140   7.220  18.558  0.00  0.00    +0.000 A 
ATOM     22  C   UNL     1       8.014   5.994  19.207  0.00  0.00    +0.000 A 
ATOM     23  C   UNL     1       7.200   4.994  18.667  0.00  0.00    +0.000 A 
ENDBRANCH  17  18
ENDBRANCH  16  17
ENDBRANCH   3  16
BRANCH   7  24
ATOM     24  C   UNL     1       1.904   9.188  19.089  0.00  0.00    +0.000 C 
BRANCH  24  25
ATOM     25  C   UNL     1       0.829   9.535  18.060  0.00  0.00    +0.000 C 
ATOM     26 CL   UNL     1      -0.623  10.230  18.824  0.00  0.00    +0.000 Cl
ENDBRANCH  24  25
ENDBRANCH   7  24
TORSDOF 6
ENDMDL
MODEL 8
REMARK VINA RESULT:      -7.7      3.711      6.490
REMARK  Name = 
REMARK  6 active torsions:
REMARK  status: ('A' for Active; 'I' for Inactive)
REMARK    1  A    between atoms: C_2  and  C_4
REMARK    2  A    between atoms: C_6  and  C_7
REMARK    3  A    between atoms: C_7  and  C_8
REMARK    4  A    between atoms: C_8  and  C_9
REMARK    5  A    between atoms: N_18  and  C_19
REMARK    6  A    between atoms: C_19  and  C_20
REMARK                            x       y       z     vdW  Elec       q    Type
REMARK                         _______ _______ _______ _____ _____    ______ ____
ROOT
ATOM      1  C   UNL     1       6.760   5.112  18.568  0.00  0.00    +0.000 A 
ATOM      2  N   UNL     1       5.662   4.371  18.981  0.00  0.00    +0.000 NA
ATOM      3  C   UNL     1       5.036   3.994  17.875  0.00  0.00    +0.000 A 
ATOM      4  N   UNL     1       5.726   4.441  16.752  0.00  0.00    +0.000 N 
ATOM      5  C   UNL     1       5.478   4.245  15.396  0.00  0.00    +0.000 A 
ATOM      6  O   UNL     1       4.546   3.553  15.019  0.00  0.00    +0.000 OA
ATOM      7  N   UNL     1       6.400   4.921  14.608  0.00  0.00    +0.000 N 
ATOM      8  N   UNL     1       7.461   5.644  15.089  0.00  0.00    +0.000 NA
ATOM      9  N   UNL     1       7.644   5.745  16.317  0.00  0.00    +0.000 NA
ATOM     10  C   UNL     1       6.800   5.167  17.192  0.00  0.00    +0.000 A 
ENDROOT
BRANCH   1  12
ATOM     11  N   UNL     1       8.302   6.862  18.992  0.00  0.00    +0.000 N 
ATOM     12  C   UNL     1       7.722   5.726  19.479  0.00  0.00    +0.000 C 
ATOM     13  O   UNL     1       8.007   5.296  20.591  0.00  0.00    +0.000 OA
ATOM     14  H   UNL     1       8.976   7.346  19.564  0.00  0.00    +0.000 HD
ATOM     15  H   UNL     1       8.047   7.210  18.076  0.00  0.00    +0.000 HD
ENDBRANCH   1  12
BRANCH   3  16
ATOM     16  C   UNL     1       3.769   3.178  17.841  0.00  0.00    +0.000 C 
BRANCH  16  17
ATOM     17  C   UNL     1       2.546   4.042  17.495  0.00  0.00    +0.000 C 
BRANCH  17  18
ATOM     18  C   UNL     1       2.311   5.175  18.469  0.00  0.00    +0.000 A 
ATOM     19  C   UNL     1       1.918   4.912  19.789  0.00  0.00    +0.000 A 
ATOM     20  C   UNL     1       1.736   5.956  20.699  0.00  0.00    +0.000 A 
ATOM     21  C   UNL     1       1.940   7.276  20.300  0.00  0.00    +0.000 A 
ATOM     22  C   UNL     1       2.322   7.551  18.989  0.00  0.00    +0.000 A 
ATOM     23  C   UNL     1       2.505   6.508  18.077  0.00  0.00    +0.000 A 
ENDBRANCH  17  18
ENDBRANCH  16  17
ENDBRANCH   3  16
BRANCH   7  24
ATOM     24  C   UNL     1       6.321   4.849  13.152  0.00  0.00    +0.000 C 
BRANCH  24  25
ATOM     25  C   UNL     1       6.777   3.519  12.556  0.00  0.00    +0.000 C 
ATOM     26 CL   UNL     1       5.429   2.629  11.804  0.00  0.00    +0.000 Cl
ENDBRANCH  24  25
ENDBRANCH   7  24
TORSDOF 6
ENDMDL
MODEL 9
REMARK VINA RESULT:      -7.7      3.063      6.607
REMARK  Name = 
REMARK  6 active torsions:
REMARK  status: ('A' for Active; 'I' for Inactive)
REMARK    1  A    between atoms: C_2  and  C_4
REMARK    2  A    between atoms: C_6  and  C_7
REMARK    3  A    between atoms: C_7  and  C_8
REMARK    4  A    between atoms: C_8  and  C_9
REMARK    5  A    between atoms: N_18  and  C_19
REMARK    6  A    between atoms: C_19  and  C_20
REMARK                            x       y       z     vdW  Elec       q    Type
REMARK                         _______ _______ _______ _____ _____    ______ ____
ROOT
ATOM      1  C   UNL     1       6.992   5.602  18.051  0.00  0.00    +0.000 A 
ATOM      2  N   UNL     1       6.906   5.891  16.697  0.00  0.00    +0.000 NA
ATOM      3  C   UNL     1       5.926   5.135  16.221  0.00  0.00    +0.000 A 
ATOM      4  N   UNL     1       5.348   4.390  17.245  0.00  0.00    +0.000 N 
ATOM      5  C   UNL     1       4.270   3.509  17.231  0.00  0.00    +0.000 A 
ATOM      6  O   UNL     1       3.632   3.311  16.210  0.00  0.00    +0.000 OA
ATOM      7  N   UNL     1       4.063   2.939  18.480  0.00  0.00    +0.000 N 
ATOM      8  N   UNL     1       4.782   3.241  19.607  0.00  0.00    +0.000 NA
ATOM      9  N   UNL     1       5.711   4.069  19.555  0.00  0.00    +0.000 NA
ATOM     10  C   UNL     1       6.039   4.668  18.395  0.00  0.00    +0.000 A 
ENDROOT
BRANCH   1  12
ATOM     11  N   UNL     1       8.275   5.443  20.038  0.00  0.00    +0.000 N 
ATOM     12  C   UNL     1       7.956   6.216  18.960  0.00  0.00    +0.000 C 
ATOM     13  O   UNL     1       8.462   7.322  18.800  0.00  0.00    +0.000 OA
ATOM     14  H   UNL     1       8.937   5.798  20.710  0.00  0.00    +0.000 HD
ATOM     15  H   UNL     1       7.857   4.528  20.148  0.00  0.00    +0.000 HD
ENDBRANCH   1  12
BRANCH   3  16
ATOM     16  C   UNL     1       5.487   5.105  14.779  0.00  0.00    +0.000 C 
BRANCH  16  17
ATOM     17  C   UNL     1       6.561   4.484  13.871  0.00  0.00    +0.000 C 
BRANCH  17  18
ATOM     18  C   UNL     1       5.995   3.597  12.785  0.00  0.00    +0.000 A 
ATOM     19  C   UNL     1       4.679   3.773  12.333  0.00  0.00    +0.000 A 
ATOM     20  C   UNL     1       4.167   2.978  11.305  0.00  0.00    +0.000 A 
ATOM     21  C   UNL     1       4.962   1.995  10.719  0.00  0.00    +0.000 A 
ATOM     22  C   UNL     1       6.268   1.804  11.165  0.00  0.00    +0.000 A 
ATOM     23  C   UNL     1       6.782   2.598  12.193  0.00  0.00    +0.000 A 
ENDBRANCH  17  18
ENDBRANCH  16  17
ENDBRANCH   3  16
BRANCH   7  24
ATOM     24  C   UNL     1       2.979   1.983  18.685  0.00  0.00    +0.000 C 
BRANCH  24  25
ATOM     25  C   UNL     1       1.584   2.605  18.727  0.00  0.00    +0.000 C 
ATOM     26 CL   UNL     1       1.410   3.756  20.076  0.00  0.00    +0.000 Cl
ENDBRANCH  24  25
ENDBRANCH   7  24
TORSDOF 6
ENDMDL
