MODEL 1
REMARK VINA RESULT:      -7.7      0.000      0.000
REMARK  Name = 
REMARK  10 active torsions:
REMARK  status: ('A' for Active; 'I' for Inactive)
REMARK    1  A    between atoms: N_1  and  S_2
REMARK    2  A    between atoms: S_2  and  C_5
REMARK    3  A    between atoms: C_8  and  C_9
REMARK    4  A    between atoms: C_9  and  C_10
REMARK    5  A    between atoms: C_10  and  N_11
REMARK    6  A    between atoms: C_12  and  C_14
REMARK    7  A    between atoms: C_14  and  C_15
REMARK    8  A    between atoms: C_15  and  C_16
REMARK    9  A    between atoms: C_19  and  O_20
REMARK   10  A    between atoms: N_24  and  O_25
REMARK                            x       y       z     vdW  Elec       q    Type
REMARK                         _______ _______ _______ _____ _____    ______ ____
ROOT
ATOM      1  N   UNL     1       1.631   4.559  19.230  0.00  0.00    +0.000 N 
ATOM      2  C   UNL     1       1.825   3.293  18.721  0.00  0.00    +0.000 C 
ATOM      3  O   UNL     1       0.933   2.691  18.138  0.00  0.00    +0.000 OA
ATOM      4  H   UNL     1       0.687   4.908  19.101  0.00  0.00    +0.000 HD
ENDROOT
BRANCH   2   5
ATOM      5  C   UNL     1       3.207   2.662  18.822  0.00  0.00    +0.000 C 
ATOM      6  N   UNL     1       3.572   2.182  19.982  0.00  0.00    +0.000 NA
BRANCH   6   7
ATOM      7  O   UNL     1       4.928   1.844  20.004  0.00  0.00    +0.000 OA
ATOM      8  H   UNL     1       5.085   1.535  19.092  0.00  0.00    +0.000 HD
ENDBRANCH   6   7
BRANCH   5   9
ATOM      9  C   UNL     1       4.055   2.729  17.565  0.00  0.00    +0.000 C 
BRANCH   9  10
ATOM     10  C   UNL     1       4.770   4.055  17.429  0.00  0.00    +0.000 A 
ATOM     11  C   UNL     1       4.473   4.916  16.364  0.00  0.00    +0.000 A 
ATOM     12  C   UNL     1       5.262   6.043  16.126  0.00  0.00    +0.000 A 
ATOM     13  C   UNL     1       6.337   6.327  16.968  0.00  0.00    +0.000 A 
ATOM     14  C   UNL     1       6.582   5.532  18.087  0.00  0.00    +0.000 A 
ATOM     15 BR   UNL     1       8.000   5.913  19.287  0.00  0.00    +0.000 Br
ATOM     16  C   UNL     1       5.801   4.398  18.318  0.00  0.00    +0.000 A 
BRANCH  13  17
ATOM     17  O   UNL     1       7.162   7.375  16.672  0.00  0.00    +0.000 OA
ATOM     18  H   UNL     1       6.754   7.891  15.958  0.00  0.00    +0.000 HD
ENDBRANCH  13  17
ENDBRANCH   9  10
ENDBRANCH   5   9
ENDBRANCH   2   5
BRANCH   1  19
ATOM     19  C   UNL     1       2.549   5.367  20.020  0.00  0.00    +0.000 C 
BRANCH  19  20
ATOM     20  C   UNL     1       3.105   6.608  19.301  0.00  0.00    +0.000 C 
BRANCH  20  24
ATOM     21  C   UNL     1       0.437   9.969  19.300  0.00  0.00    +0.000 A 
ATOM     22  C   UNL     1       0.640   9.246  20.480  0.00  0.00    +0.000 A 
ATOM     23  C   UNL     1       1.502   8.154  20.473  0.00  0.00    +0.000 A 
ATOM     24  C   UNL     1       2.156   7.774  19.296  0.00  0.00    +0.000 A 
ATOM     25  C   UNL     1       1.930   8.500  18.113  0.00  0.00    +0.000 A 
ATOM     26  C   UNL     1       1.072   9.597  18.114  0.00  0.00    +0.000 A 
BRANCH  21  27
ATOM     27  S   UNL     1      -0.600  11.394  19.325  0.00  0.00    +0.000 S 
ATOM     28  O   UNL     1       0.005  12.422  18.509  0.00  0.00    +0.000 OA
ATOM     29  O   UNL     1      -1.052  11.643  20.667  0.00  0.00    +0.000 OA
BRANCH  27  30
ATOM     30  N   UNL     1      -1.952  10.860  18.487  0.00  0.00    +0.000 NA
ATOM     31  H   UNL     1      -2.421  11.651  18.051  0.00  0.00    +0.000 HD
ATOM     32  H   UNL     1      -2.548  10.316  19.109  0.00  0.00    +0.000 HD
ENDBRANCH  27  30
ENDBRANCH  21  27
ENDBRANCH  20  24
ENDBRANCH  19  20
ENDBRANCH   1  19
TORSDOF 10
ENDMDL
MODEL 2
REMARK VINA RESULT:      -7.6      1.263      1.691
REMARK  Name = 
REMARK  10 active torsions:
REMARK  status: ('A' for Active; 'I' for Inactive)
REMARK    1  A    between atoms: N_1  and  S_2
REMARK    2  A    between atoms: S_2  and  C_5
REMARK    3  A    between atoms: C_8  and  C_9
REMARK    4  A    between atoms: C_9  and  C_10
REMARK    5  A    between atoms: C_10  and  N_11
REMARK    6  A    between atoms: C_12  and  C_14
REMARK    7  A    between atoms: C_14  and  C_15
REMARK    8  A    between atoms: C_15  and  C_16
REMARK    9  A    between atoms: C_19  and  O_20
REMARK   10  A    between atoms: N_24  and  O_25
REMARK                            x       y       z     vdW  Elec       q    Type
REMARK                         _______ _______ _______ _____ _____    ______ ____
ROOT
ATOM      1  N   UNL     1       2.100   4.284  21.415  0.00  0.00    +0.000 N 
ATOM      2  C   UNL     1       2.593   3.042  21.076  0.00  0.00    +0.000 C 
ATOM      3  O   UNL     1       3.135   2.319  21.902  0.00  0.00    +0.000 OA
ATOM      4  H   UNL     1       2.261   4.534  22.384  0.00  0.00    +0.000 HD
ENDROOT
BRANCH   2   5
ATOM      5  C   UNL     1       2.391   2.531  19.656  0.00  0.00    +0.000 C 
ATOM      6  N   UNL     1       1.168   2.272  19.272  0.00  0.00    +0.000 NA
BRANCH   6   7
ATOM      7  O   UNL     1       1.137   1.600  18.047  0.00  0.00    +0.000 OA
ATOM      8  H   UNL     1       1.873   2.014  17.559  0.00  0.00    +0.000 HD
ENDBRANCH   6   7
BRANCH   5   9
ATOM      9  C   UNL     1       3.657   2.299  18.853  0.00  0.00    +0.000 C 
BRANCH   9  10
ATOM     10  C   UNL     1       4.266   3.593  18.360  0.00  0.00    +0.000 A 
ATOM     11  C   UNL     1       3.737   4.244  17.238  0.00  0.00    +0.000 A 
ATOM     12  C   UNL     1       4.411   5.326  16.668  0.00  0.00    +0.000 A 
ATOM     13  C   UNL     1       5.604   5.775  17.232  0.00  0.00    +0.000 A 
ATOM     14  C   UNL     1       6.088   5.198  18.406  0.00  0.00    +0.000 A 
ATOM     15 BR   UNL     1       7.677   5.814  19.236  0.00  0.00    +0.000 Br
ATOM     16  C   UNL     1       5.422   4.108  18.969  0.00  0.00    +0.000 A 
BRANCH  13  17
ATOM     17  O   UNL     1       6.307   6.770  16.612  0.00  0.00    +0.000 OA
ATOM     18  H   UNL     1       5.690   7.282  16.064  0.00  0.00    +0.000 HD
ENDBRANCH  13  17
ENDBRANCH   9  10
ENDBRANCH   5   9
ENDBRANCH   2   5
BRANCH   1  19
ATOM     19  C   UNL     1       1.515   5.293  20.543  0.00  0.00    +0.000 C 
BRANCH  19  20
ATOM     20  C   UNL     1       2.509   6.325  19.987  0.00  0.00    +0.000 C 
BRANCH  20  24
ATOM     21  C   UNL     1       0.907  10.291  19.636  0.00  0.00    +0.000 A 
ATOM     22  C   UNL     1       0.789   9.601  20.846  0.00  0.00    +0.000 A 
ATOM     23  C   UNL     1       1.306   8.313  20.952  0.00  0.00    +0.000 A 
ATOM     24  C   UNL     1       1.931   7.707  19.858  0.00  0.00    +0.000 A 
ATOM     25  C   UNL     1       2.029   8.406  18.641  0.00  0.00    +0.000 A 
ATOM     26  C   UNL     1       1.518   9.697  18.530  0.00  0.00    +0.000 A 
BRANCH  21  27
ATOM     27  S   UNL     1       0.315  11.947  19.522  0.00  0.00    +0.000 S 
ATOM     28  O   UNL     1       0.848  12.548  18.321  0.00  0.00    +0.000 OA
ATOM     29  O   UNL     1       0.403  12.584  20.808  0.00  0.00    +0.000 OA
BRANCH  27  30
ATOM     30  N   UNL     1      -1.324  11.716  19.247  0.00  0.00    +0.000 NA
ATOM     31  H   UNL     1      -1.784  11.448  20.114  0.00  0.00    +0.000 HD
ATOM     32  H   UNL     1      -1.454  11.051  18.486  0.00  0.00    +0.000 HD
ENDBRANCH  27  30
ENDBRANCH  21  27
ENDBRANCH  20  24
ENDBRANCH  19  20
ENDBRANCH   1  19
TORSDOF 10
ENDMDL
MODEL 3
REMARK VINA RESULT:      -7.4      1.459      2.147
REMARK  Name = 
REMARK  10 active torsions:
REMARK  status: ('A' for Active; 'I' for Inactive)
REMARK    1  A    between atoms: N_1  and  S_2
REMARK    2  A    between atoms: S_2  and  C_5
REMARK    3  A    between atoms: C_8  and  C_9
REMARK    4  A    between atoms: C_9  and  C_10
REMARK    5  A    between atoms: C_10  and  N_11
REMARK    6  A    between atoms: C_12  and  C_14
REMARK    7  A    between atoms: C_14  and  C_15
REMARK    8  A    between atoms: C_15  and  C_16
REMARK    9  A    between atoms: C_19  and  O_20
REMARK   10  A    between atoms: N_24  and  O_25
REMARK                            x       y       z     vdW  Elec       q    Type
REMARK                         _______ _______ _______ _____ _____    ______ ____
ROOT
ATOM      1  N   UNL     1       2.016   5.112  20.970  0.00  0.00    +0.000 N 
ATOM      2  C   UNL     1       2.301   3.775  21.141  0.00  0.00    +0.000 C 
ATOM      3  O   UNL     1       2.486   3.294  22.252  0.00  0.00    +0.000 OA
ATOM      4  H   UNL     1       2.011   5.641  21.836  0.00  0.00    +0.000 HD
ENDROOT
BRANCH   2   5
ATOM      5  C   UNL     1       2.311   2.861  19.923  0.00  0.00    +0.000 C 
ATOM      6  N   UNL     1       1.157   2.480  19.441  0.00  0.00    +0.000 NA
BRANCH   6   7
ATOM      7  O   UNL     1       1.300   1.474  18.480  0.00  0.00    +0.000 OA
ATOM      8  H   UNL     1       1.931   0.864  18.904  0.00  0.00    +0.000 HD
ENDBRANCH   6   7
BRANCH   5   9
ATOM      9  C   UNL     1       3.681   2.423  19.441  0.00  0.00    +0.000 C 
BRANCH   9  10
ATOM     10  C   UNL     1       4.337   3.463  18.561  0.00  0.00    +0.000 A 
ATOM     11  C   UNL     1       3.926   3.631  17.232  0.00  0.00    +0.000 A 
ATOM     12  C   UNL     1       4.655   4.449  16.366  0.00  0.00    +0.000 A 
ATOM     13  C   UNL     1       5.783   5.121  16.833  0.00  0.00    +0.000 A 
ATOM     14  C   UNL     1       6.144   5.039  18.178  0.00  0.00    +0.000 A 
ATOM     15 BR   UNL     1       7.640   5.980  18.865  0.00  0.00    +0.000 Br
ATOM     16  C   UNL     1       5.424   4.212  19.041  0.00  0.00    +0.000 A 
BRANCH  13  17
ATOM     17  O   UNL     1       6.546   5.840  15.957  0.00  0.00    +0.000 OA
ATOM     18  H   UNL     1       6.213   5.678  15.059  0.00  0.00    +0.000 HD
ENDBRANCH  13  17
ENDBRANCH   9  10
ENDBRANCH   5   9
ENDBRANCH   2   5
BRANCH   1  19
ATOM     19  C   UNL     1       1.860   5.852  19.725  0.00  0.00    +0.000 C 
BRANCH  19  20
ATOM     20  C   UNL     1       2.651   7.168  19.649  0.00  0.00    +0.000 C 
BRANCH  20  24
ATOM     21  C   UNL     1       0.121  10.615  19.287  0.00  0.00    +0.000 A 
ATOM     22  C   UNL     1       0.886  10.200  18.193  0.00  0.00    +0.000 A 
ATOM     23  C   UNL     1       1.709   9.085  18.318  0.00  0.00    +0.000 A 
ATOM     24  C   UNL     1       1.779   8.387  19.528  0.00  0.00    +0.000 A 
ATOM     25  C   UNL     1       1.015   8.824  20.625  0.00  0.00    +0.000 A 
ATOM     26  C   UNL     1       0.186   9.936  20.506  0.00  0.00    +0.000 A 
BRANCH  21  27
ATOM     27  S   UNL     1      -0.974  11.984  19.108  0.00  0.00    +0.000 S 
ATOM     28  O   UNL     1      -2.334  11.496  19.123  0.00  0.00    +0.000 OA
ATOM     29  O   UNL     1      -0.484  12.868  18.085  0.00  0.00    +0.000 OA
BRANCH  27  30
ATOM     30  N   UNL     1      -0.751  12.804  20.555  0.00  0.00    +0.000 NA
ATOM     31  H   UNL     1      -1.625  13.239  20.843  0.00  0.00    +0.000 HD
ATOM     32  H   UNL     1       0.025  13.458  20.463  0.00  0.00    +0.000 HD
ENDBRANCH  27  30
ENDBRANCH  21  27
ENDBRANCH  20  24
ENDBRANCH  19  20
ENDBRANCH   1  19
TORSDOF 10
ENDMDL
MODEL 4
REMARK VINA RESULT:      -7.4      1.337      1.432
REMARK  Name = 
REMARK  10 active torsions:
REMARK  status: ('A' for Active; 'I' for Inactive)
REMARK    1  A    between atoms: N_1  and  S_2
REMARK    2  A    between atoms: S_2  and  C_5
REMARK    3  A    between atoms: C_8  and  C_9
REMARK    4  A    between atoms: C_9  and  C_10
REMARK    5  A    between atoms: C_10  and  N_11
REMARK    6  A    between atoms: C_12  and  C_14
REMARK    7  A    between atoms: C_14  and  C_15
REMARK    8  A    between atoms: C_15  and  C_16
REMARK    9  A    between atoms: C_19  and  O_20
REMARK   10  A    between atoms: N_24  and  O_25
REMARK                            x       y       z     vdW  Elec       q    Type
REMARK                         _______ _______ _______ _____ _____    ______ ____
ROOT
ATOM      1  N   UNL     1       1.575   4.978  18.358  0.00  0.00    +0.000 N 
ATOM      2  C   UNL     1       1.551   3.610  18.521  0.00  0.00    +0.000 C 
ATOM      3  O   UNL     1       0.652   2.923  18.055  0.00  0.00    +0.000 OA
ATOM      4  H   UNL     1       0.774   5.341  17.854  0.00  0.00    +0.000 HD
ENDROOT
BRANCH   2   5
ATOM      5  C   UNL     1       2.713   2.932  19.235  0.00  0.00    +0.000 C 
ATOM      6  N   UNL     1       2.685   2.898  20.542  0.00  0.00    +0.000 NA
BRANCH   6   7
ATOM      7  O   UNL     1       3.900   2.462  21.079  0.00  0.00    +0.000 OA
ATOM      8  H   UNL     1       3.727   2.481  22.038  0.00  0.00    +0.000 HD
ENDBRANCH   6   7
BRANCH   5   9
ATOM      9  C   UNL     1       3.832   2.430  18.343  0.00  0.00    +0.000 C 
BRANCH   9  10
ATOM     10  C   UNL     1       4.669   3.560  17.786  0.00  0.00    +0.000 A 
ATOM     11  C   UNL     1       4.559   3.929  16.439  0.00  0.00    +0.000 A 
ATOM     12  C   UNL     1       5.463   4.834  15.879  0.00  0.00    +0.000 A 
ATOM     13  C   UNL     1       6.466   5.392  16.670  0.00  0.00    +0.000 A 
ATOM     14  C   UNL     1       6.525   5.107  18.035  0.00  0.00    +0.000 A 
ATOM     15 BR   UNL     1       7.840   5.886  19.157  0.00  0.00    +0.000 Br
ATOM     16  C   UNL     1       5.629   4.193  18.592  0.00  0.00    +0.000 A 
BRANCH  13  17
ATOM     17  O   UNL     1       7.405   6.199  16.093  0.00  0.00    +0.000 OA
ATOM     18  H   UNL     1       7.917   6.624  16.801  0.00  0.00    +0.000 HD
ENDBRANCH  13  17
ENDBRANCH   9  10
ENDBRANCH   5   9
ENDBRANCH   2   5
BRANCH   1  19
ATOM     19  C   UNL     1       2.514   5.940  18.919  0.00  0.00    +0.000 C 
BRANCH  19  20
ATOM     20  C   UNL     1       2.471   7.338  18.280  0.00  0.00    +0.000 C 
BRANCH  20  24
ATOM     21  C   UNL     1       0.609  10.310  20.752  0.00  0.00    +0.000 A 
ATOM     22  C   UNL     1       1.008   9.094  21.314  0.00  0.00    +0.000 A 
ATOM     23  C   UNL     1       1.606   8.131  20.506  0.00  0.00    +0.000 A 
ATOM     24  C   UNL     1       1.802   8.372  19.142  0.00  0.00    +0.000 A 
ATOM     25  C   UNL     1       1.381   9.594  18.586  0.00  0.00    +0.000 A 
ATOM     26  C   UNL     1       0.786  10.563  19.390  0.00  0.00    +0.000 A 
BRANCH  21  27
ATOM     27  S   UNL     1      -0.085  11.556  21.788  0.00  0.00    +0.000 S 
ATOM     28  O   UNL     1       0.695  12.764  21.645  0.00  0.00    +0.000 OA
ATOM     29  O   UNL     1      -0.410  10.995  23.071  0.00  0.00    +0.000 OA
BRANCH  27  30
ATOM     30  N   UNL     1      -1.558  11.853  21.041  0.00  0.00    +0.000 NA
ATOM     31  H   UNL     1      -2.306  11.817  21.730  0.00  0.00    +0.000 HD
ATOM     32  H   UNL     1      -1.683  11.212  20.260  0.00  0.00    +0.000 HD
ENDBRANCH  27  30
ENDBRANCH  21  27
ENDBRANCH  20  24
ENDBRANCH  19  20
ENDBRANCH   1  19
TORSDOF 10
ENDMDL
MODEL 5
REMARK VINA RESULT:      -7.4      2.582      4.112
REMARK  Name = 
REMARK  10 active torsions:
REMARK  status: ('A' for Active; 'I' for Inactive)
REMARK    1  A    between atoms: N_1  and  S_2
REMARK    2  A    between atoms: S_2  and  C_5
REMARK    3  A    between atoms: C_8  and  C_9
REMARK    4  A    between atoms: C_9  and  C_10
REMARK    5  A    between atoms: C_10  and  N_11
REMARK    6  A    between atoms: C_12  and  C_14
REMARK    7  A    between atoms: C_14  and  C_15
REMARK    8  A    between atoms: C_15  and  C_16
REMARK    9  A    between atoms: C_19  and  O_20
REMARK   10  A    between atoms: N_24  and  O_25
REMARK                            x       y       z     vdW  Elec       q    Type
REMARK                         _______ _______ _______ _____ _____    ______ ____
ROOT
ATOM      1  N   UNL     1       4.546   7.072  16.565  0.00  0.00    +0.000 N 
ATOM      2  C   UNL     1       5.688   6.321  16.391  0.00  0.00    +0.000 C 
ATOM      3  O   UNL     1       6.057   5.961  15.281  0.00  0.00    +0.000 OA
ATOM      4  H   UNL     1       4.045   7.257  15.703  0.00  0.00    +0.000 HD
ENDROOT
BRANCH   2   5
ATOM      5  C   UNL     1       6.550   5.998  17.604  0.00  0.00    +0.000 C 
ATOM      6  N   UNL     1       7.333   6.940  18.061  0.00  0.00    +0.000 NA
BRANCH   6   7
ATOM      7  O   UNL     1       8.229   6.455  19.018  0.00  0.00    +0.000 OA
ATOM      8  H   UNL     1       8.344   5.525  18.749  0.00  0.00    +0.000 HD
ENDBRANCH   6   7
BRANCH   5   9
ATOM      9  C   UNL     1       6.463   4.571  18.112  0.00  0.00    +0.000 C 
BRANCH   9  10
ATOM     10  C   UNL     1       5.036   4.076  18.184  0.00  0.00    +0.000 A 
ATOM     11  C   UNL     1       4.442   3.459  17.075  0.00  0.00    +0.000 A 
ATOM     12  C   UNL     1       3.074   3.178  17.074  0.00  0.00    +0.000 A 
ATOM     13  C   UNL     1       2.300   3.492  18.190  0.00  0.00    +0.000 A 
ATOM     14  C   UNL     1       2.899   4.016  19.336  0.00  0.00    +0.000 A 
ATOM     15 BR   UNL     1       1.892   4.406  20.894  0.00  0.00    +0.000 Br
ATOM     16  C   UNL     1       4.264   4.308  19.334  0.00  0.00    +0.000 A 
BRANCH  13  17
ATOM     17  O   UNL     1       0.947   3.304  18.143  0.00  0.00    +0.000 OA
ATOM     18  H   UNL     1       0.553   4.053  17.666  0.00  0.00    +0.000 HD
ENDBRANCH  13  17
ENDBRANCH   9  10
ENDBRANCH   5   9
ENDBRANCH   2   5
BRANCH   1  19
ATOM     19  C   UNL     1       3.926   7.500  17.812  0.00  0.00    +0.000 C 
BRANCH  19  20
ATOM     20  C   UNL     1       2.390   7.438  17.829  0.00  0.00    +0.000 C 
BRANCH  20  24
ATOM     21  C   UNL     1       0.544  10.175  20.570  0.00  0.00    +0.000 A 
ATOM     22  C   UNL     1       0.625  10.503  19.213  0.00  0.00    +0.000 A 
ATOM     23  C   UNL     1       1.230   9.614  18.330  0.00  0.00    +0.000 A 
ATOM     24  C   UNL     1       1.761   8.405  18.792  0.00  0.00    +0.000 A 
ATOM     25  C   UNL     1       1.687   8.095  20.162  0.00  0.00    +0.000 A 
ATOM     26  C   UNL     1       1.078   8.978  21.051  0.00  0.00    +0.000 A 
BRANCH  21  27
ATOM     27  S   UNL     1      -0.283  11.269  21.677  0.00  0.00    +0.000 S 
ATOM     28  O   UNL     1      -0.177  10.739  23.018  0.00  0.00    +0.000 OA
ATOM     29  O   UNL     1      -1.539  11.679  21.108  0.00  0.00    +0.000 OA
BRANCH  27  30
ATOM     30  N   UNL     1       0.698  12.628  21.627  0.00  0.00    +0.000 NA
ATOM     31  H   UNL     1       1.111  12.721  20.702  0.00  0.00    +0.000 HD
ATOM     32  H   UNL     1       1.381  12.587  22.382  0.00  0.00    +0.000 HD
ENDBRANCH  27  30
ENDBRANCH  21  27
ENDBRANCH  20  24
ENDBRANCH  19  20
ENDBRANCH   1  19
TORSDOF 10
ENDMDL
MODEL 6
REMARK VINA RESULT:      -7.4      5.632      7.433
REMARK  Name = 
REMARK  10 active torsions:
REMARK  status: ('A' for Active; 'I' for Inactive)
REMARK    1  A    between atoms: N_1  and  S_2
REMARK    2  A    between atoms: S_2  and  C_5
REMARK    3  A    between atoms: C_8  and  C_9
REMARK    4  A    between atoms: C_9  and  C_10
REMARK    5  A    between atoms: C_10  and  N_11
REMARK    6  A    between atoms: C_12  and  C_14
REMARK    7  A    between atoms: C_14  and  C_15
REMARK    8  A    between atoms: C_15  and  C_16
REMARK    9  A    between atoms: C_19  and  O_20
REMARK   10  A    between atoms: N_24  and  O_25
REMARK                            x       y       z     vdW  Elec       q    Type
REMARK                         _______ _______ _______ _____ _____    ______ ____
ROOT
ATOM      1  N   UNL     1       7.644   7.099  16.812  0.00  0.00    +0.000 N 
ATOM      2  C   UNL     1       6.697   6.106  16.684  0.00  0.00    +0.000 C 
ATOM      3  O   UNL     1       6.881   5.132  15.965  0.00  0.00    +0.000 OA
ATOM      4  H   UNL     1       8.467   6.953  16.237  0.00  0.00    +0.000 HD
ENDROOT
BRANCH   2   5
ATOM      5  C   UNL     1       5.425   6.189  17.516  0.00  0.00    +0.000 C 
ATOM      6  N   UNL     1       4.459   6.952  17.074  0.00  0.00    +0.000 NA
BRANCH   6   7
ATOM      7  O   UNL     1       3.452   7.123  18.027  0.00  0.00    +0.000 OA
ATOM      8  H   UNL     1       2.705   7.449  17.491  0.00  0.00    +0.000 HD
ENDBRANCH   6   7
BRANCH   5   9
ATOM      9  C   UNL     1       5.444   5.426  18.827  0.00  0.00    +0.000 C 
BRANCH   9  10
ATOM     10  C   UNL     1       4.478   4.263  18.826  0.00  0.00    +0.000 A 
ATOM     11  C   UNL     1       4.346   3.451  17.691  0.00  0.00    +0.000 A 
ATOM     12  C   UNL     1       3.323   2.503  17.618  0.00  0.00    +0.000 A 
ATOM     13  C   UNL     1       2.443   2.348  18.688  0.00  0.00    +0.000 A 
ATOM     14  C   UNL     1       2.626   3.082  19.861  0.00  0.00    +0.000 A 
ATOM     15 BR   UNL     1       1.486   2.862  21.359  0.00  0.00    +0.000 Br
ATOM     16  C   UNL     1       3.641   4.038  19.930  0.00  0.00    +0.000 A 
BRANCH  13  17
ATOM     17  O   UNL     1       1.387   1.489  18.570  0.00  0.00    +0.000 OA
ATOM     18  H   UNL     1       0.613   1.997  18.278  0.00  0.00    +0.000 HD
ENDBRANCH  13  17
ENDBRANCH   9  10
ENDBRANCH   5   9
ENDBRANCH   2   5
BRANCH   1  19
ATOM     19  C   UNL     1       7.546   8.353  17.546  0.00  0.00    +0.000 C 
BRANCH  19  20
ATOM     20  C   UNL     1       8.662   8.592  18.576  0.00  0.00    +0.000 C 
BRANCH  20  24
ATOM     21  C   UNL     1       9.498  12.749  19.233  0.00  0.00    +0.000 A 
ATOM     22  C   UNL     1       8.978  12.333  18.003  0.00  0.00    +0.000 A 
ATOM     23  C   UNL     1       8.715  10.983  17.794  0.00  0.00    +0.000 A 
ATOM     24  C   UNL     1       8.973  10.045  18.799  0.00  0.00    +0.000 A 
ATOM     25  C   UNL     1       9.510  10.476  20.026  0.00  0.00    +0.000 A 
ATOM     26  C   UNL     1       9.772  11.826  20.243  0.00  0.00    +0.000 A 
BRANCH  21  27
ATOM     27  S   UNL     1       9.766  14.467  19.522  0.00  0.00    +0.000 S 
ATOM     28  O   UNL     1       8.490  15.102  19.760  0.00  0.00    +0.000 OA
ATOM     29  O   UNL     1      10.716  14.978  18.571  0.00  0.00    +0.000 OA
BRANCH  27  30
ATOM     30  N   UNL     1      10.569  14.454  20.995  0.00  0.00    +0.000 NA
ATOM     31  H   UNL     1      11.165  15.275  21.070  0.00  0.00    +0.000 HD
ATOM     32  H   UNL     1      11.065  13.571  21.108  0.00  0.00    +0.000 HD
ENDBRANCH  27  30
ENDBRANCH  21  27
ENDBRANCH  20  24
ENDBRANCH  19  20
ENDBRANCH   1  19
TORSDOF 10
ENDMDL
MODEL 7
REMARK VINA RESULT:      -7.3      1.964      2.279
REMARK  Name = 
REMARK  10 active torsions:
REMARK  status: ('A' for Active; 'I' for Inactive)
REMARK    1  A    between atoms: N_1  and  S_2
REMARK    2  A    between atoms: S_2  and  C_5
REMARK    3  A    between atoms: C_8  and  C_9
REMARK    4  A    between atoms: C_9  and  C_10
REMARK    5  A    between atoms: C_10  and  N_11
REMARK    6  A    between atoms: C_12  and  C_14
REMARK    7  A    between atoms: C_14  and  C_15
REMARK    8  A    between atoms: C_15  and  C_16
REMARK    9  A    between atoms: C_19  and  O_20
REMARK   10  A    between atoms: N_24  and  O_25
REMARK                            x       y       z     vdW  Elec       q    Type
REMARK                         _______ _______ _______ _____ _____    ______ ____
ROOT
ATOM      1  N   UNL     1       1.260   3.847  18.904  0.00  0.00    +0.000 N 
ATOM      2  C   UNL     1       2.220   3.239  18.123  0.00  0.00    +0.000 C 
ATOM      3  O   UNL     1       2.020   2.982  16.943  0.00  0.00    +0.000 OA
ATOM      4  H   UNL     1       0.388   4.019  18.415  0.00  0.00    +0.000 HD
ENDROOT
BRANCH   2   5
ATOM      5  C   UNL     1       3.588   2.952  18.727  0.00  0.00    +0.000 C 
ATOM      6  N   UNL     1       3.864   1.713  19.042  0.00  0.00    +0.000 NA
BRANCH   6   7
ATOM      7  O   UNL     1       5.041   1.615  19.789  0.00  0.00    +0.000 OA
ATOM      8  H   UNL     1       5.301   0.684  19.654  0.00  0.00    +0.000 HD
ENDBRANCH   6   7
BRANCH   5   9
ATOM      9  C   UNL     1       4.467   4.163  18.973  0.00  0.00    +0.000 C 
BRANCH   9  10
ATOM     10  C   UNL     1       5.455   4.390  17.851  0.00  0.00    +0.000 A 
ATOM     11  C   UNL     1       6.631   5.118  18.077  0.00  0.00    +0.000 A 
ATOM     12  C   UNL     1       7.444   5.493  17.006  0.00  0.00    +0.000 A 
ATOM     13  C   UNL     1       7.098   5.120  15.708  0.00  0.00    +0.000 A 
ATOM     14  C   UNL     1       5.983   4.313  15.482  0.00  0.00    +0.000 A 
ATOM     15 BR   UNL     1       5.508   3.739  13.739  0.00  0.00    +0.000 Br
ATOM     16  C   UNL     1       5.162   3.948  16.551  0.00  0.00    +0.000 A 
BRANCH  13  17
ATOM     17  O   UNL     1       7.845   5.574  14.657  0.00  0.00    +0.000 OA
ATOM     18  H   UNL     1       7.937   6.537  14.742  0.00  0.00    +0.000 HD
ENDBRANCH  13  17
ENDBRANCH   9  10
ENDBRANCH   5   9
ENDBRANCH   2   5
BRANCH   1  19
ATOM     19  C   UNL     1       1.305   4.137  20.330  0.00  0.00    +0.000 C 
BRANCH  19  20
ATOM     20  C   UNL     1       2.314   5.221  20.741  0.00  0.00    +0.000 C 
BRANCH  20  24
ATOM     21  C   UNL     1       1.312   9.168  19.387  0.00  0.00    +0.000 A 
ATOM     22  C   UNL     1       0.832   8.716  20.620  0.00  0.00    +0.000 A 
ATOM     23  C   UNL     1       1.155   7.433  21.051  0.00  0.00    +0.000 A 
ATOM     24  C   UNL     1       1.948   6.597  20.258  0.00  0.00    +0.000 A 
ATOM     25  C   UNL     1       2.411   7.058  19.012  0.00  0.00    +0.000 A 
ATOM     26  C   UNL     1       2.094   8.343  18.577  0.00  0.00    +0.000 A 
BRANCH  21  27
ATOM     27  S   UNL     1       0.960  10.816  18.872  0.00  0.00    +0.000 S 
ATOM     28  O   UNL     1       1.262  11.717  19.962  0.00  0.00    +0.000 OA
ATOM     29  O   UNL     1      -0.295  10.849  18.171  0.00  0.00    +0.000 OA
BRANCH  27  30
ATOM     30  N   UNL     1       2.135  11.078  17.704  0.00  0.00    +0.000 NA
ATOM     31  H   UNL     1       2.355  12.070  17.653  0.00  0.00    +0.000 HD
ATOM     32  H   UNL     1       1.833  10.675  16.817  0.00  0.00    +0.000 HD
ENDBRANCH  27  30
ENDBRANCH  21  27
ENDBRANCH  20  24
ENDBRANCH  19  20
ENDBRANCH   1  19
TORSDOF 10
ENDMDL
MODEL 8
REMARK VINA RESULT:      -7.3      5.341      6.985
REMARK  Name = 
REMARK  10 active torsions:
REMARK  status: ('A' for Active; 'I' for Inactive)
REMARK    1  A    between atoms: N_1  and  S_2
REMARK    2  A    between atoms: S_2  and  C_5
REMARK    3  A    between atoms: C_8  and  C_9
REMARK    4  A    between atoms: C_9  and  C_10
REMARK    5  A    between atoms: C_10  and  N_11
REMARK    6  A    between atoms: C_12  and  C_14
REMARK    7  A    between atoms: C_14  and  C_15
REMARK    8  A    between atoms: C_15  and  C_16
REMARK    9  A    between atoms: C_19  and  O_20
REMARK   10  A    between atoms: N_24  and  O_25
REMARK                            x       y       z     vdW  Elec       q    Type
REMARK                         _______ _______ _______ _____ _____    ______ ____
ROOT
ATOM      1  N   UNL     1       7.602   6.755  16.404  0.00  0.00    +0.000 N 
ATOM      2  C   UNL     1       7.149   5.480  16.140  0.00  0.00    +0.000 C 
ATOM      3  O   UNL     1       7.511   4.863  15.146  0.00  0.00    +0.000 OA
ATOM      4  H   UNL     1       8.220   7.122  15.690  0.00  0.00    +0.000 HD
ENDROOT
BRANCH   2   5
ATOM      5  C   UNL     1       6.236   4.798  17.149  0.00  0.00    +0.000 C 
ATOM      6  N   UNL     1       6.770   4.384  18.268  0.00  0.00    +0.000 NA
BRANCH   6   7
ATOM      7  O   UNL     1       5.891   3.581  19.001  0.00  0.00    +0.000 OA
ATOM      8  H   UNL     1       5.467   3.043  18.306  0.00  0.00    +0.000 HD
ENDBRANCH   6   7
BRANCH   5   9
ATOM      9  C   UNL     1       4.798   4.599  16.707  0.00  0.00    +0.000 C 
BRANCH   9  10
ATOM     10  C   UNL     1       3.816   5.263  17.646  0.00  0.00    +0.000 A 
ATOM     11  C   UNL     1       3.773   6.659  17.758  0.00  0.00    +0.000 A 
ATOM     12  C   UNL     1       3.008   7.264  18.757  0.00  0.00    +0.000 A 
ATOM     13  C   UNL     1       2.265   6.475  19.634  0.00  0.00    +0.000 A 
ATOM     14  C   UNL     1       2.222   5.090  19.470  0.00  0.00    +0.000 A 
ATOM     15 BR   UNL     1       1.181   3.986  20.607  0.00  0.00    +0.000 Br
ATOM     16  C   UNL     1       2.996   4.485  18.479  0.00  0.00    +0.000 A 
BRANCH  13  17
ATOM     17  O   UNL     1       1.598   7.068  20.669  0.00  0.00    +0.000 OA
ATOM     18  H   UNL     1       1.001   7.740  20.302  0.00  0.00    +0.000 HD
ENDBRANCH  13  17
ENDBRANCH   9  10
ENDBRANCH   5   9
ENDBRANCH   2   5
BRANCH   1  19
ATOM     19  C   UNL     1       7.205   7.650  17.482  0.00  0.00    +0.000 C 
BRANCH  19  20
ATOM     20  C   UNL     1       8.331   8.032  18.456  0.00  0.00    +0.000 C 
BRANCH  20  24
ATOM     21  C   UNL     1       9.204  12.233  18.515  0.00  0.00    +0.000 A 
ATOM     22  C   UNL     1       9.810  11.387  19.449  0.00  0.00    +0.000 A 
ATOM     23  C   UNL     1       9.518  10.026  19.429  0.00  0.00    +0.000 A 
ATOM     24  C   UNL     1       8.622   9.507  18.489  0.00  0.00    +0.000 A 
ATOM     25  C   UNL     1       8.008  10.372  17.565  0.00  0.00    +0.000 A 
ATOM     26  C   UNL     1       8.299  11.734  17.577  0.00  0.00    +0.000 A 
BRANCH  21  27
ATOM     27  S   UNL     1       9.626  13.944  18.496  0.00  0.00    +0.000 S 
ATOM     28  O   UNL     1       8.414  14.722  18.621  0.00  0.00    +0.000 OA
ATOM     29  O   UNL     1      10.599  14.194  17.467  0.00  0.00    +0.000 OA
BRANCH  27  30
ATOM     30  N   UNL     1      10.451  14.119  19.947  0.00  0.00    +0.000 NA
ATOM     31  H   UNL     1      10.103  14.936  20.444  0.00  0.00    +0.000 HD
ATOM     32  H   UNL     1      11.454  14.138  19.771  0.00  0.00    +0.000 HD
ENDBRANCH  27  30
ENDBRANCH  21  27
ENDBRANCH  20  24
ENDBRANCH  19  20
ENDBRANCH   1  19
TORSDOF 10
ENDMDL
MODEL 9
REMARK VINA RESULT:      -7.3      2.612      4.132
REMARK  Name = 
REMARK  10 active torsions:
REMARK  status: ('A' for Active; 'I' for Inactive)
REMARK    1  A    between atoms: N_1  and  S_2
REMARK    2  A    between atoms: S_2  and  C_5
REMARK    3  A    between atoms: C_8  and  C_9
REMARK    4  A    between atoms: C_9  and  C_10
REMARK    5  A    between atoms: C_10  and  N_11
REMARK    6  A    between atoms: C_12  and  C_14
REMARK    7  A    between atoms: C_14  and  C_15
REMARK    8  A    between atoms: C_15  and  C_16
REMARK    9  A    between atoms: C_19  and  O_20
REMARK   10  A    between atoms: N_24  and  O_25
REMARK                            x       y       z     vdW  Elec       q    Type
REMARK                         _______ _______ _______ _____ _____    ______ ____
ROOT
ATOM      1  N   UNL     1       4.605   6.774  16.306  0.00  0.00    +0.000 N 
ATOM      2  C   UNL     1       5.559   5.846  15.950  0.00  0.00    +0.000 C 
ATOM      3  O   UNL     1       5.764   5.551  14.779  0.00  0.00    +0.000 OA
ATOM      4  H   UNL     1       4.087   7.148  15.517  0.00  0.00    +0.000 HD
ENDROOT
BRANCH   2   5
ATOM      5  C   UNL     1       6.429   5.229  17.036  0.00  0.00    +0.000 C 
ATOM      6  N   UNL     1       7.591   4.746  16.682  0.00  0.00    +0.000 NA
BRANCH   6   7
ATOM      7  O   UNL     1       8.187   4.012  17.712  0.00  0.00    +0.000 OA
ATOM      8  H   UNL     1       8.702   4.690  18.186  0.00  0.00    +0.000 HD
ENDBRANCH   6   7
BRANCH   5   9
ATOM      9  C   UNL     1       5.811   5.170  18.420  0.00  0.00    +0.000 C 
BRANCH   9  10
ATOM     10  C   UNL     1       4.777   4.072  18.538  0.00  0.00    +0.000 A 
ATOM     11  C   UNL     1       4.464   3.270  17.433  0.00  0.00    +0.000 A 
ATOM     12  C   UNL     1       3.380   2.391  17.483  0.00  0.00    +0.000 A 
ATOM     13  C   UNL     1       2.619   2.294  18.648  0.00  0.00    +0.000 A 
ATOM     14  C   UNL     1       2.981   3.016  19.786  0.00  0.00    +0.000 A 
ATOM     15 BR   UNL     1       2.007   2.872  21.406  0.00  0.00    +0.000 Br
ATOM     16  C   UNL     1       4.057   3.903  19.732  0.00  0.00    +0.000 A 
BRANCH  13  17
ATOM     17  O   UNL     1       1.503   1.506  18.657  0.00  0.00    +0.000 OA
ATOM     18  H   UNL     1       1.351   1.184  17.754  0.00  0.00    +0.000 HD
ENDBRANCH  13  17
ENDBRANCH   9  10
ENDBRANCH   5   9
ENDBRANCH   2   5
BRANCH   1  19
ATOM     19  C   UNL     1       4.179   7.167  17.642  0.00  0.00    +0.000 C 
BRANCH  19  20
ATOM     20  C   UNL     1       2.689   6.936  17.943  0.00  0.00    +0.000 C 
BRANCH  20  24
ATOM     21  C   UNL     1       0.887   9.981  20.371  0.00  0.00    +0.000 A 
ATOM     22  C   UNL     1       1.117  10.224  19.013  0.00  0.00    +0.000 A 
ATOM     23  C   UNL     1       1.707   9.235  18.232  0.00  0.00    +0.000 A 
ATOM     24  C   UNL     1       2.075   8.009  18.798  0.00  0.00    +0.000 A 
ATOM     25  C   UNL     1       1.852   7.784  20.168  0.00  0.00    +0.000 A 
ATOM     26  C   UNL     1       1.258   8.768  20.954  0.00  0.00    +0.000 A 
BRANCH  21  27
ATOM     27  S   UNL     1       0.077  11.207  21.344  0.00  0.00    +0.000 S 
ATOM     28  O   UNL     1      -1.282  11.348  20.874  0.00  0.00    +0.000 OA
ATOM     29  O   UNL     1       0.950  12.334  21.531  0.00  0.00    +0.000 OA
BRANCH  27  30
ATOM     30  N   UNL     1      -0.017  10.459  22.843  0.00  0.00    +0.000 NA
ATOM     31  H   UNL     1       0.032  11.159  23.580  0.00  0.00    +0.000 HD
ATOM     32  H   UNL     1       0.697   9.736  22.911  0.00  0.00    +0.000 HD
ENDBRANCH  27  30
ENDBRANCH  21  27
ENDBRANCH  20  24
ENDBRANCH  19  20
ENDBRANCH   1  19
TORSDOF 10
ENDMDL
