MODEL 1
REMARK VINA RESULT:      -8.3      0.000      0.000
REMARK  Name = 
REMARK  6 active torsions:
REMARK  status: ('A' for Active; 'I' for Inactive)
REMARK    1  A    between atoms: N_2  and  C_4
REMARK    2  A    between atoms: C_7  and  C_8
REMARK    3  A    between atoms: C_8  and  S_9
REMARK    4  A    between atoms: S_9  and  C_10
REMARK    5  A    between atoms: C_13  and  C_14
REMARK    6  A    between atoms: C_22  and  N_23
REMARK                            x       y       z     vdW  Elec       q    Type
REMARK                         _______ _______ _______ _____ _____    ______ ____
ROOT
ATOM      1  C   UNL     1       4.858   5.438  19.443  0.00  0.00    +0.000 C 
ENDROOT
BRANCH   1   5
ATOM      2  C   UNL     1       6.474   4.922  15.423  0.00  0.00    +0.000 A 
ATOM      3  C   UNL     1       5.105   4.789  15.675  0.00  0.00    +0.000 A 
ATOM      4  C   UNL     1       4.610   4.953  16.978  0.00  0.00    +0.000 A 
ATOM      5  C   UNL     1       5.464   5.274  18.055  0.00  0.00    +0.000 A 
ATOM      6  C   UNL     1       6.829   5.454  17.751  0.00  0.00    +0.000 A 
ATOM      7  C   UNL     1       7.349   5.262  16.457  0.00  0.00    +0.000 A 
BRANCH   2   9
ATOM      8  O   UNL     1       7.921   5.457  13.693  0.00  0.00    +0.000 OA
ATOM      9  N   UNL     1       6.990   4.732  14.058  0.00  0.00    +0.000 N 
ATOM     10  O   UNL     1       6.458   3.855  13.363  0.00  0.00    +0.000 OA
ENDBRANCH   2   9
BRANCH   6  11
ATOM     11  N   UNL     1       7.766   5.934  18.755  0.00  0.00    +0.000 N 
ATOM     12  O   UNL     1       8.119   7.116  18.670  0.00  0.00    +0.000 OA
ATOM     13  O   UNL     1       8.170   5.112  19.587  0.00  0.00    +0.000 OA
ENDBRANCH   6  11
ENDBRANCH   1   5
BRANCH   1  14
ATOM     14  S   UNL     1       3.065   5.114  19.509  0.00  0.00    +0.000 S 
BRANCH  14  15
ATOM     15  C   UNL     1       2.423   6.737  19.490  0.00  0.00    +0.000 A 
ATOM     16  N   UNL     1       2.538   7.567  18.474  0.00  0.00    +0.000 NA
ATOM     17  N   UNL     1       1.854   8.714  18.813  0.00  0.00    +0.000 NA
ATOM     18  C   UNL     1       1.371   8.522  20.027  0.00  0.00    +0.000 A 
ATOM     19  O   UNL     1       1.689   7.281  20.523  0.00  0.00    +0.000 OA
BRANCH  18  20
ATOM     20  C   UNL     1       0.624   9.455  20.872  0.00  0.00    +0.000 A 
ATOM     21  C   UNL     1       0.341   9.093  22.203  0.00  0.00    +0.000 A 
ATOM     22  C   UNL     1      -0.477   9.887  23.016  0.00  0.00    +0.000 A 
ATOM     23  C   UNL     1      -1.017  11.063  22.505  0.00  0.00    +0.000 A 
ATOM     24 CL   UNL     1      -2.095  11.996  23.469  0.00  0.00    +0.000 Cl
ATOM     25  C   UNL     1      -0.710  11.469  21.211  0.00  0.00    +0.000 A 
ATOM     26  C   UNL     1       0.113  10.674  20.397  0.00  0.00    +0.000 A 
ENDBRANCH  18  20
ENDBRANCH  14  15
ENDBRANCH   1  14
TORSDOF 6
ENDMDL
MODEL 2
REMARK VINA RESULT:      -8.1      0.766      1.392
REMARK  Name = 
REMARK  6 active torsions:
REMARK  status: ('A' for Active; 'I' for Inactive)
REMARK    1  A    between atoms: N_2  and  C_4
REMARK    2  A    between atoms: C_7  and  C_8
REMARK    3  A    between atoms: C_8  and  S_9
REMARK    4  A    between atoms: S_9  and  C_10
REMARK    5  A    between atoms: C_13  and  C_14
REMARK    6  A    between atoms: C_22  and  N_23
REMARK                            x       y       z     vdW  Elec       q    Type
REMARK                         _______ _______ _______ _____ _____    ______ ____
ROOT
ATOM      1  C   UNL     1       5.073   4.320  19.223  0.00  0.00    +0.000 C 
ENDROOT
BRANCH   1   5
ATOM      2  C   UNL     1       6.625   4.673  15.160  0.00  0.00    +0.000 A 
ATOM      3  C   UNL     1       5.365   4.119  15.408  0.00  0.00    +0.000 A 
ATOM      4  C   UNL     1       4.890   4.009  16.725  0.00  0.00    +0.000 A 
ATOM      5  C   UNL     1       5.651   4.469  17.822  0.00  0.00    +0.000 A 
ATOM      6  C   UNL     1       6.891   5.072  17.526  0.00  0.00    +0.000 A 
ATOM      7  C   UNL     1       7.398   5.160  16.217  0.00  0.00    +0.000 A 
BRANCH   2   9
ATOM      8  O   UNL     1       6.627   4.016  12.937  0.00  0.00    +0.000 OA
ATOM      9  N   UNL     1       7.125   4.769  13.780  0.00  0.00    +0.000 N 
ATOM     10  O   UNL     1       8.013   5.603  13.551  0.00  0.00    +0.000 OA
ENDBRANCH   2   9
BRANCH   6  11
ATOM     11  N   UNL     1       7.681   5.714  18.566  0.00  0.00    +0.000 N 
ATOM     12  O   UNL     1       7.812   6.941  18.490  0.00  0.00    +0.000 OA
ATOM     13  O   UNL     1       8.196   4.978  19.417  0.00  0.00    +0.000 OA
ENDBRANCH   6  11
ENDBRANCH   1   5
BRANCH   1  14
ATOM     14  S   UNL     1       3.256   4.182  19.262  0.00  0.00    +0.000 S 
BRANCH  14  15
ATOM     15  C   UNL     1       2.784   5.863  19.259  0.00  0.00    +0.000 A 
ATOM     16  N   UNL     1       3.139   6.730  18.334  0.00  0.00    +0.000 NA
ATOM     17  N   UNL     1       2.525   7.922  18.644  0.00  0.00    +0.000 NA
ATOM     18  C   UNL     1       1.838   7.717  19.754  0.00  0.00    +0.000 A 
ATOM     19  O   UNL     1       1.952   6.424  20.204  0.00  0.00    +0.000 OA
BRANCH  18  20
ATOM     20  C   UNL     1       1.060   8.678  20.538  0.00  0.00    +0.000 A 
ATOM     21  C   UNL     1       0.521   9.807  19.894  0.00  0.00    +0.000 A 
ATOM     22  C   UNL     1      -0.122  10.821  20.615  0.00  0.00    +0.000 A 
ATOM     23  C   UNL     1      -0.239  10.711  21.997  0.00  0.00    +0.000 A 
ATOM     24 CL   UNL     1      -0.945  11.995  22.898  0.00  0.00    +0.000 Cl
ATOM     25  C   UNL     1       0.239   9.579  22.651  0.00  0.00    +0.000 A 
ATOM     26  C   UNL     1       0.880   8.561  21.926  0.00  0.00    +0.000 A 
ENDBRANCH  18  20
ENDBRANCH  14  15
ENDBRANCH   1  14
TORSDOF 6
ENDMDL
MODEL 3
REMARK VINA RESULT:      -7.9      1.876      2.445
REMARK  Name = 
REMARK  6 active torsions:
REMARK  status: ('A' for Active; 'I' for Inactive)
REMARK    1  A    between atoms: N_2  and  C_4
REMARK    2  A    between atoms: C_7  and  C_8
REMARK    3  A    between atoms: C_8  and  S_9
REMARK    4  A    between atoms: S_9  and  C_10
REMARK    5  A    between atoms: C_13  and  C_14
REMARK    6  A    between atoms: C_22  and  N_23
REMARK                            x       y       z     vdW  Elec       q    Type
REMARK                         _______ _______ _______ _____ _____    ______ ____
ROOT
ATOM      1  C   UNL     1       5.318   4.155  19.235  0.00  0.00    +0.000 C 
ENDROOT
BRANCH   1   5
ATOM      2  C   UNL     1       6.719   4.682  15.136  0.00  0.00    +0.000 A 
ATOM      3  C   UNL     1       5.504   4.046  15.409  0.00  0.00    +0.000 A 
ATOM      4  C   UNL     1       5.078   3.881  16.737  0.00  0.00    +0.000 A 
ATOM      5  C   UNL     1       5.841   4.367  17.820  0.00  0.00    +0.000 A 
ATOM      6  C   UNL     1       7.033   5.051  17.501  0.00  0.00    +0.000 A 
ATOM      7  C   UNL     1       7.493   5.197  16.179  0.00  0.00    +0.000 A 
BRANCH   2   9
ATOM      8  O   UNL     1       6.658   4.102  12.892  0.00  0.00    +0.000 OA
ATOM      9  N   UNL     1       7.169   4.836  13.744  0.00  0.00    +0.000 N 
ATOM     10  O   UNL     1       8.032   5.696  13.514  0.00  0.00    +0.000 OA
ENDBRANCH   2   9
BRANCH   6  11
ATOM     11  N   UNL     1       7.813   5.722  18.530  0.00  0.00    +0.000 N 
ATOM     12  O   UNL     1       8.271   5.014  19.434  0.00  0.00    +0.000 OA
ATOM     13  O   UNL     1       7.918   6.951  18.445  0.00  0.00    +0.000 OA
ENDBRANCH   6  11
ENDBRANCH   1   5
BRANCH   1  14
ATOM     14  S   UNL     1       3.647   3.429  19.302  0.00  0.00    +0.000 S 
BRANCH  14  15
ATOM     15  C   UNL     1       2.698   4.800  19.819  0.00  0.00    +0.000 A 
ATOM     16  N   UNL     1       1.841   4.773  20.819  0.00  0.00    +0.000 NA
ATOM     17  N   UNL     1       1.344   6.050  20.956  0.00  0.00    +0.000 NA
ATOM     18  C   UNL     1       1.917   6.782  20.017  0.00  0.00    +0.000 A 
ATOM     19  O   UNL     1       2.798   6.054  19.255  0.00  0.00    +0.000 OA
BRANCH  18  20
ATOM     20  C   UNL     1       1.687   8.190  19.689  0.00  0.00    +0.000 A 
ATOM     21  C   UNL     1       1.112   9.032  20.659  0.00  0.00    +0.000 A 
ATOM     22  C   UNL     1       0.753  10.352  20.359  0.00  0.00    +0.000 A 
ATOM     23  C   UNL     1       0.974  10.848  19.078  0.00  0.00    +0.000 A 
ATOM     24 CL   UNL     1       0.452  12.438  18.677  0.00  0.00    +0.000 Cl
ATOM     25  C   UNL     1       1.590  10.053  18.117  0.00  0.00    +0.000 A 
ATOM     26  C   UNL     1       1.953   8.731  18.420  0.00  0.00    +0.000 A 
ENDBRANCH  18  20
ENDBRANCH  14  15
ENDBRANCH   1  14
TORSDOF 6
ENDMDL
MODEL 4
REMARK VINA RESULT:      -7.8      5.198      7.552
REMARK  Name = 
REMARK  6 active torsions:
REMARK  status: ('A' for Active; 'I' for Inactive)
REMARK    1  A    between atoms: N_2  and  C_4
REMARK    2  A    between atoms: C_7  and  C_8
REMARK    3  A    between atoms: C_8  and  S_9
REMARK    4  A    between atoms: S_9  and  C_10
REMARK    5  A    between atoms: C_13  and  C_14
REMARK    6  A    between atoms: C_22  and  N_23
REMARK                            x       y       z     vdW  Elec       q    Type
REMARK                         _______ _______ _______ _____ _____    ______ ____
ROOT
ATOM      1  C   UNL     1       6.889   4.816  17.665  0.00  0.00    +0.000 C 
ENDROOT
BRANCH   1   5
ATOM      2  C   UNL     1       2.749   3.899  18.693  0.00  0.00    +0.000 A 
ATOM      3  C   UNL     1       3.811   3.224  19.301  0.00  0.00    +0.000 A 
ATOM      4  C   UNL     1       5.135   3.531  18.948  0.00  0.00    +0.000 A 
ATOM      5  C   UNL     1       5.430   4.534  17.999  0.00  0.00    +0.000 A 
ATOM      6  C   UNL     1       4.333   5.230  17.449  0.00  0.00    +0.000 A 
ATOM      7  C   UNL     1       2.999   4.913  17.765  0.00  0.00    +0.000 A 
BRANCH   2   9
ATOM      8  O   UNL     1       0.899   4.065  20.080  0.00  0.00    +0.000 OA
ATOM      9  N   UNL     1       1.363   3.560  19.053  0.00  0.00    +0.000 N 
ATOM     10  O   UNL     1       0.748   2.791  18.300  0.00  0.00    +0.000 OA
ENDBRANCH   2   9
BRANCH   6  11
ATOM     11  N   UNL     1       4.532   6.379  16.580  0.00  0.00    +0.000 N 
ATOM     12  O   UNL     1       5.078   6.169  15.491  0.00  0.00    +0.000 OA
ATOM     13  O   UNL     1       4.181   7.482  17.017  0.00  0.00    +0.000 OA
ENDBRANCH   6  11
ENDBRANCH   1   5
BRANCH   1  14
ATOM     14  S   UNL     1       7.826   5.570  19.035  0.00  0.00    +0.000 S 
BRANCH  14  15
ATOM     15  C   UNL     1       8.038   7.201  18.449  0.00  0.00    +0.000 A 
ATOM     16  N   UNL     1       7.553   7.646  17.308  0.00  0.00    +0.000 NA
ATOM     17  N   UNL     1       7.874   8.983  17.230  0.00  0.00    +0.000 NA
ATOM     18  C   UNL     1       8.552   9.275  18.327  0.00  0.00    +0.000 A 
ATOM     19  O   UNL     1       8.693   8.188  19.155  0.00  0.00    +0.000 OA
BRANCH  18  20
ATOM     20  C   UNL     1       9.178  10.543  18.704  0.00  0.00    +0.000 A 
ATOM     21  C   UNL     1       9.021  11.658  17.861  0.00  0.00    +0.000 A 
ATOM     22  C   UNL     1       9.700  12.858  18.105  0.00  0.00    +0.000 A 
ATOM     23  C   UNL     1      10.543  12.957  19.208  0.00  0.00    +0.000 A 
ATOM     24 CL   UNL     1      11.450  14.397  19.462  0.00  0.00    +0.000 Cl
ATOM     25  C   UNL     1      10.674  11.886  20.086  0.00  0.00    +0.000 A 
ATOM     26  C   UNL     1       9.990  10.684  19.842  0.00  0.00    +0.000 A 
ENDBRANCH  18  20
ENDBRANCH  14  15
ENDBRANCH   1  14
TORSDOF 6
ENDMDL
MODEL 5
REMARK VINA RESULT:      -7.7      1.804      2.115
REMARK  Name = 
REMARK  6 active torsions:
REMARK  status: ('A' for Active; 'I' for Inactive)
REMARK    1  A    between atoms: N_2  and  C_4
REMARK    2  A    between atoms: C_7  and  C_8
REMARK    3  A    between atoms: C_8  and  S_9
REMARK    4  A    between atoms: S_9  and  C_10
REMARK    5  A    between atoms: C_13  and  C_14
REMARK    6  A    between atoms: C_22  and  N_23
REMARK                            x       y       z     vdW  Elec       q    Type
REMARK                         _______ _______ _______ _____ _____    ______ ____
ROOT
ATOM      1  C   UNL     1       4.807   3.740  17.828  0.00  0.00    +0.000 C 
ENDROOT
BRANCH   1   5
ATOM      2  C   UNL     1       7.020   4.803  14.221  0.00  0.00    +0.000 A 
ATOM      3  C   UNL     1       5.762   4.200  14.146  0.00  0.00    +0.000 A 
ATOM      4  C   UNL     1       5.071   3.860  15.321  0.00  0.00    +0.000 A 
ATOM      5  C   UNL     1       5.611   4.134  16.596  0.00  0.00    +0.000 A 
ATOM      6  C   UNL     1       6.858   4.793  16.630  0.00  0.00    +0.000 A 
ATOM      7  C   UNL     1       7.579   5.111  15.465  0.00  0.00    +0.000 A 
BRANCH   2   9
ATOM      8  O   UNL     1       8.671   5.955  13.072  0.00  0.00    +0.000 OA
ATOM      9  N   UNL     1       7.747   5.140  12.988  0.00  0.00    +0.000 N 
ATOM     10  O   UNL     1       7.386   4.583  11.941  0.00  0.00    +0.000 OA
ENDBRANCH   2   9
BRANCH   6  11
ATOM     11  N   UNL     1       7.428   5.256  17.886  0.00  0.00    +0.000 N 
ATOM     12  O   UNL     1       7.224   6.436  18.190  0.00  0.00    +0.000 OA
ATOM     13  O   UNL     1       8.110   4.447  18.527  0.00  0.00    +0.000 OA
ENDBRANCH   6  11
ENDBRANCH   1   5
BRANCH   1  14
ATOM     14  S   UNL     1       3.002   3.770  17.572  0.00  0.00    +0.000 S 
BRANCH  14  15
ATOM     15  C   UNL     1       2.493   4.845  18.850  0.00  0.00    +0.000 A 
ATOM     16  N   UNL     1       2.308   4.474  20.100  0.00  0.00    +0.000 NA
ATOM     17  N   UNL     1       1.975   5.606  20.810  0.00  0.00    +0.000 NA
ATOM     18  C   UNL     1       1.961   6.605  19.946  0.00  0.00    +0.000 A 
ATOM     19  O   UNL     1       2.286   6.197  18.675  0.00  0.00    +0.000 OA
BRANCH  18  20
ATOM     20  C   UNL     1       1.604   8.006  20.173  0.00  0.00    +0.000 A 
ATOM     21  C   UNL     1       1.257   8.419  21.473  0.00  0.00    +0.000 A 
ATOM     22  C   UNL     1       0.786   9.713  21.726  0.00  0.00    +0.000 A 
ATOM     23  C   UNL     1       0.663  10.616  20.674  0.00  0.00    +0.000 A 
ATOM     24 CL   UNL     1      -0.001  12.177  20.963  0.00  0.00    +0.000 Cl
ATOM     25  C   UNL     1       1.049  10.248  19.389  0.00  0.00    +0.000 A 
ATOM     26  C   UNL     1       1.525   8.951  19.137  0.00  0.00    +0.000 A 
ENDBRANCH  18  20
ENDBRANCH  14  15
ENDBRANCH   1  14
TORSDOF 6
ENDMDL
MODEL 6
REMARK VINA RESULT:      -7.6      2.059      2.721
REMARK  Name = 
REMARK  6 active torsions:
REMARK  status: ('A' for Active; 'I' for Inactive)
REMARK    1  A    between atoms: N_2  and  C_4
REMARK    2  A    between atoms: C_7  and  C_8
REMARK    3  A    between atoms: C_8  and  S_9
REMARK    4  A    between atoms: S_9  and  C_10
REMARK    5  A    between atoms: C_13  and  C_14
REMARK    6  A    between atoms: C_22  and  N_23
REMARK                            x       y       z     vdW  Elec       q    Type
REMARK                         _______ _______ _______ _____ _____    ______ ____
ROOT
ATOM      1  C   UNL     1       4.783   3.927  17.934  0.00  0.00    +0.000 C 
ENDROOT
BRANCH   1   5
ATOM      2  C   UNL     1       6.987   4.815  14.275  0.00  0.00    +0.000 A 
ATOM      3  C   UNL     1       5.704   4.262  14.230  0.00  0.00    +0.000 A 
ATOM      4  C   UNL     1       5.017   3.978  15.422  0.00  0.00    +0.000 A 
ATOM      5  C   UNL     1       5.585   4.260  16.683  0.00  0.00    +0.000 A 
ATOM      6  C   UNL     1       6.857   4.868  16.685  0.00  0.00    +0.000 A 
ATOM      7  C   UNL     1       7.574   5.129  15.503  0.00  0.00    +0.000 A 
BRANCH   2   9
ATOM      8  O   UNL     1       7.344   4.497  12.006  0.00  0.00    +0.000 OA
ATOM      9  N   UNL     1       7.709   5.095  13.024  0.00  0.00    +0.000 N 
ATOM     10  O   UNL     1       8.637   5.915  13.071  0.00  0.00    +0.000 OA
ENDBRANCH   2   9
BRANCH   6  11
ATOM     11  N   UNL     1       7.464   5.337  17.922  0.00  0.00    +0.000 N 
ATOM     12  O   UNL     1       8.105   4.509  18.578  0.00  0.00    +0.000 OA
ATOM     13  O   UNL     1       7.253   6.513  18.241  0.00  0.00    +0.000 OA
ENDBRANCH   6  11
ENDBRANCH   1   5
BRANCH   1  14
ATOM     14  S   UNL     1       2.977   3.951  17.682  0.00  0.00    +0.000 S 
BRANCH  14  15
ATOM     15  C   UNL     1       2.514   5.330  18.647  0.00  0.00    +0.000 A 
ATOM     16  N   UNL     1       2.384   5.307  19.957  0.00  0.00    +0.000 NA
ATOM     17  N   UNL     1       2.073   6.588  20.353  0.00  0.00    +0.000 NA
ATOM     18  C   UNL     1       2.016   7.320  19.254  0.00  0.00    +0.000 A 
ATOM     19  O   UNL     1       2.292   6.587  18.126  0.00  0.00    +0.000 OA
BRANCH  18  20
ATOM     20  C   UNL     1       1.660   8.733  19.115  0.00  0.00    +0.000 A 
ATOM     21  C   UNL     1       2.168   9.460  18.022  0.00  0.00    +0.000 A 
ATOM     22  C   UNL     1       1.965  10.841  17.906  0.00  0.00    +0.000 A 
ATOM     23  C   UNL     1       1.241  11.512  18.887  0.00  0.00    +0.000 A 
ATOM     24 CL   UNL     1       1.067  13.221  18.798  0.00  0.00    +0.000 Cl
ATOM     25  C   UNL     1       0.684  10.807  19.949  0.00  0.00    +0.000 A 
ATOM     26  C   UNL     1       0.885   9.422  20.062  0.00  0.00    +0.000 A 
ENDBRANCH  18  20
ENDBRANCH  14  15
ENDBRANCH   1  14
TORSDOF 6
ENDMDL
MODEL 7
REMARK VINA RESULT:      -7.6      5.105      9.957
REMARK  Name = 
REMARK  6 active torsions:
REMARK  status: ('A' for Active; 'I' for Inactive)
REMARK    1  A    between atoms: N_2  and  C_4
REMARK    2  A    between atoms: C_7  and  C_8
REMARK    3  A    between atoms: C_8  and  S_9
REMARK    4  A    between atoms: S_9  and  C_10
REMARK    5  A    between atoms: C_13  and  C_14
REMARK    6  A    between atoms: C_22  and  N_23
REMARK                            x       y       z     vdW  Elec       q    Type
REMARK                         _______ _______ _______ _____ _____    ______ ____
ROOT
ATOM      1  C   UNL     1       0.937  11.699  20.829  0.00  0.00    +0.000 C 
ENDROOT
BRANCH   1   5
ATOM      2  C   UNL     1      -2.659  12.580  23.139  0.00  0.00    +0.000 A 
ATOM      3  C   UNL     1      -2.213  13.447  22.136  0.00  0.00    +0.000 A 
ATOM      4  C   UNL     1      -1.049  13.145  21.411  0.00  0.00    +0.000 A 
ATOM      5  C   UNL     1      -0.316  11.963  21.654  0.00  0.00    +0.000 A 
ATOM      6  C   UNL     1      -0.829  11.088  22.634  0.00  0.00    +0.000 A 
ATOM      7  C   UNL     1      -1.974  11.389  23.394  0.00  0.00    +0.000 A 
BRANCH   2   9
ATOM      8  O   UNL     1      -4.509  11.973  24.397  0.00  0.00    +0.000 OA
ATOM      9  N   UNL     1      -3.869  12.909  23.907  0.00  0.00    +0.000 N 
ATOM     10  O   UNL     1      -4.169  14.107  24.016  0.00  0.00    +0.000 OA
ENDBRANCH   2   9
BRANCH   6  11
ATOM     11  N   UNL     1      -0.238   9.777  22.854  0.00  0.00    +0.000 N 
ATOM     12  O   UNL     1      -0.587   8.872  22.089  0.00  0.00    +0.000 OA
ATOM     13  O   UNL     1       0.531   9.660  23.816  0.00  0.00    +0.000 OA
ENDBRANCH   6  11
ENDBRANCH   1   5
BRANCH   1  14
ATOM     14  S   UNL     1       0.645  11.681  19.029  0.00  0.00    +0.000 S 
BRANCH  14  15
ATOM     15  C   UNL     1       1.396  10.172  18.575  0.00  0.00    +0.000 A 
ATOM     16  N   UNL     1       2.164  10.016  17.516  0.00  0.00    +0.000 NA
ATOM     17  N   UNL     1       2.613   8.715  17.534  0.00  0.00    +0.000 NA
ATOM     18  C   UNL     1       2.079   8.144  18.599  0.00  0.00    +0.000 A 
ATOM     19  O   UNL     1       1.294   9.014  19.316  0.00  0.00    +0.000 OA
BRANCH  18  20
ATOM     20  C   UNL     1       2.186   6.753  19.042  0.00  0.00    +0.000 A 
ATOM     21  C   UNL     1       2.461   5.754  18.089  0.00  0.00    +0.000 A 
ATOM     22  C   UNL     1       2.448   4.396  18.432  0.00  0.00    +0.000 A 
ATOM     23  C   UNL     1       2.165   4.022  19.742  0.00  0.00    +0.000 A 
ATOM     24 CL   UNL     1       2.057   2.354  20.149  0.00  0.00    +0.000 Cl
ATOM     25  C   UNL     1       1.941   4.993  20.713  0.00  0.00    +0.000 A 
ATOM     26  C   UNL     1       1.958   6.354  20.369  0.00  0.00    +0.000 A 
ENDBRANCH  18  20
ENDBRANCH  14  15
ENDBRANCH   1  14
TORSDOF 6
ENDMDL
MODEL 8
REMARK VINA RESULT:      -7.6      2.155      2.884
REMARK  Name = 
REMARK  6 active torsions:
REMARK  status: ('A' for Active; 'I' for Inactive)
REMARK    1  A    between atoms: N_2  and  C_4
REMARK    2  A    between atoms: C_7  and  C_8
REMARK    3  A    between atoms: C_8  and  S_9
REMARK    4  A    between atoms: S_9  and  C_10
REMARK    5  A    between atoms: C_13  and  C_14
REMARK    6  A    between atoms: C_22  and  N_23
REMARK                            x       y       z     vdW  Elec       q    Type
REMARK                         _______ _______ _______ _____ _____    ______ ____
ROOT
ATOM      1  C   UNL     1       2.186   5.509  18.489  0.00  0.00    +0.000 C 
ENDROOT
BRANCH   1   5
ATOM      2  C   UNL     1       5.615   4.941  15.850  0.00  0.00    +0.000 A 
ATOM      3  C   UNL     1       5.210   6.220  16.245  0.00  0.00    +0.000 A 
ATOM      4  C   UNL     1       4.098   6.378  17.089  0.00  0.00    +0.000 A 
ATOM      5  C   UNL     1       3.381   5.264  17.576  0.00  0.00    +0.000 A 
ATOM      6  C   UNL     1       3.854   3.990  17.200  0.00  0.00    +0.000 A 
ATOM      7  C   UNL     1       4.944   3.813  16.329  0.00  0.00    +0.000 A 
BRANCH   2   9
ATOM      8  O   UNL     1       6.708   3.897  14.093  0.00  0.00    +0.000 OA
ATOM      9  N   UNL     1       6.769   4.782  14.952  0.00  0.00    +0.000 N 
ATOM     10  O   UNL     1       7.729   5.550  15.113  0.00  0.00    +0.000 OA
ENDBRANCH   2   9
BRANCH   6  11
ATOM     11  N   UNL     1       3.282   2.778  17.768  0.00  0.00    +0.000 N 
ATOM     12  O   UNL     1       2.263   2.334  17.226  0.00  0.00    +0.000 OA
ATOM     13  O   UNL     1       3.832   2.314  18.773  0.00  0.00    +0.000 OA
ENDBRANCH   6  11
ENDBRANCH   1   5
BRANCH   1  14
ATOM     14  S   UNL     1       2.624   6.260  20.092  0.00  0.00    +0.000 S 
BRANCH  14  15
ATOM     15  C   UNL     1       1.903   7.842  19.937  0.00  0.00    +0.000 A 
ATOM     16  N   UNL     1       1.885   8.542  18.821  0.00  0.00    +0.000 NA
ATOM     17  N   UNL     1       1.179   9.695  19.081  0.00  0.00    +0.000 NA
ATOM     18  C   UNL     1       0.816   9.639  20.351  0.00  0.00    +0.000 A 
ATOM     19  O   UNL     1       1.239   8.483  20.961  0.00  0.00    +0.000 OA
BRANCH  18  20
ATOM     20  C   UNL     1       0.102  10.641  21.143  0.00  0.00    +0.000 A 
ATOM     21  C   UNL     1       0.215  11.998  20.787  0.00  0.00    +0.000 A 
ATOM     22  C   UNL     1      -0.340  13.009  21.582  0.00  0.00    +0.000 A 
ATOM     23  C   UNL     1      -1.025  12.669  22.745  0.00  0.00    +0.000 A 
ATOM     24 CL   UNL     1      -1.630  13.910  23.771  0.00  0.00    +0.000 Cl
ATOM     25  C   UNL     1      -1.195  11.333  23.090  0.00  0.00    +0.000 A 
ATOM     26  C   UNL     1      -0.641  10.319  22.291  0.00  0.00    +0.000 A 
ENDBRANCH  18  20
ENDBRANCH  14  15
ENDBRANCH   1  14
TORSDOF 6
ENDMDL
MODEL 9
REMARK VINA RESULT:      -7.6      2.461      3.339
REMARK  Name = 
REMARK  6 active torsions:
REMARK  status: ('A' for Active; 'I' for Inactive)
REMARK    1  A    between atoms: N_2  and  C_4
REMARK    2  A    between atoms: C_7  and  C_8
REMARK    3  A    between atoms: C_8  and  S_9
REMARK    4  A    between atoms: S_9  and  C_10
REMARK    5  A    between atoms: C_13  and  C_14
REMARK    6  A    between atoms: C_22  and  N_23
REMARK                            x       y       z     vdW  Elec       q    Type
REMARK                         _______ _______ _______ _____ _____    ______ ____
ROOT
ATOM      1  C   UNL     1       2.270   6.717  18.305  0.00  0.00    +0.000 C 
ENDROOT
BRANCH   1   5
ATOM      2  C   UNL     1       6.015   5.307  16.567  0.00  0.00    +0.000 A 
ATOM      3  C   UNL     1       5.804   6.665  16.826  0.00  0.00    +0.000 A 
ATOM      4  C   UNL     1       4.588   7.095  17.380  0.00  0.00    +0.000 A 
ATOM      5  C   UNL     1       3.564   6.180  17.707  0.00  0.00    +0.000 A 
ATOM      6  C   UNL     1       3.836   4.815  17.481  0.00  0.00    +0.000 A 
ATOM      7  C   UNL     1       5.035   4.368  16.897  0.00  0.00    +0.000 A 
BRANCH   2   9
ATOM      8  O   UNL     1       8.036   4.175  16.670  0.00  0.00    +0.000 OA
ATOM      9  N   UNL     1       7.285   4.863  15.971  0.00  0.00    +0.000 N 
ATOM     10  O   UNL     1       7.520   5.207  14.803  0.00  0.00    +0.000 OA
ENDBRANCH   2   9
BRANCH   6  11
ATOM     11  N   UNL     1       2.912   3.781  17.923  0.00  0.00    +0.000 N 
ATOM     12  O   UNL     1       3.093   3.317  19.054  0.00  0.00    +0.000 OA
ATOM     13  O   UNL     1       2.048   3.417  17.117  0.00  0.00    +0.000 OA
ENDBRANCH   6  11
ENDBRANCH   1   5
BRANCH   1  14
ATOM     14  S   UNL     1       2.002   8.496  18.008  0.00  0.00    +0.000 S 
BRANCH  14  15
ATOM     15  C   UNL     1       1.379   9.011  19.555  0.00  0.00    +0.000 A 
ATOM     16  N   UNL     1       1.460   8.300  20.661  0.00  0.00    +0.000 NA
ATOM     17  N   UNL     1       0.918   9.063  21.671  0.00  0.00    +0.000 NA
ATOM     18  C   UNL     1       0.523  10.197  21.118  0.00  0.00    +0.000 A 
ATOM     19  O   UNL     1       0.788  10.238  19.771  0.00  0.00    +0.000 OA
BRANCH  18  20
ATOM     20  C   UNL     1      -0.174  11.323  21.741  0.00  0.00    +0.000 A 
ATOM     21  C   UNL     1       0.274  12.631  21.481  0.00  0.00    +0.000 A 
ATOM     22  C   UNL     1      -0.272  13.735  22.146  0.00  0.00    +0.000 A 
ATOM     23  C   UNL     1      -1.284  13.541  23.081  0.00  0.00    +0.000 A 
ATOM     24 CL   UNL     1      -1.895  14.883  23.968  0.00  0.00    +0.000 Cl
ATOM     25  C   UNL     1      -1.781  12.263  23.318  0.00  0.00    +0.000 A 
ATOM     26  C   UNL     1      -1.235  11.157  22.647  0.00  0.00    +0.000 A 
ENDBRANCH  18  20
ENDBRANCH  14  15
ENDBRANCH   1  14
TORSDOF 6
ENDMDL
