MODEL 1
REMARK VINA RESULT:      -8.8      0.000      0.000
REMARK  Name = 
REMARK  7 active torsions:
REMARK  status: ('A' for Active; 'I' for Inactive)
REMARK    1  A    between atoms: C_1  and  C_2
REMARK    2  A    between atoms: C_2  and  C_18
REMARK    3  A    between atoms: N_3  and  N_4
REMARK    4  A    between atoms: C_5  and  C_7
REMARK    5  A    between atoms: C_7  and  C_8
REMARK    6  A    between atoms: C_8  and  C_9
REMARK    7  A    between atoms: C_22  and  N_23
REMARK                            x       y       z     vdW  Elec       q    Type
REMARK                         _______ _______ _______ _____ _____    ______ ____
ROOT
ATOM      1  N   UNL     1       6.235   7.198  17.500  0.00  0.00    +0.000 N 
ATOM      2  C   UNL     1       7.533   7.423  17.944  0.00  0.00    +0.000 C 
ATOM      3  O   UNL     1       8.199   6.642  18.614  0.00  0.00    +0.000 OA
ATOM      4  H   UNL     1       5.799   7.858  16.872  0.00  0.00    +0.000 HD
ENDROOT
BRANCH   1   7
ATOM      5  C   UNL     1       3.364   7.153  17.809  0.00  0.00    +0.000 C 
ATOM      6  C   UNL     1       4.314   5.978  17.943  0.00  0.00    +0.000 C 
ATOM      7  N   UNL     1       5.608   6.035  17.815  0.00  0.00    +0.000 NA
BRANCH   6   8
ATOM      8  C   UNL     1       3.696   4.636  18.239  0.00  0.00    +0.000 A 
ATOM      9  C   UNL     1       3.487   3.717  17.198  0.00  0.00    +0.000 A 
ATOM     10  C   UNL     1       2.860   2.490  17.443  0.00  0.00    +0.000 A 
ATOM     11  C   UNL     1       2.435   2.165  18.730  0.00  0.00    +0.000 A 
ATOM     12  C   UNL     1       2.652   3.073  19.773  0.00  0.00    +0.000 A 
ATOM     13  C   UNL     1       3.284   4.301  19.534  0.00  0.00    +0.000 A 
BRANCH  12  14
ATOM     14  N   UNL     1       2.189   2.756  21.129  0.00  0.00    +0.000 N 
ATOM     15  O   UNL     1       0.972   2.795  21.350  0.00  0.00    +0.000 OA
ATOM     16  O   UNL     1       3.049   2.471  21.977  0.00  0.00    +0.000 OA
ENDBRANCH  12  14
ENDBRANCH   6   8
ENDBRANCH   1   7
BRANCH   2  17
ATOM     17  C   UNL     1       8.092   8.763  17.501  0.00  0.00    +0.000 C 
BRANCH  17  18
ATOM     18  C   UNL     1       8.741   9.503  18.667  0.00  0.00    +0.000 C 
BRANCH  18  19
ATOM     19  C   UNL     1       9.076  10.922  18.335  0.00  0.00    +0.000 A 
ATOM     20  C   UNL     1       8.343  11.777  17.534  0.00  0.00    +0.000 A 
ATOM     21  N   UNL     1       8.991  12.985  17.486  0.00  0.00    +0.000 N 
ATOM     22  C   UNL     1      10.146  12.933  18.231  0.00  0.00    +0.000 A 
ATOM     23  C   UNL     1      11.123  13.912  18.453  0.00  0.00    +0.000 A 
ATOM     24  C   UNL     1      12.221  13.564  19.244  0.00  0.00    +0.000 A 
ATOM     25  C   UNL     1      12.329  12.293  19.801  0.00  0.00    +0.000 A 
ATOM     26  C   UNL     1      11.337  11.331  19.581  0.00  0.00    +0.000 A 
ATOM     27  C   UNL     1      10.225  11.652  18.776  0.00  0.00    +0.000 A 
ATOM     28  H   UNL     1       8.673  13.800  16.980  0.00  0.00    +0.000 HD
ENDBRANCH  18  19
ENDBRANCH  17  18
ENDBRANCH   2  17
TORSDOF 6
ENDMDL
MODEL 2
REMARK VINA RESULT:      -8.7      4.225      6.975
REMARK  Name = 
REMARK  7 active torsions:
REMARK  status: ('A' for Active; 'I' for Inactive)
REMARK    1  A    between atoms: C_1  and  C_2
REMARK    2  A    between atoms: C_2  and  C_18
REMARK    3  A    between atoms: N_3  and  N_4
REMARK    4  A    between atoms: C_5  and  C_7
REMARK    5  A    between atoms: C_7  and  C_8
REMARK    6  A    between atoms: C_8  and  C_9
REMARK    7  A    between atoms: C_22  and  N_23
REMARK                            x       y       z     vdW  Elec       q    Type
REMARK                         _______ _______ _______ _____ _____    ______ ____
ROOT
ATOM      1  N   UNL     1       3.177   5.691  19.825  0.00  0.00    +0.000 N 
ATOM      2  C   UNL     1       2.724   4.655  19.014  0.00  0.00    +0.000 C 
ATOM      3  O   UNL     1       1.596   4.562  18.544  0.00  0.00    +0.000 OA
ATOM      4  H   UNL     1       4.151   5.732  20.086  0.00  0.00    +0.000 HD
ENDROOT
BRANCH   1   7
ATOM      5  C   UNL     1       2.910   7.970  18.073  0.00  0.00    +0.000 C 
ATOM      6  C   UNL     1       2.177   7.734  19.380  0.00  0.00    +0.000 C 
ATOM      7  N   UNL     1       2.333   6.702  20.157  0.00  0.00    +0.000 NA
BRANCH   6   8
ATOM      8  C   UNL     1       1.179   8.783  19.797  0.00  0.00    +0.000 A 
ATOM      9  C   UNL     1       0.627   9.645  18.835  0.00  0.00    +0.000 A 
ATOM     10  C   UNL     1      -0.256  10.664  19.213  0.00  0.00    +0.000 A 
ATOM     11  C   UNL     1      -0.598  10.835  20.552  0.00  0.00    +0.000 A 
ATOM     12  C   UNL     1      -0.058   9.971  21.513  0.00  0.00    +0.000 A 
ATOM     13  C   UNL     1       0.822   8.946  21.141  0.00  0.00    +0.000 A 
BRANCH  12  14
ATOM     14  N   UNL     1      -0.389  10.153  22.931  0.00  0.00    +0.000 N 
ATOM     15  O   UNL     1      -1.429  10.765  23.209  0.00  0.00    +0.000 OA
ATOM     16  O   UNL     1       0.397   9.684  23.769  0.00  0.00    +0.000 OA
ENDBRANCH  12  14
ENDBRANCH   6   8
ENDBRANCH   1   7
BRANCH   2  17
ATOM     17  C   UNL     1       3.789   3.611  18.730  0.00  0.00    +0.000 C 
BRANCH  17  18
ATOM     18  C   UNL     1       4.225   3.651  17.268  0.00  0.00    +0.000 C 
BRANCH  18  19
ATOM     19  C   UNL     1       4.999   4.885  16.931  0.00  0.00    +0.000 A 
ATOM     20  C   UNL     1       4.826   5.689  15.820  0.00  0.00    +0.000 A 
ATOM     21  N   UNL     1       5.732   6.717  15.887  0.00  0.00    +0.000 N 
ATOM     22  C   UNL     1       6.507   6.593  17.017  0.00  0.00    +0.000 A 
ATOM     23  C   UNL     1       7.560   7.391  17.482  0.00  0.00    +0.000 A 
ATOM     24  C   UNL     1       8.194   7.003  18.666  0.00  0.00    +0.000 A 
ATOM     25  C   UNL     1       7.780   5.870  19.362  0.00  0.00    +0.000 A 
ATOM     26  C   UNL     1       6.717   5.092  18.890  0.00  0.00    +0.000 A 
ATOM     27  C   UNL     1       6.069   5.454  17.691  0.00  0.00    +0.000 A 
ATOM     28  H   UNL     1       5.823   7.461  15.210  0.00  0.00    +0.000 HD
ENDBRANCH  18  19
ENDBRANCH  17  18
ENDBRANCH   2  17
TORSDOF 6
ENDMDL
MODEL 3
REMARK VINA RESULT:      -8.6      5.715      8.015
REMARK  Name = 
REMARK  7 active torsions:
REMARK  status: ('A' for Active; 'I' for Inactive)
REMARK    1  A    between atoms: C_1  and  C_2
REMARK    2  A    between atoms: C_2  and  C_18
REMARK    3  A    between atoms: N_3  and  N_4
REMARK    4  A    between atoms: C_5  and  C_7
REMARK    5  A    between atoms: C_7  and  C_8
REMARK    6  A    between atoms: C_8  and  C_9
REMARK    7  A    between atoms: C_22  and  N_23
REMARK                            x       y       z     vdW  Elec       q    Type
REMARK                         _______ _______ _______ _____ _____    ______ ____
ROOT
ATOM      1  N   UNL     1       3.370   5.983  19.302  0.00  0.00    +0.000 N 
ATOM      2  C   UNL     1       2.971   5.034  18.366  0.00  0.00    +0.000 C 
ATOM      3  O   UNL     1       1.853   4.952  17.870  0.00  0.00    +0.000 OA
ATOM      4  H   UNL     1       4.338   6.032  19.583  0.00  0.00    +0.000 HD
ENDROOT
BRANCH   1   7
ATOM      5  C   UNL     1       2.892   8.359  17.733  0.00  0.00    +0.000 C 
ATOM      6  C   UNL     1       2.229   7.984  19.045  0.00  0.00    +0.000 C 
ATOM      7  N   UNL     1       2.480   6.911  19.738  0.00  0.00    +0.000 NA
BRANCH   6   8
ATOM      8  C   UNL     1       1.187   8.935  19.575  0.00  0.00    +0.000 A 
ATOM      9  C   UNL     1       0.492   9.775  18.689  0.00  0.00    +0.000 A 
ATOM     10  C   UNL     1      -0.437  10.706  19.168  0.00  0.00    +0.000 A 
ATOM     11  C   UNL     1      -0.683  10.810  20.536  0.00  0.00    +0.000 A 
ATOM     12  C   UNL     1      -0.000   9.968  21.421  0.00  0.00    +0.000 A 
ATOM     13  C   UNL     1       0.926   9.029  20.947  0.00  0.00    +0.000 A 
BRANCH  12  14
ATOM     14  N   UNL     1      -0.231  10.081  22.867  0.00  0.00    +0.000 N 
ATOM     15  O   UNL     1       0.632   9.623  23.627  0.00  0.00    +0.000 OA
ATOM     16  O   UNL     1      -1.281  10.627  23.239  0.00  0.00    +0.000 OA
ENDBRANCH  12  14
ENDBRANCH   6   8
ENDBRANCH   1   7
BRANCH   2  17
ATOM     17  C   UNL     1       4.082   4.076  17.978  0.00  0.00    +0.000 C 
BRANCH  17  18
ATOM     18  C   UNL     1       4.144   3.886  16.465  0.00  0.00    +0.000 C 
BRANCH  18  19
ATOM     19  C   UNL     1       5.376   4.478  15.859  0.00  0.00    +0.000 A 
ATOM     20  C   UNL     1       6.264   5.341  16.472  0.00  0.00    +0.000 A 
ATOM     21  N   UNL     1       7.257   5.646  15.577  0.00  0.00    +0.000 N 
ATOM     22  C   UNL     1       7.028   5.009  14.379  0.00  0.00    +0.000 A 
ATOM     23  C   UNL     1       7.758   5.041  13.184  0.00  0.00    +0.000 A 
ATOM     24  C   UNL     1       7.265   4.304  12.104  0.00  0.00    +0.000 A 
ATOM     25  C   UNL     1       6.097   3.555  12.220  0.00  0.00    +0.000 A 
ATOM     26  C   UNL     1       5.388   3.524  13.425  0.00  0.00    +0.000 A 
ATOM     27  C   UNL     1       5.856   4.268  14.527  0.00  0.00    +0.000 A 
ATOM     28  H   UNL     1       8.046   6.250  15.761  0.00  0.00    +0.000 HD
ENDBRANCH  18  19
ENDBRANCH  17  18
ENDBRANCH   2  17
TORSDOF 6
ENDMDL
MODEL 4
REMARK VINA RESULT:      -8.5      6.040      9.401
REMARK  Name = 
REMARK  7 active torsions:
REMARK  status: ('A' for Active; 'I' for Inactive)
REMARK    1  A    between atoms: C_1  and  C_2
REMARK    2  A    between atoms: C_2  and  C_18
REMARK    3  A    between atoms: N_3  and  N_4
REMARK    4  A    between atoms: C_5  and  C_7
REMARK    5  A    between atoms: C_7  and  C_8
REMARK    6  A    between atoms: C_8  and  C_9
REMARK    7  A    between atoms: C_22  and  N_23
REMARK                            x       y       z     vdW  Elec       q    Type
REMARK                         _______ _______ _______ _____ _____    ______ ____
ROOT
ATOM      1  N   UNL     1       1.213   9.351  18.410  0.00  0.00    +0.000 N 
ATOM      2  C   UNL     1       1.656  10.669  18.359  0.00  0.00    +0.000 C 
ATOM      3  O   UNL     1       2.694  11.049  17.830  0.00  0.00    +0.000 OA
ATOM      4  H   UNL     1       0.299   9.145  18.783  0.00  0.00    +0.000 HD
ENDROOT
BRANCH   1   7
ATOM      5  C   UNL     1       2.217   7.196  20.047  0.00  0.00    +0.000 C 
ATOM      6  C   UNL     1       2.414   7.374  18.554  0.00  0.00    +0.000 C 
ATOM      7  N   UNL     1       1.963   8.368  17.846  0.00  0.00    +0.000 NA
BRANCH   6   8
ATOM      8  C   UNL     1       3.190   6.298  17.839  0.00  0.00    +0.000 A 
ATOM      9  C   UNL     1       2.726   4.972  17.856  0.00  0.00    +0.000 A 
ATOM     10  C   UNL     1       3.463   3.949  17.248  0.00  0.00    +0.000 A 
ATOM     11  C   UNL     1       4.671   4.237  16.616  0.00  0.00    +0.000 A 
ATOM     12  C   UNL     1       5.132   5.558  16.588  0.00  0.00    +0.000 A 
ATOM     13  C   UNL     1       4.395   6.587  17.190  0.00  0.00    +0.000 A 
BRANCH  12  14
ATOM     14  N   UNL     1       6.415   5.874  15.947  0.00  0.00    +0.000 N 
ATOM     15  O   UNL     1       6.563   5.554  14.760  0.00  0.00    +0.000 OA
ATOM     16  O   UNL     1       7.277   6.441  16.637  0.00  0.00    +0.000 OA
ENDBRANCH  12  14
ENDBRANCH   6   8
ENDBRANCH   1   7
BRANCH   2  17
ATOM     17  C   UNL     1       0.703  11.644  19.026  0.00  0.00    +0.000 C 
BRANCH  17  18
ATOM     18  C   UNL     1      -0.477  10.916  19.662  0.00  0.00    +0.000 C 
BRANCH  18  19
ATOM     19  C   UNL     1      -1.792  11.337  19.087  0.00  0.00    +0.000 A 
ATOM     20  C   UNL     1      -2.709  12.194  19.666  0.00  0.00    +0.000 A 
ATOM     21  N   UNL     1      -3.778  12.320  18.816  0.00  0.00    +0.000 N 
ATOM     22  C   UNL     1      -3.585  11.547  17.694  0.00  0.00    +0.000 A 
ATOM     23  C   UNL     1      -4.411  11.351  16.580  0.00  0.00    +0.000 A 
ATOM     24  C   UNL     1      -3.963  10.474  15.588  0.00  0.00    +0.000 A 
ATOM     25  C   UNL     1      -2.732   9.832  15.701  0.00  0.00    +0.000 A 
ATOM     26  C   UNL     1      -1.914  10.051  16.814  0.00  0.00    +0.000 A 
ATOM     27  C   UNL     1      -2.348  10.921  17.836  0.00  0.00    +0.000 A 
ATOM     28  H   UNL     1      -4.592  12.894  18.982  0.00  0.00    +0.000 HD
ENDBRANCH  18  19
ENDBRANCH  17  18
ENDBRANCH   2  17
TORSDOF 6
ENDMDL
MODEL 5
REMARK VINA RESULT:      -8.4      0.762      1.017
REMARK  Name = 
REMARK  7 active torsions:
REMARK  status: ('A' for Active; 'I' for Inactive)
REMARK    1  A    between atoms: C_1  and  C_2
REMARK    2  A    between atoms: C_2  and  C_18
REMARK    3  A    between atoms: N_3  and  N_4
REMARK    4  A    between atoms: C_5  and  C_7
REMARK    5  A    between atoms: C_7  and  C_8
REMARK    6  A    between atoms: C_8  and  C_9
REMARK    7  A    between atoms: C_22  and  N_23
REMARK                            x       y       z     vdW  Elec       q    Type
REMARK                         _______ _______ _______ _____ _____    ______ ____
ROOT
ATOM      1  N   UNL     1       6.402   7.221  17.175  0.00  0.00    +0.000 N 
ATOM      2  C   UNL     1       7.560   7.578  17.859  0.00  0.00    +0.000 C 
ATOM      3  O   UNL     1       8.109   6.906  18.724  0.00  0.00    +0.000 OA
ATOM      4  H   UNL     1       6.077   7.794  16.411  0.00  0.00    +0.000 HD
ENDROOT
BRANCH   1   7
ATOM      5  C   UNL     1       3.566   7.176  17.710  0.00  0.00    +0.000 C 
ATOM      6  C   UNL     1       4.509   5.988  17.689  0.00  0.00    +0.000 C 
ATOM      7  N   UNL     1       5.789   6.044  17.462  0.00  0.00    +0.000 NA
BRANCH   6   8
ATOM      8  C   UNL     1       3.899   4.633  17.944  0.00  0.00    +0.000 A 
ATOM      9  C   UNL     1       4.434   3.496  17.317  0.00  0.00    +0.000 A 
ATOM     10  C   UNL     1       3.845   2.239  17.495  0.00  0.00    +0.000 A 
ATOM     11  C   UNL     1       2.717   2.101  18.301  0.00  0.00    +0.000 A 
ATOM     12  C   UNL     1       2.187   3.230  18.936  0.00  0.00    +0.000 A 
ATOM     13  C   UNL     1       2.775   4.491  18.766  0.00  0.00    +0.000 A 
BRANCH  12  14
ATOM     14  N   UNL     1       0.984   3.106  19.769  0.00  0.00    +0.000 N 
ATOM     15  O   UNL     1       1.092   3.342  20.980  0.00  0.00    +0.000 OA
ATOM     16  O   UNL     1      -0.070   2.768  19.209  0.00  0.00    +0.000 OA
ENDBRANCH  12  14
ENDBRANCH   6   8
ENDBRANCH   1   7
BRANCH   2  17
ATOM     17  C   UNL     1       8.125   8.915  17.417  0.00  0.00    +0.000 C 
BRANCH  17  18
ATOM     18  C   UNL     1       8.798   9.642  18.579  0.00  0.00    +0.000 C 
BRANCH  18  19
ATOM     19  C   UNL     1       9.041  11.088  18.290  0.00  0.00    +0.000 A 
ATOM     20  C   UNL     1       8.210  11.942  17.589  0.00  0.00    +0.000 A 
ATOM     21  N   UNL     1       8.797  13.180  17.551  0.00  0.00    +0.000 N 
ATOM     22  C   UNL     1      10.008  13.152  18.203  0.00  0.00    +0.000 A 
ATOM     23  C   UNL     1      10.954  14.167  18.398  0.00  0.00    +0.000 A 
ATOM     24  C   UNL     1      12.125  13.838  19.086  0.00  0.00    +0.000 A 
ATOM     25  C   UNL     1      12.333  12.549  19.572  0.00  0.00    +0.000 A 
ATOM     26  C   UNL     1      11.372  11.552  19.381  0.00  0.00    +0.000 A 
ATOM     27  C   UNL     1      10.187  11.854  18.679  0.00  0.00    +0.000 A 
ATOM     28  H   UNL     1       8.405  14.001  17.111  0.00  0.00    +0.000 HD
ENDBRANCH  18  19
ENDBRANCH  17  18
ENDBRANCH   2  17
TORSDOF 6
ENDMDL
MODEL 6
REMARK VINA RESULT:      -8.4      5.716      8.223
REMARK  Name = 
REMARK  7 active torsions:
REMARK  status: ('A' for Active; 'I' for Inactive)
REMARK    1  A    between atoms: C_1  and  C_2
REMARK    2  A    between atoms: C_2  and  C_18
REMARK    3  A    between atoms: N_3  and  N_4
REMARK    4  A    between atoms: C_5  and  C_7
REMARK    5  A    between atoms: C_7  and  C_8
REMARK    6  A    between atoms: C_8  and  C_9
REMARK    7  A    between atoms: C_22  and  N_23
REMARK                            x       y       z     vdW  Elec       q    Type
REMARK                         _______ _______ _______ _____ _____    ______ ____
ROOT
ATOM      1  N   UNL     1       4.020   4.584  17.691  0.00  0.00    +0.000 N 
ATOM      2  C   UNL     1       2.658   4.358  17.858  0.00  0.00    +0.000 C 
ATOM      3  O   UNL     1       1.914   3.860  17.021  0.00  0.00    +0.000 OA
ATOM      4  H   UNL     1       4.572   4.910  18.471  0.00  0.00    +0.000 HD
ENDROOT
BRANCH   1   7
ATOM      5  C   UNL     1       5.215   6.640  16.054  0.00  0.00    +0.000 C 
ATOM      6  C   UNL     1       5.182   5.150  15.767  0.00  0.00    +0.000 C 
ATOM      7  N   UNL     1       4.619   4.250  16.518  0.00  0.00    +0.000 NA
BRANCH   6   8
ATOM      8  C   UNL     1       5.871   4.686  14.510  0.00  0.00    +0.000 A 
ATOM      9  C   UNL     1       7.129   5.209  14.168  0.00  0.00    +0.000 A 
ATOM     10  C   UNL     1       7.758   4.834  12.975  0.00  0.00    +0.000 A 
ATOM     11  C   UNL     1       7.140   3.934  12.110  0.00  0.00    +0.000 A 
ATOM     12  C   UNL     1       5.892   3.402  12.452  0.00  0.00    +0.000 A 
ATOM     13  C   UNL     1       5.259   3.769  13.648  0.00  0.00    +0.000 A 
BRANCH  12  14
ATOM     14  N   UNL     1       5.216   2.470  11.540  0.00  0.00    +0.000 N 
ATOM     15  O   UNL     1       5.784   1.401  11.280  0.00  0.00    +0.000 OA
ATOM     16  O   UNL     1       4.116   2.813  11.081  0.00  0.00    +0.000 OA
ENDBRANCH  12  14
ENDBRANCH   6   8
ENDBRANCH   1   7
BRANCH   2  17
ATOM     17  C   UNL     1       2.147   4.778  19.224  0.00  0.00    +0.000 C 
BRANCH  17  18
ATOM     18  C   UNL     1       2.919   5.981  19.757  0.00  0.00    +0.000 C 
BRANCH  18  19
ATOM     19  C   UNL     1       2.321   7.284  19.331  0.00  0.00    +0.000 A 
ATOM     20  C   UNL     1       2.420   7.869  18.083  0.00  0.00    +0.000 A 
ATOM     21  N   UNL     1       1.731   9.054  18.106  0.00  0.00    +0.000 N 
ATOM     22  C   UNL     1       1.191   9.265  19.354  0.00  0.00    +0.000 A 
ATOM     23  C   UNL     1       0.433  10.338  19.842  0.00  0.00    +0.000 A 
ATOM     24  C   UNL     1       0.038  10.295  21.181  0.00  0.00    +0.000 A 
ATOM     25  C   UNL     1       0.375   9.217  21.994  0.00  0.00    +0.000 A 
ATOM     26  C   UNL     1       1.121   8.147  21.487  0.00  0.00    +0.000 A 
ATOM     27  C   UNL     1       1.544   8.171  20.142  0.00  0.00    +0.000 A 
ATOM     28  H   UNL     1       1.628   9.687  17.325  0.00  0.00    +0.000 HD
ENDBRANCH  18  19
ENDBRANCH  17  18
ENDBRANCH   2  17
TORSDOF 6
ENDMDL
MODEL 7
REMARK VINA RESULT:      -8.4      6.139      8.900
REMARK  Name = 
REMARK  7 active torsions:
REMARK  status: ('A' for Active; 'I' for Inactive)
REMARK    1  A    between atoms: C_1  and  C_2
REMARK    2  A    between atoms: C_2  and  C_18
REMARK    3  A    between atoms: N_3  and  N_4
REMARK    4  A    between atoms: C_5  and  C_7
REMARK    5  A    between atoms: C_7  and  C_8
REMARK    6  A    between atoms: C_8  and  C_9
REMARK    7  A    between atoms: C_22  and  N_23
REMARK                            x       y       z     vdW  Elec       q    Type
REMARK                         _______ _______ _______ _____ _____    ______ ____
ROOT
ATOM      1  N   UNL     1       1.255   9.004  20.901  0.00  0.00    +0.000 N 
ATOM      2  C   UNL     1      -0.001   9.028  21.496  0.00  0.00    +0.000 C 
ATOM      3  O   UNL     1      -0.744   8.062  21.625  0.00  0.00    +0.000 OA
ATOM      4  H   UNL     1       1.836   9.828  20.926  0.00  0.00    +0.000 HD
ENDROOT
BRANCH   1   7
ATOM      5  C   UNL     1       2.074   8.862  18.136  0.00  0.00    +0.000 C 
ATOM      6  C   UNL     1       2.133   7.747  19.163  0.00  0.00    +0.000 C 
ATOM      7  N   UNL     1       1.739   7.837  20.399  0.00  0.00    +0.000 NA
BRANCH   6   8
ATOM      8  C   UNL     1       2.708   6.432  18.703  0.00  0.00    +0.000 A 
ATOM      9  C   UNL     1       3.705   6.412  17.714  0.00  0.00    +0.000 A 
ATOM     10  C   UNL     1       4.209   5.198  17.232  0.00  0.00    +0.000 A 
ATOM     11  C   UNL     1       3.725   3.991  17.731  0.00  0.00    +0.000 A 
ATOM     12  C   UNL     1       2.739   4.006  18.725  0.00  0.00    +0.000 A 
ATOM     13  C   UNL     1       2.235   5.218  19.215  0.00  0.00    +0.000 A 
BRANCH  12  14
ATOM     14  N   UNL     1       2.201   2.743  19.245  0.00  0.00    +0.000 N 
ATOM     15  O   UNL     1       1.422   2.797  20.205  0.00  0.00    +0.000 OA
ATOM     16  O   UNL     1       2.564   1.694  18.691  0.00  0.00    +0.000 OA
ENDBRANCH  12  14
ENDBRANCH   6   8
ENDBRANCH   1   7
BRANCH   2  17
ATOM     17  C   UNL     1      -0.391  10.401  22.012  0.00  0.00    +0.000 C 
BRANCH  17  18
ATOM     18  C   UNL     1      -0.190  11.470  20.942  0.00  0.00    +0.000 C 
BRANCH  18  19
ATOM     19  C   UNL     1      -1.442  11.769  20.183  0.00  0.00    +0.000 A 
ATOM     20  C   UNL     1      -2.440  12.653  20.551  0.00  0.00    +0.000 A 
ATOM     21  N   UNL     1      -3.411  12.635  19.583  0.00  0.00    +0.000 N 
ATOM     22  C   UNL     1      -3.075  11.743  18.590  0.00  0.00    +0.000 A 
ATOM     23  C   UNL     1      -3.767  11.384  17.426  0.00  0.00    +0.000 A 
ATOM     24  C   UNL     1      -3.189  10.414  16.603  0.00  0.00    +0.000 A 
ATOM     25  C   UNL     1      -1.962   9.839  16.924  0.00  0.00    +0.000 A 
ATOM     26  C   UNL     1      -1.278  10.220  18.084  0.00  0.00    +0.000 A 
ATOM     27  C   UNL     1      -1.845  11.187  18.939  0.00  0.00    +0.000 A 
ATOM     28  H   UNL     1      -4.253  13.193  19.589  0.00  0.00    +0.000 HD
ENDBRANCH  18  19
ENDBRANCH  17  18
ENDBRANCH   2  17
TORSDOF 6
ENDMDL
MODEL 8
REMARK VINA RESULT:      -8.4      6.054      8.901
REMARK  Name = 
REMARK  7 active torsions:
REMARK  status: ('A' for Active; 'I' for Inactive)
REMARK    1  A    between atoms: C_1  and  C_2
REMARK    2  A    between atoms: C_2  and  C_18
REMARK    3  A    between atoms: N_3  and  N_4
REMARK    4  A    between atoms: C_5  and  C_7
REMARK    5  A    between atoms: C_7  and  C_8
REMARK    6  A    between atoms: C_8  and  C_9
REMARK    7  A    between atoms: C_22  and  N_23
REMARK                            x       y       z     vdW  Elec       q    Type
REMARK                         _______ _______ _______ _____ _____    ______ ____
ROOT
ATOM      1  N   UNL     1       1.313   9.072  20.649  0.00  0.00    +0.000 N 
ATOM      2  C   UNL     1       0.200   9.256  21.463  0.00  0.00    +0.000 C 
ATOM      3  O   UNL     1      -0.543   8.366  21.861  0.00  0.00    +0.000 OA
ATOM      4  H   UNL     1       1.922   9.851  20.450  0.00  0.00    +0.000 HD
ENDROOT
BRANCH   1   7
ATOM      5  C   UNL     1       2.302   8.675  17.966  0.00  0.00    +0.000 C 
ATOM      6  C   UNL     1       2.104   7.613  19.031  0.00  0.00    +0.000 C 
ATOM      7  N   UNL     1       1.638   7.822  20.228  0.00  0.00    +0.000 NA
BRANCH   6   8
ATOM      8  C   UNL     1       2.491   6.204  18.664  0.00  0.00    +0.000 A 
ATOM      9  C   UNL     1       1.632   5.427  17.869  0.00  0.00    +0.000 A 
ATOM     10  C   UNL     1       1.947   4.096  17.567  0.00  0.00    +0.000 A 
ATOM     11  C   UNL     1       3.122   3.526  18.054  0.00  0.00    +0.000 A 
ATOM     12  C   UNL     1       3.986   4.301  18.837  0.00  0.00    +0.000 A 
ATOM     13  C   UNL     1       3.679   5.635  19.138  0.00  0.00    +0.000 A 
BRANCH  12  14
ATOM     14  N   UNL     1       5.215   3.708  19.378  0.00  0.00    +0.000 N 
ATOM     15  O   UNL     1       5.127   2.616  19.953  0.00  0.00    +0.000 OA
ATOM     16  O   UNL     1       6.272   4.342  19.229  0.00  0.00    +0.000 OA
ENDBRANCH  12  14
ENDBRANCH   6   8
ENDBRANCH   1   7
BRANCH   2  17
ATOM     17  C   UNL     1      -0.021  10.706  21.852  0.00  0.00    +0.000 C 
BRANCH  17  18
ATOM     18  C   UNL     1       0.070  11.624  20.636  0.00  0.00    +0.000 C 
BRANCH  18  19
ATOM     19  C   UNL     1      -1.257  11.853  19.987  0.00  0.00    +0.000 A 
ATOM     20  C   UNL     1      -2.247  12.718  20.413  0.00  0.00    +0.000 A 
ATOM     21  N   UNL     1      -3.301  12.631  19.541  0.00  0.00    +0.000 N 
ATOM     22  C   UNL     1      -3.027  11.712  18.554  0.00  0.00    +0.000 A 
ATOM     23  C   UNL     1      -3.809  11.285  17.473  0.00  0.00    +0.000 A 
ATOM     24  C   UNL     1      -3.275  10.303  16.635  0.00  0.00    +0.000 A 
ATOM     25  C   UNL     1      -2.005   9.780  16.863  0.00  0.00    +0.000 A 
ATOM     26  C   UNL     1      -1.231  10.228  17.939  0.00  0.00    +0.000 A 
ATOM     27  C   UNL     1      -1.751  11.209  18.807  0.00  0.00    +0.000 A 
ATOM     28  H   UNL     1      -4.159  13.162  19.605  0.00  0.00    +0.000 HD
ENDBRANCH  18  19
ENDBRANCH  17  18
ENDBRANCH   2  17
TORSDOF 6
ENDMDL
MODEL 9
REMARK VINA RESULT:      -8.3      5.572      7.761
REMARK  Name = 
REMARK  7 active torsions:
REMARK  status: ('A' for Active; 'I' for Inactive)
REMARK    1  A    between atoms: C_1  and  C_2
REMARK    2  A    between atoms: C_2  and  C_18
REMARK    3  A    between atoms: N_3  and  N_4
REMARK    4  A    between atoms: C_5  and  C_7
REMARK    5  A    between atoms: C_7  and  C_8
REMARK    6  A    between atoms: C_8  and  C_9
REMARK    7  A    between atoms: C_22  and  N_23
REMARK                            x       y       z     vdW  Elec       q    Type
REMARK                         _______ _______ _______ _____ _____    ______ ____
ROOT
ATOM      1  N   UNL     1       2.824   5.329  18.532  0.00  0.00    +0.000 N 
ATOM      2  C   UNL     1       4.106   4.954  18.920  0.00  0.00    +0.000 C 
ATOM      3  O   UNL     1       4.777   5.508  19.783  0.00  0.00    +0.000 OA
ATOM      4  H   UNL     1       2.311   4.754  17.881  0.00  0.00    +0.000 HD
ENDROOT
BRANCH   1   7
ATOM      5  C   UNL     1       3.156   7.966  17.406  0.00  0.00    +0.000 C 
ATOM      6  C   UNL     1       2.343   7.594  18.632  0.00  0.00    +0.000 C 
ATOM      7  N   UNL     1       2.227   6.395  19.125  0.00  0.00    +0.000 NA
BRANCH   6   8
ATOM      8  C   UNL     1       1.603   8.712  19.321  0.00  0.00    +0.000 A 
ATOM      9  C   UNL     1       1.272   9.875  18.607  0.00  0.00    +0.000 A 
ATOM     10  C   UNL     1       0.638  10.948  19.245  0.00  0.00    +0.000 A 
ATOM     11  C   UNL     1       0.326  10.872  20.601  0.00  0.00    +0.000 A 
ATOM     12  C   UNL     1       0.645   9.710  21.313  0.00  0.00    +0.000 A 
ATOM     13  C   UNL     1       1.275   8.631  20.679  0.00  0.00    +0.000 A 
BRANCH  12  14
ATOM     14  N   UNL     1       0.345   9.624  22.747  0.00  0.00    +0.000 N 
ATOM     15  O   UNL     1      -0.840   9.698  23.097  0.00  0.00    +0.000 OA
ATOM     16  O   UNL     1       1.301   9.485  23.526  0.00  0.00    +0.000 OA
ENDBRANCH  12  14
ENDBRANCH   6   8
ENDBRANCH   1   7
BRANCH   2  17
ATOM     17  C   UNL     1       4.625   3.741  18.169  0.00  0.00    +0.000 C 
BRANCH  17  18
ATOM     18  C   UNL     1       4.396   3.882  16.667  0.00  0.00    +0.000 C 
BRANCH  18  19
ATOM     19  C   UNL     1       5.576   4.462  15.956  0.00  0.00    +0.000 A 
ATOM     20  C   UNL     1       6.522   5.318  16.487  0.00  0.00    +0.000 A 
ATOM     21  N   UNL     1       7.436   5.613  15.509  0.00  0.00    +0.000 N 
ATOM     22  C   UNL     1       7.099   4.975  14.337  0.00  0.00    +0.000 A 
ATOM     23  C   UNL     1       7.723   4.998  13.083  0.00  0.00    +0.000 A 
ATOM     24  C   UNL     1       7.133   4.263  12.051  0.00  0.00    +0.000 A 
ATOM     25  C   UNL     1       5.973   3.525  12.270  0.00  0.00    +0.000 A 
ATOM     26  C   UNL     1       5.370   3.502  13.533  0.00  0.00    +0.000 A 
ATOM     27  C   UNL     1       5.938   4.245  14.588  0.00  0.00    +0.000 A 
ATOM     28  H   UNL     1       8.243   6.210  15.622  0.00  0.00    +0.000 HD
ENDBRANCH  18  19
ENDBRANCH  17  18
ENDBRANCH   2  17
TORSDOF 6
ENDMDL
