MODEL 1
REMARK VINA RESULT:      -6.6      0.000      0.000
REMARK  Name = 
REMARK  7 active torsions:
REMARK  status: ('A' for Active; 'I' for Inactive)
REMARK    1  A    between atoms: C_1  and  N_2
REMARK    2  A    between atoms: N_2  and  C_3
REMARK    3  A    between atoms: C_3  and  C_4
REMARK    4  A    between atoms: C_4  and  C_5
REMARK    5  A    between atoms: C_5  and  C_6
REMARK    6  A    between atoms: C_6  and  N_7
REMARK    7  A    between atoms: C_13  and  C_15
REMARK                            x       y       z     vdW  Elec       q    Type
REMARK                         _______ _______ _______ _____ _____    ______ ____
ROOT
ATOM      1  C   UNL     1       5.479   4.115  13.830  0.00  0.00    +0.000 C 
ATOM      2  N   UNL     1       5.756   4.559  15.190  0.00  0.00    +0.000 N 
ATOM      3  C   UNL     1       6.979   5.239  15.387  0.00  0.00    +0.000 C 
ATOM      4  O   UNL     1       7.702   5.449  14.405  0.00  0.00    +0.000 OA
ENDROOT
BRANCH   3   5
ATOM      5  C   UNL     1       7.370   5.691  16.716  0.00  0.00    +0.000 A 
ATOM      6  C   UNL     1       7.541   6.944  17.275  0.00  0.00    +0.000 A 
ATOM      7  N   UNL     1       7.927   6.983  18.599  0.00  0.00    +0.000 NA
ATOM      8  C   UNL     1       8.002   5.766  19.069  0.00  0.00    +0.000 A 
ATOM      9  N   UNL     1       8.323   5.505  20.344  0.00  0.00    +0.000 N 
ATOM     10  S   UNL     1       7.615   4.520  17.960  0.00  0.00    +0.000 S 
ATOM     11  H   UNL     1       8.267   6.302  20.971  0.00  0.00    +0.000 HD
ATOM     12  H   UNL     1       7.988   4.640  20.746  0.00  0.00    +0.000 HD
ENDBRANCH   3   5
BRANCH   2  13
ATOM     13  C   UNL     1       4.767   4.394  16.244  0.00  0.00    +0.000 C 
BRANCH  13  14
ATOM     14  C   UNL     1       4.144   5.629  16.882  0.00  0.00    +0.000 C 
BRANCH  14  15
ATOM     15  C   UNL     1       4.111   5.513  18.413  0.00  0.00    +0.000 C 
BRANCH  15  16
ATOM     16  C   UNL     1       2.701   5.218  18.957  0.00  0.00    +0.000 C 
BRANCH  16  17
ATOM     17  N   UNL     1       2.658   4.299  20.101  0.00  0.00    +0.000 NA
ATOM     18  C   UNL     1       3.540   3.124  19.872  0.00  0.00    +0.000 C 
ATOM     19  C   UNL     1       2.985   2.106  18.857  0.00  0.00    +0.000 C 
ATOM     20  O   UNL     1       1.646   1.693  19.177  0.00  0.00    +0.000 OA
ATOM     21  C   UNL     1       0.786   2.832  19.301  0.00  0.00    +0.000 C 
ATOM     22  C   UNL     1       1.311   3.779  20.394  0.00  0.00    +0.000 C 
ENDBRANCH  16  17
ENDBRANCH  15  16
ENDBRANCH  14  15
ENDBRANCH  13  14
ENDBRANCH   2  13
TORSDOF 6
ENDMDL
MODEL 2
REMARK VINA RESULT:      -6.5      1.807      3.691
REMARK  Name = 
REMARK  7 active torsions:
REMARK  status: ('A' for Active; 'I' for Inactive)
REMARK    1  A    between atoms: C_1  and  N_2
REMARK    2  A    between atoms: N_2  and  C_3
REMARK    3  A    between atoms: C_3  and  C_4
REMARK    4  A    between atoms: C_4  and  C_5
REMARK    5  A    between atoms: C_5  and  C_6
REMARK    6  A    between atoms: C_6  and  N_7
REMARK    7  A    between atoms: C_13  and  C_15
REMARK                            x       y       z     vdW  Elec       q    Type
REMARK                         _______ _______ _______ _____ _____    ______ ____
ROOT
ATOM      1  C   UNL     1       7.138   5.845  19.269  0.00  0.00    +0.000 C 
ATOM      2  N   UNL     1       6.716   5.756  17.876  0.00  0.00    +0.000 N 
ATOM      3  C   UNL     1       7.383   4.795  17.083  0.00  0.00    +0.000 C 
ATOM      4  O   UNL     1       8.234   4.076  17.620  0.00  0.00    +0.000 OA
ENDROOT
BRANCH   3   5
ATOM      5  C   UNL     1       7.064   4.652  15.668  0.00  0.00    +0.000 A 
ATOM      6  C   UNL     1       7.582   5.222  14.521  0.00  0.00    +0.000 A 
ATOM      7  N   UNL     1       7.013   4.835  13.325  0.00  0.00    +0.000 NA
ATOM      8  C   UNL     1       6.094   3.933  13.550  0.00  0.00    +0.000 A 
ATOM      9  N   UNL     1       5.398   3.352  12.563  0.00  0.00    +0.000 N 
ATOM     10  S   UNL     1       5.868   3.502  15.192  0.00  0.00    +0.000 S 
ATOM     11  H   UNL     1       5.790   3.475  11.634  0.00  0.00    +0.000 HD
ATOM     12  H   UNL     1       5.021   2.430  12.733  0.00  0.00    +0.000 HD
ENDBRANCH   3   5
BRANCH   2  13
ATOM     13  C   UNL     1       5.598   6.546  17.385  0.00  0.00    +0.000 C 
BRANCH  13  14
ATOM     14  C   UNL     1       4.195   5.952  17.411  0.00  0.00    +0.000 C 
BRANCH  14  15
ATOM     15  C   UNL     1       3.432   6.372  18.675  0.00  0.00    +0.000 C 
BRANCH  15  16
ATOM     16  C   UNL     1       3.390   5.262  19.741  0.00  0.00    +0.000 C 
BRANCH  16  17
ATOM     17  N   UNL     1       3.071   3.922  19.229  0.00  0.00    +0.000 NA
ATOM     18  C   UNL     1       1.613   3.788  18.968  0.00  0.00    +0.000 C 
ATOM     19  C   UNL     1       0.752   3.658  20.239  0.00  0.00    +0.000 C 
ATOM     20  O   UNL     1       1.220   2.614  21.108  0.00  0.00    +0.000 OA
ATOM     21  C   UNL     1       2.602   2.809  21.428  0.00  0.00    +0.000 C 
ATOM     22  C   UNL     1       3.448   2.831  20.144  0.00  0.00    +0.000 C 
ENDBRANCH  16  17
ENDBRANCH  15  16
ENDBRANCH  14  15
ENDBRANCH  13  14
ENDBRANCH   2  13
TORSDOF 6
ENDMDL
MODEL 3
REMARK VINA RESULT:      -6.3      2.391      6.223
REMARK  Name = 
REMARK  7 active torsions:
REMARK  status: ('A' for Active; 'I' for Inactive)
REMARK    1  A    between atoms: C_1  and  N_2
REMARK    2  A    between atoms: N_2  and  C_3
REMARK    3  A    between atoms: C_3  and  C_4
REMARK    4  A    between atoms: C_4  and  C_5
REMARK    5  A    between atoms: C_5  and  C_6
REMARK    6  A    between atoms: C_6  and  N_7
REMARK    7  A    between atoms: C_13  and  C_15
REMARK                            x       y       z     vdW  Elec       q    Type
REMARK                         _______ _______ _______ _____ _____    ______ ____
ROOT
ATOM      1  C   UNL     1       2.032   7.344  20.449  0.00  0.00    +0.000 C 
ATOM      2  N   UNL     1       2.269   6.179  19.605  0.00  0.00    +0.000 N 
ATOM      3  C   UNL     1       2.098   4.919  20.220  0.00  0.00    +0.000 C 
ATOM      4  O   UNL     1       1.723   4.884  21.399  0.00  0.00    +0.000 OA
ENDROOT
BRANCH   3   5
ATOM      5  C   UNL     1       2.348   3.691  19.476  0.00  0.00    +0.000 A 
ATOM      6  C   UNL     1       1.594   2.963  18.573  0.00  0.00    +0.000 A 
ATOM      7  N   UNL     1       2.175   1.823  18.059  0.00  0.00    +0.000 NA
ATOM      8  C   UNL     1       3.390   1.701  18.527  0.00  0.00    +0.000 A 
ATOM      9  N   UNL     1       4.203   0.698  18.167  0.00  0.00    +0.000 N 
ATOM     10  S   UNL     1       3.897   2.940  19.595  0.00  0.00    +0.000 S 
ATOM     11  H   UNL     1       3.910   0.185  17.341  0.00  0.00    +0.000 HD
ATOM     12  H   UNL     1       5.199   0.858  18.222  0.00  0.00    +0.000 HD
ENDBRANCH   3   5
BRANCH   2  13
ATOM     13  C   UNL     1       2.560   6.332  18.188  0.00  0.00    +0.000 C 
BRANCH  13  14
ATOM     14  C   UNL     1       2.842   7.722  17.630  0.00  0.00    +0.000 C 
BRANCH  14  15
ATOM     15  C   UNL     1       4.303   7.859  17.181  0.00  0.00    +0.000 C 
BRANCH  15  16
ATOM     16  C   UNL     1       4.917   6.519  16.736  0.00  0.00    +0.000 C 
BRANCH  16  17
ATOM     17  N   UNL     1       6.284   6.608  16.207  0.00  0.00    +0.000 NA
ATOM     18  C   UNL     1       6.652   5.366  15.477  0.00  0.00    +0.000 C 
ATOM     19  C   UNL     1       6.937   4.157  16.388  0.00  0.00    +0.000 C 
ATOM     20  O   UNL     1       7.901   4.461  17.409  0.00  0.00    +0.000 OA
ATOM     21  C   UNL     1       7.485   5.604  18.167  0.00  0.00    +0.000 C 
ATOM     22  C   UNL     1       7.310   6.820  17.243  0.00  0.00    +0.000 C 
ENDBRANCH  16  17
ENDBRANCH  15  16
ENDBRANCH  14  15
ENDBRANCH  13  14
ENDBRANCH   2  13
TORSDOF 6
ENDMDL
MODEL 4
REMARK VINA RESULT:      -6.3      4.694      6.071
REMARK  Name = 
REMARK  7 active torsions:
REMARK  status: ('A' for Active; 'I' for Inactive)
REMARK    1  A    between atoms: C_1  and  N_2
REMARK    2  A    between atoms: N_2  and  C_3
REMARK    3  A    between atoms: C_3  and  C_4
REMARK    4  A    between atoms: C_4  and  C_5
REMARK    5  A    between atoms: C_5  and  C_6
REMARK    6  A    between atoms: C_6  and  N_7
REMARK    7  A    between atoms: C_13  and  C_15
REMARK                            x       y       z     vdW  Elec       q    Type
REMARK                         _______ _______ _______ _____ _____    ______ ____
ROOT
ATOM      1  C   UNL     1       3.133   4.991  20.125  0.00  0.00    +0.000 C 
ATOM      2  N   UNL     1       3.895   5.434  18.965  0.00  0.00    +0.000 N 
ATOM      3  C   UNL     1       5.007   4.639  18.608  0.00  0.00    +0.000 C 
ATOM      4  O   UNL     1       5.234   3.614  19.263  0.00  0.00    +0.000 OA
ENDROOT
BRANCH   3   5
ATOM      5  C   UNL     1       5.859   5.016  17.488  0.00  0.00    +0.000 A 
ATOM      6  C   UNL     1       6.975   5.826  17.380  0.00  0.00    +0.000 A 
ATOM      7  N   UNL     1       7.531   5.949  16.123  0.00  0.00    +0.000 NA
ATOM      8  C   UNL     1       6.875   5.198  15.278  0.00  0.00    +0.000 A 
ATOM      9  N   UNL     1       7.219   5.096  13.987  0.00  0.00    +0.000 N 
ATOM     10  S   UNL     1       5.570   4.308  15.941  0.00  0.00    +0.000 S 
ATOM     11  H   UNL     1       8.148   5.440  13.764  0.00  0.00    +0.000 HD
ATOM     12  H   UNL     1       6.965   4.248  13.498  0.00  0.00    +0.000 HD
ENDBRANCH   3   5
BRANCH   2  13
ATOM     13  C   UNL     1       3.453   6.572  18.173  0.00  0.00    +0.000 C 
BRANCH  13  14
ATOM     14  C   UNL     1       2.392   7.507  18.740  0.00  0.00    +0.000 C 
BRANCH  14  15
ATOM     15  C   UNL     1       1.907   8.510  17.684  0.00  0.00    +0.000 C 
BRANCH  15  16
ATOM     16  C   UNL     1       1.612   9.901  18.276  0.00  0.00    +0.000 C 
BRANCH  16  17
ATOM     17  N   UNL     1       0.435   9.964  19.152  0.00  0.00    +0.000 NA
ATOM     18  C   UNL     1      -0.621  10.827  18.559  0.00  0.00    +0.000 C 
ATOM     19  C   UNL     1      -0.318  12.337  18.628  0.00  0.00    +0.000 C 
ATOM     20  O   UNL     1       0.013  12.764  19.959  0.00  0.00    +0.000 OA
ATOM     21  C   UNL     1       1.097  11.987  20.481  0.00  0.00    +0.000 C 
ATOM     22  C   UNL     1       0.722  10.495  20.496  0.00  0.00    +0.000 C 
ENDBRANCH  16  17
ENDBRANCH  15  16
ENDBRANCH  14  15
ENDBRANCH  13  14
ENDBRANCH   2  13
TORSDOF 6
ENDMDL
MODEL 5
REMARK VINA RESULT:      -6.3      4.146      5.457
REMARK  Name = 
REMARK  7 active torsions:
REMARK  status: ('A' for Active; 'I' for Inactive)
REMARK    1  A    between atoms: C_1  and  N_2
REMARK    2  A    between atoms: N_2  and  C_3
REMARK    3  A    between atoms: C_3  and  C_4
REMARK    4  A    between atoms: C_4  and  C_5
REMARK    5  A    between atoms: C_5  and  C_6
REMARK    6  A    between atoms: C_6  and  N_7
REMARK    7  A    between atoms: C_13  and  C_15
REMARK                            x       y       z     vdW  Elec       q    Type
REMARK                         _______ _______ _______ _____ _____    ______ ____
ROOT
ATOM      1  C   UNL     1       2.699   4.579  19.948  0.00  0.00    +0.000 C 
ATOM      2  N   UNL     1       3.511   5.095  18.852  0.00  0.00    +0.000 N 
ATOM      3  C   UNL     1       4.814   4.561  18.737  0.00  0.00    +0.000 C 
ATOM      4  O   UNL     1       5.161   3.677  19.529  0.00  0.00    +0.000 OA
ENDROOT
BRANCH   3   5
ATOM      5  C   UNL     1       5.720   5.037  17.700  0.00  0.00    +0.000 A 
ATOM      6  C   UNL     1       6.659   6.051  17.659  0.00  0.00    +0.000 A 
ATOM      7  N   UNL     1       7.347   6.210  16.474  0.00  0.00    +0.000 NA
ATOM      8  C   UNL     1       6.974   5.290  15.624  0.00  0.00    +0.000 A 
ATOM      9  N   UNL     1       7.505   5.183  14.398  0.00  0.00    +0.000 N 
ATOM     10  S   UNL     1       5.791   4.192  16.197  0.00  0.00    +0.000 S 
ATOM     11  H   UNL     1       8.370   5.697  14.261  0.00  0.00    +0.000 HD
ATOM     12  H   UNL     1       7.492   4.273  13.957  0.00  0.00    +0.000 HD
ENDBRANCH   3   5
BRANCH   2  13
ATOM     13  C   UNL     1       2.951   6.026  17.885  0.00  0.00    +0.000 C 
BRANCH  13  14
ATOM     14  C   UNL     1       3.247   7.514  18.024  0.00  0.00    +0.000 C 
BRANCH  14  15
ATOM     15  C   UNL     1       1.960   8.326  18.220  0.00  0.00    +0.000 C 
BRANCH  15  16
ATOM     16  C   UNL     1       1.665   8.625  19.702  0.00  0.00    +0.000 C 
BRANCH  16  17
ATOM     17  N   UNL     1       0.306   9.108  19.979  0.00  0.00    +0.000 NA
ATOM     18  C   UNL     1       0.218  10.580  19.792  0.00  0.00    +0.000 C 
ATOM     19  C   UNL     1       0.886  11.401  20.913  0.00  0.00    +0.000 C 
ATOM     20  O   UNL     1       0.424  11.016  22.218  0.00  0.00    +0.000 OA
ATOM     21  C   UNL     1       0.604   9.609  22.419  0.00  0.00    +0.000 C 
ATOM     22  C   UNL     1      -0.161   8.816  21.345  0.00  0.00    +0.000 C 
ENDBRANCH  16  17
ENDBRANCH  15  16
ENDBRANCH  14  15
ENDBRANCH  13  14
ENDBRANCH   2  13
TORSDOF 6
ENDMDL
MODEL 6
REMARK VINA RESULT:      -6.2      1.682      3.539
REMARK  Name = 
REMARK  7 active torsions:
REMARK  status: ('A' for Active; 'I' for Inactive)
REMARK    1  A    between atoms: C_1  and  N_2
REMARK    2  A    between atoms: N_2  and  C_3
REMARK    3  A    between atoms: C_3  and  C_4
REMARK    4  A    between atoms: C_4  and  C_5
REMARK    5  A    between atoms: C_5  and  C_6
REMARK    6  A    between atoms: C_6  and  N_7
REMARK    7  A    between atoms: C_13  and  C_15
REMARK                            x       y       z     vdW  Elec       q    Type
REMARK                         _______ _______ _______ _____ _____    ______ ____
ROOT
ATOM      1  C   UNL     1       7.325   6.154  18.892  0.00  0.00    +0.000 C 
ATOM      2  N   UNL     1       6.874   5.999  17.515  0.00  0.00    +0.000 N 
ATOM      3  C   UNL     1       7.416   4.906  16.801  0.00  0.00    +0.000 C 
ATOM      4  O   UNL     1       8.189   4.142  17.391  0.00  0.00    +0.000 OA
ENDROOT
BRANCH   3   5
ATOM      5  C   UNL     1       7.061   4.684  15.405  0.00  0.00    +0.000 A 
ATOM      6  C   UNL     1       7.593   5.137  14.212  0.00  0.00    +0.000 A 
ATOM      7  N   UNL     1       6.976   4.703  13.056  0.00  0.00    +0.000 NA
ATOM      8  C   UNL     1       6.006   3.881  13.359  0.00  0.00    +0.000 A 
ATOM      9  N   UNL     1       5.256   3.278  12.426  0.00  0.00    +0.000 N 
ATOM     10  S   UNL     1       5.786   3.583  15.031  0.00  0.00    +0.000 S 
ATOM     11  H   UNL     1       5.637   3.309  11.485  0.00  0.00    +0.000 HD
ATOM     12  H   UNL     1       4.825   2.396  12.668  0.00  0.00    +0.000 HD
ENDBRANCH   3   5
BRANCH   2  13
ATOM     13  C   UNL     1       5.845   6.868  16.965  0.00  0.00    +0.000 C 
BRANCH  13  14
ATOM     14  C   UNL     1       4.447   6.843  17.570  0.00  0.00    +0.000 C 
BRANCH  14  15
ATOM     15  C   UNL     1       3.990   5.408  17.868  0.00  0.00    +0.000 C 
BRANCH  15  16
ATOM     16  C   UNL     1       2.931   5.341  18.983  0.00  0.00    +0.000 C 
BRANCH  16  17
ATOM     17  N   UNL     1       3.231   4.398  20.068  0.00  0.00    +0.000 NA
ATOM     18  C   UNL     1       3.754   3.116  19.527  0.00  0.00    +0.000 C 
ATOM     19  C   UNL     1       2.686   2.226  18.864  0.00  0.00    +0.000 C 
ATOM     20  O   UNL     1       1.556   2.002  19.723  0.00  0.00    +0.000 OA
ATOM     21  C   UNL     1       1.003   3.249  20.160  0.00  0.00    +0.000 C 
ATOM     22  C   UNL     1       2.067   4.069  20.909  0.00  0.00    +0.000 C 
ENDBRANCH  16  17
ENDBRANCH  15  16
ENDBRANCH  14  15
ENDBRANCH  13  14
ENDBRANCH   2  13
TORSDOF 6
ENDMDL
MODEL 7
REMARK VINA RESULT:      -6.2      4.634      5.936
REMARK  Name = 
REMARK  7 active torsions:
REMARK  status: ('A' for Active; 'I' for Inactive)
REMARK    1  A    between atoms: C_1  and  N_2
REMARK    2  A    between atoms: N_2  and  C_3
REMARK    3  A    between atoms: C_3  and  C_4
REMARK    4  A    between atoms: C_4  and  C_5
REMARK    5  A    between atoms: C_5  and  C_6
REMARK    6  A    between atoms: C_6  and  N_7
REMARK    7  A    between atoms: C_13  and  C_15
REMARK                            x       y       z     vdW  Elec       q    Type
REMARK                         _______ _______ _______ _____ _____    ______ ____
ROOT
ATOM      1  C   UNL     1       2.910   4.998  20.243  0.00  0.00    +0.000 C 
ATOM      2  N   UNL     1       3.715   5.491  19.133  0.00  0.00    +0.000 N 
ATOM      3  C   UNL     1       4.898   4.771  18.852  0.00  0.00    +0.000 C 
ATOM      4  O   UNL     1       5.147   3.762  19.523  0.00  0.00    +0.000 OA
ENDROOT
BRANCH   3   5
ATOM      5  C   UNL     1       5.794   5.203  17.787  0.00  0.00    +0.000 A 
ATOM      6  C   UNL     1       6.783   6.166  17.717  0.00  0.00    +0.000 A 
ATOM      7  N   UNL     1       7.439   6.294  16.511  0.00  0.00    +0.000 NA
ATOM      8  C   UNL     1       6.989   5.399  15.671  0.00  0.00    +0.000 A 
ATOM      9  N   UNL     1       7.474   5.270  14.428  0.00  0.00    +0.000 N 
ATOM     10  S   UNL     1       5.770   4.362  16.280  0.00  0.00    +0.000 S 
ATOM     11  H   UNL     1       8.360   5.738  14.263  0.00  0.00    +0.000 HD
ATOM     12  H   UNL     1       7.398   4.364  13.985  0.00  0.00    +0.000 HD
ENDBRANCH   3   5
BRANCH   2  13
ATOM     13  C   UNL     1       3.252   6.598  18.311  0.00  0.00    +0.000 C 
BRANCH  13  14
ATOM     14  C   UNL     1       2.229   7.574  18.880  0.00  0.00    +0.000 C 
BRANCH  14  15
ATOM     15  C   UNL     1       2.172   8.869  18.059  0.00  0.00    +0.000 C 
BRANCH  15  16
ATOM     16  C   UNL     1       0.855   9.641  18.258  0.00  0.00    +0.000 C 
BRANCH  16  17
ATOM     17  N   UNL     1       0.998  10.959  18.891  0.00  0.00    +0.000 NA
ATOM     18  C   UNL     1       1.052  10.832  20.372  0.00  0.00    +0.000 C 
ATOM     19  C   UNL     1      -0.303  10.510  21.030  0.00  0.00    +0.000 C 
ATOM     20  O   UNL     1      -1.334  11.426  20.627  0.00  0.00    +0.000 OA
ATOM     21  C   UNL     1      -1.440  11.466  19.199  0.00  0.00    +0.000 C 
ATOM     22  C   UNL     1      -0.099  11.891  18.577  0.00  0.00    +0.000 C 
ENDBRANCH  16  17
ENDBRANCH  15  16
ENDBRANCH  14  15
ENDBRANCH  13  14
ENDBRANCH   2  13
TORSDOF 6
ENDMDL
MODEL 8
REMARK VINA RESULT:      -6.1      4.845      6.136
REMARK  Name = 
REMARK  7 active torsions:
REMARK  status: ('A' for Active; 'I' for Inactive)
REMARK    1  A    between atoms: C_1  and  N_2
REMARK    2  A    between atoms: N_2  and  C_3
REMARK    3  A    between atoms: C_3  and  C_4
REMARK    4  A    between atoms: C_4  and  C_5
REMARK    5  A    between atoms: C_5  and  C_6
REMARK    6  A    between atoms: C_6  and  N_7
REMARK    7  A    between atoms: C_13  and  C_15
REMARK                            x       y       z     vdW  Elec       q    Type
REMARK                         _______ _______ _______ _____ _____    ______ ____
ROOT
ATOM      1  C   UNL     1       2.400   5.838  19.918  0.00  0.00    +0.000 C 
ATOM      2  N   UNL     1       3.360   6.158  18.870  0.00  0.00    +0.000 N 
ATOM      3  C   UNL     1       4.463   5.284  18.746  0.00  0.00    +0.000 C 
ATOM      4  O   UNL     1       4.520   4.298  19.490  0.00  0.00    +0.000 OA
ENDROOT
BRANCH   3   5
ATOM      5  C   UNL     1       5.501   5.536  17.755  0.00  0.00    +0.000 A 
ATOM      6  C   UNL     1       6.612   6.358  17.739  0.00  0.00    +0.000 A 
ATOM      7  N   UNL     1       7.386   6.332  16.597  0.00  0.00    +0.000 NA
ATOM      8  C   UNL     1       6.899   5.456  15.759  0.00  0.00    +0.000 A 
ATOM      9  N   UNL     1       7.472   5.195  14.575  0.00  0.00    +0.000 N 
ATOM     10  S   UNL     1       5.502   4.620  16.292  0.00  0.00    +0.000 S 
ATOM     11  H   UNL     1       8.424   5.536  14.477  0.00  0.00    +0.000 HD
ATOM     12  H   UNL     1       7.316   4.283  14.168  0.00  0.00    +0.000 HD
ENDBRANCH   3   5
BRANCH   2  13
ATOM     13  C   UNL     1       3.118   7.258  17.949  0.00  0.00    +0.000 C 
BRANCH  13  14
ATOM     14  C   UNL     1       1.912   8.163  18.168  0.00  0.00    +0.000 C 
BRANCH  14  15
ATOM     15  C   UNL     1       2.268   9.638  17.934  0.00  0.00    +0.000 C 
BRANCH  15  16
ATOM     16  C   UNL     1       1.172  10.599  18.432  0.00  0.00    +0.000 C 
BRANCH  16  17
ATOM     17  N   UNL     1      -0.046   9.948  18.929  0.00  0.00    +0.000 NA
ATOM     18  C   UNL     1      -1.199  10.224  18.032  0.00  0.00    +0.000 C 
ATOM     19  C   UNL     1      -1.756  11.657  18.140  0.00  0.00    +0.000 C 
ATOM     20  O   UNL     1      -2.057  12.022  19.497  0.00  0.00    +0.000 OA
ATOM     21  C   UNL     1      -0.907  11.840  20.333  0.00  0.00    +0.000 C 
ATOM     22  C   UNL     1      -0.439  10.376  20.282  0.00  0.00    +0.000 C 
ENDBRANCH  16  17
ENDBRANCH  15  16
ENDBRANCH  14  15
ENDBRANCH  13  14
ENDBRANCH   2  13
TORSDOF 6
ENDMDL
MODEL 9
REMARK VINA RESULT:      -6.0      1.863      3.526
REMARK  Name = 
REMARK  7 active torsions:
REMARK  status: ('A' for Active; 'I' for Inactive)
REMARK    1  A    between atoms: C_1  and  N_2
REMARK    2  A    between atoms: N_2  and  C_3
REMARK    3  A    between atoms: C_3  and  C_4
REMARK    4  A    between atoms: C_4  and  C_5
REMARK    5  A    between atoms: C_5  and  C_6
REMARK    6  A    between atoms: C_6  and  N_7
REMARK    7  A    between atoms: C_13  and  C_15
REMARK                            x       y       z     vdW  Elec       q    Type
REMARK                         _______ _______ _______ _____ _____    ______ ____
ROOT
ATOM      1  C   UNL     1       6.593   5.606  19.383  0.00  0.00    +0.000 C 
ATOM      2  N   UNL     1       6.325   5.571  17.950  0.00  0.00    +0.000 N 
ATOM      3  C   UNL     1       7.193   4.773  17.172  0.00  0.00    +0.000 C 
ATOM      4  O   UNL     1       8.080   4.132  17.749  0.00  0.00    +0.000 OA
ENDROOT
BRANCH   3   5
ATOM      5  C   UNL     1       7.035   4.701  15.725  0.00  0.00    +0.000 A 
ATOM      6  C   UNL     1       7.610   5.394  14.677  0.00  0.00    +0.000 A 
ATOM      7  N   UNL     1       7.206   5.041  13.406  0.00  0.00    +0.000 NA
ATOM      8  C   UNL     1       6.361   4.047  13.475  0.00  0.00    +0.000 A 
ATOM      9  N   UNL     1       5.830   3.475  12.385  0.00  0.00    +0.000 N 
ATOM     10  S   UNL     1       6.013   3.483  15.054  0.00  0.00    +0.000 S 
ATOM     11  H   UNL     1       6.301   3.698  11.513  0.00  0.00    +0.000 HD
ATOM     12  H   UNL     1       5.530   2.513  12.458  0.00  0.00    +0.000 HD
ENDBRANCH   3   5
BRANCH   2  13
ATOM     13  C   UNL     1       5.160   6.243  17.394  0.00  0.00    +0.000 C 
BRANCH  13  14
ATOM     14  C   UNL     1       3.809   5.541  17.424  0.00  0.00    +0.000 C 
BRANCH  14  15
ATOM     15  C   UNL     1       2.886   6.145  18.491  0.00  0.00    +0.000 C 
BRANCH  15  16
ATOM     16  C   UNL     1       3.052   5.476  19.868  0.00  0.00    +0.000 C 
BRANCH  16  17
ATOM     17  N   UNL     1       1.843   4.825  20.391  0.00  0.00    +0.000 NA
ATOM     18  C   UNL     1       2.173   3.937  21.537  0.00  0.00    +0.000 C 
ATOM     19  C   UNL     1       2.875   2.624  21.139  0.00  0.00    +0.000 C 
ATOM     20  O   UNL     1       2.154   1.910  20.122  0.00  0.00    +0.000 OA
ATOM     21  C   UNL     1       1.927   2.749  18.984  0.00  0.00    +0.000 C 
ATOM     22  C   UNL     1       1.135   4.002  19.396  0.00  0.00    +0.000 C 
ENDBRANCH  16  17
ENDBRANCH  15  16
ENDBRANCH  14  15
ENDBRANCH  13  14
ENDBRANCH   2  13
TORSDOF 6
ENDMDL
