MODEL 1
REMARK VINA RESULT:      -9.2      0.000      0.000
REMARK  Name = 
REMARK  11 active torsions:
REMARK  status: ('A' for Active; 'I' for Inactive)
REMARK    1  A    between atoms: C_1  and  O_2
REMARK    2  A    between atoms: O_2  and  C_3
REMARK    3  A    between atoms: C_5  and  N_6
REMARK    4  A    between atoms: N_9  and  C_10
REMARK    5  A    between atoms: C_10  and  C_11
REMARK    6  A    between atoms: C_11  and  C_12
REMARK    7  A    between atoms: C_11  and  O_13
REMARK    8  A    between atoms: C_18  and  N_19
REMARK    9  A    between atoms: C_26  and  C_27
REMARK   10  A    between atoms: C_32  and  O_33
REMARK   11  A    between atoms: O_33  and  C_34
REMARK                            x       y       z     vdW  Elec       q    Type
REMARK                         _______ _______ _______ _____ _____    ______ ____
ROOT
ATOM      1  C   UNL     1       0.778   9.463  19.553  0.00  0.00    +0.000 A 
ATOM      2  C   UNL     1      -0.187  10.379  20.015  0.00  0.00    +0.000 A 
ATOM      3  C   UNL     1      -0.610  10.418  21.353  0.00  0.00    +0.000 A 
ATOM      4  C   UNL     1      -0.111   9.432  22.198  0.00  0.00    +0.000 A 
ATOM      5  C   UNL     1       0.806   8.488  21.741  0.00  0.00    +0.000 A 
ATOM      6  C   UNL     1       1.349   8.538  20.449  0.00  0.00    +0.000 A 
ENDROOT
BRANCH   6   7
ATOM      7  N   UNL     1       2.360   7.632  20.062  0.00  0.00    +0.000 N 
ATOM      8  C   UNL     1       2.273   6.271  19.927  0.00  0.00    +0.000 A 
ATOM      9  N   UNL     1       1.284   5.582  20.587  0.00  0.00    +0.000 NA
ATOM     10  C   UNL     1       1.259   4.297  20.538  0.00  0.00    +0.000 A 
ATOM     11  C   UNL     1       2.247   3.604  19.808  0.00  0.00    +0.000 A 
ATOM     12  C   UNL     1       2.526   2.273  19.651  0.00  0.00    +0.000 A 
ATOM     13  C   UNL     1       3.687   2.212  18.851  0.00  0.00    +0.000 A 
ATOM     14  C   UNL     1       4.027   3.500  18.445  0.00  0.00    +0.000 A 
ATOM     15  N   UNL     1       3.163   4.351  19.134  0.00  0.00    +0.000 N 
ATOM     16  N   UNL     1       3.203   5.699  19.203  0.00  0.00    +0.000 NA
ATOM     17  H   UNL     1       3.256   7.881  20.457  0.00  0.00    +0.000 HD
BRANCH  14  18
ATOM     18  C   UNL     1       5.107   3.934  17.530  0.00  0.00    +0.000 A 
ATOM     19  C   UNL     1       4.932   3.786  16.140  0.00  0.00    +0.000 A 
ATOM     20  C   UNL     1       5.881   4.234  15.219  0.00  0.00    +0.000 A 
ATOM     21  C   UNL     1       7.031   4.867  15.666  0.00  0.00    +0.000 A 
ATOM     22  C   UNL     1       7.233   5.040  17.033  0.00  0.00    +0.000 A 
ATOM     23  C   UNL     1       6.295   4.561  17.967  0.00  0.00    +0.000 A 
BRANCH  23  24
ATOM     24  O   UNL     1       6.584   4.879  19.272  0.00  0.00    +0.000 OA
ATOM     25  C   UNL     1       7.741   5.697  19.428  0.00  0.00    +0.000 C 
ENDBRANCH  23  24
ENDBRANCH  14  18
ENDBRANCH   6   7
BRANCH   3  26
ATOM     26  N   UNL     1      -1.412  11.440  21.821  0.00  0.00    +0.000 N 
ATOM     27  C   UNL     1      -1.650  12.634  20.997  0.00  0.00    +0.000 C 
ATOM     28  C   UNL     1      -3.076  13.163  21.281  0.00  0.00    +0.000 C 
ATOM     29  N   UNL     1      -3.348  13.471  22.706  0.00  0.00    +0.000 NA
ATOM     30  C   UNL     1      -3.038  12.248  23.500  0.00  0.00    +0.000 C 
ATOM     31  C   UNL     1      -1.639  11.619  23.260  0.00  0.00    +0.000 C 
BRANCH  29  32
ATOM     32  C   UNL     1      -2.590  14.635  23.202  0.00  0.00    +0.000 C 
BRANCH  32  33
ATOM     33  C   UNL     1      -3.252  15.426  24.363  0.00  0.00    +0.000 C 
ATOM     34  C   UNL     1      -2.506  15.193  25.671  0.00  0.00    +0.000 C 
BRANCH  33  35
ATOM     35  O   UNL     1      -4.613  15.043  24.558  0.00  0.00    +0.000 OA
ATOM     36  H   UNL     1      -4.860  14.444  23.833  0.00  0.00    +0.000 HD
ENDBRANCH  33  35
ENDBRANCH  32  33
ENDBRANCH  29  32
ENDBRANCH   3  26
BRANCH   1  38
ATOM     37  C   UNL     1       2.045  10.746  17.970  0.00  0.00    +0.000 C 
ATOM     38  O   UNL     1       1.149   9.676  18.245  0.00  0.00    +0.000 OA
ENDBRANCH   1  38
TORSDOF 8
ENDMDL
MODEL 2
REMARK VINA RESULT:      -9.0      0.835      1.296
REMARK  Name = 
REMARK  11 active torsions:
REMARK  status: ('A' for Active; 'I' for Inactive)
REMARK    1  A    between atoms: C_1  and  O_2
REMARK    2  A    between atoms: O_2  and  C_3
REMARK    3  A    between atoms: C_5  and  N_6
REMARK    4  A    between atoms: N_9  and  C_10
REMARK    5  A    between atoms: C_10  and  C_11
REMARK    6  A    between atoms: C_11  and  C_12
REMARK    7  A    between atoms: C_11  and  O_13
REMARK    8  A    between atoms: C_18  and  N_19
REMARK    9  A    between atoms: C_26  and  C_27
REMARK   10  A    between atoms: C_32  and  O_33
REMARK   11  A    between atoms: O_33  and  C_34
REMARK                            x       y       z     vdW  Elec       q    Type
REMARK                         _______ _______ _______ _____ _____    ______ ____
ROOT
ATOM      1  C   UNL     1       0.865   9.577  19.416  0.00  0.00    +0.000 A 
ATOM      2  C   UNL     1      -0.093  10.518  19.841  0.00  0.00    +0.000 A 
ATOM      3  C   UNL     1      -0.556  10.577  21.165  0.00  0.00    +0.000 A 
ATOM      4  C   UNL     1      -0.107   9.586  22.032  0.00  0.00    +0.000 A 
ATOM      5  C   UNL     1       0.802   8.618  21.610  0.00  0.00    +0.000 A 
ATOM      6  C   UNL     1       1.386   8.647  20.336  0.00  0.00    +0.000 A 
ENDROOT
BRANCH   6   7
ATOM      7  N   UNL     1       2.388   7.715  19.987  0.00  0.00    +0.000 N 
ATOM      8  C   UNL     1       2.284   6.351  19.898  0.00  0.00    +0.000 A 
ATOM      9  N   UNL     1       1.282   5.698  20.576  0.00  0.00    +0.000 NA
ATOM     10  C   UNL     1       1.241   4.412  20.571  0.00  0.00    +0.000 A 
ATOM     11  C   UNL     1       2.224   3.682  19.872  0.00  0.00    +0.000 A 
ATOM     12  C   UNL     1       2.486   2.342  19.763  0.00  0.00    +0.000 A 
ATOM     13  C   UNL     1       3.651   2.239  18.973  0.00  0.00    +0.000 A 
ATOM     14  C   UNL     1       4.010   3.508  18.525  0.00  0.00    +0.000 A 
ATOM     15  N   UNL     1       3.153   4.393  19.178  0.00  0.00    +0.000 N 
ATOM     16  N   UNL     1       3.211   5.742  19.200  0.00  0.00    +0.000 NA
ATOM     17  H   UNL     1       3.285   7.966  20.378  0.00  0.00    +0.000 HD
BRANCH  14  18
ATOM     18  C   UNL     1       5.101   3.895  17.602  0.00  0.00    +0.000 A 
ATOM     19  C   UNL     1       4.906   3.764  16.213  0.00  0.00    +0.000 A 
ATOM     20  C   UNL     1       5.867   4.171  15.284  0.00  0.00    +0.000 A 
ATOM     21  C   UNL     1       7.049   4.748  15.724  0.00  0.00    +0.000 A 
ATOM     22  C   UNL     1       7.271   4.904  17.090  0.00  0.00    +0.000 A 
ATOM     23  C   UNL     1       6.321   4.465  18.030  0.00  0.00    +0.000 A 
BRANCH  23  24
ATOM     24  O   UNL     1       6.636   4.763  19.334  0.00  0.00    +0.000 OA
ATOM     25  C   UNL     1       7.688   5.715  19.475  0.00  0.00    +0.000 C 
ENDBRANCH  23  24
ENDBRANCH  14  18
ENDBRANCH   6   7
BRANCH   3  26
ATOM     26  N   UNL     1      -1.349  11.621  21.601  0.00  0.00    +0.000 N 
ATOM     27  C   UNL     1      -1.875  11.631  22.974  0.00  0.00    +0.000 C 
ATOM     28  C   UNL     1      -1.972  13.096  23.461  0.00  0.00    +0.000 C 
ATOM     29  N   UNL     1      -2.793  13.980  22.600  0.00  0.00    +0.000 NA
ATOM     30  C   UNL     1      -2.254  13.890  21.213  0.00  0.00    +0.000 C 
ATOM     31  C   UNL     1      -2.086  12.455  20.643  0.00  0.00    +0.000 C 
BRANCH  29  32
ATOM     32  C   UNL     1      -4.231  13.652  22.635  0.00  0.00    +0.000 C 
BRANCH  32  33
ATOM     33  C   UNL     1      -4.882  13.627  24.045  0.00  0.00    +0.000 C 
ATOM     34  C   UNL     1      -6.255  12.967  23.995  0.00  0.00    +0.000 C 
BRANCH  33  35
ATOM     35  O   UNL     1      -5.044  14.941  24.578  0.00  0.00    +0.000 OA
ATOM     36  H   UNL     1      -4.615  15.564  23.968  0.00  0.00    +0.000 HD
ENDBRANCH  33  35
ENDBRANCH  32  33
ENDBRANCH  29  32
ENDBRANCH   3  26
BRANCH   1  38
ATOM     37  C   UNL     1       2.111  10.895  17.843  0.00  0.00    +0.000 C 
ATOM     38  O   UNL     1       1.281   9.771  18.119  0.00  0.00    +0.000 OA
ENDBRANCH   1  38
TORSDOF 8
ENDMDL
MODEL 3
REMARK VINA RESULT:      -8.4      2.052      2.722
REMARK  Name = 
REMARK  11 active torsions:
REMARK  status: ('A' for Active; 'I' for Inactive)
REMARK    1  A    between atoms: C_1  and  O_2
REMARK    2  A    between atoms: O_2  and  C_3
REMARK    3  A    between atoms: C_5  and  N_6
REMARK    4  A    between atoms: N_9  and  C_10
REMARK    5  A    between atoms: C_10  and  C_11
REMARK    6  A    between atoms: C_11  and  C_12
REMARK    7  A    between atoms: C_11  and  O_13
REMARK    8  A    between atoms: C_18  and  N_19
REMARK    9  A    between atoms: C_26  and  C_27
REMARK   10  A    between atoms: C_32  and  O_33
REMARK   11  A    between atoms: O_33  and  C_34
REMARK                            x       y       z     vdW  Elec       q    Type
REMARK                         _______ _______ _______ _____ _____    ______ ____
ROOT
ATOM      1  C   UNL     1       0.837   9.734  20.734  0.00  0.00    +0.000 A 
ATOM      2  C   UNL     1      -0.264  10.601  20.878  0.00  0.00    +0.000 A 
ATOM      3  C   UNL     1      -1.054  11.003  19.789  0.00  0.00    +0.000 A 
ATOM      4  C   UNL     1      -0.638  10.593  18.526  0.00  0.00    +0.000 A 
ATOM      5  C   UNL     1       0.481   9.777  18.367  0.00  0.00    +0.000 A 
ATOM      6  C   UNL     1       1.180   9.247  19.459  0.00  0.00    +0.000 A 
ENDROOT
BRANCH   6   7
ATOM      7  N   UNL     1       2.237   8.332  19.255  0.00  0.00    +0.000 N 
ATOM      8  C   UNL     1       2.273   6.996  19.558  0.00  0.00    +0.000 A 
ATOM      9  N   UNL     1       1.420   6.489  20.509  0.00  0.00    +0.000 NA
ATOM     10  C   UNL     1       1.517   5.256  20.861  0.00  0.00    +0.000 A 
ATOM     11  C   UNL     1       2.499   4.433  20.271  0.00  0.00    +0.000 A 
ATOM     12  C   UNL     1       2.891   3.142  20.502  0.00  0.00    +0.000 A 
ATOM     13  C   UNL     1       3.976   2.906  19.630  0.00  0.00    +0.000 A 
ATOM     14  C   UNL     1       4.150   4.019  18.810  0.00  0.00    +0.000 A 
ATOM     15  N   UNL     1       3.272   4.986  19.298  0.00  0.00    +0.000 N 
ATOM     16  N   UNL     1       3.186   6.286  18.943  0.00  0.00    +0.000 NA
ATOM     17  H   UNL     1       3.136   8.752  19.447  0.00  0.00    +0.000 HD
BRANCH  14  18
ATOM     18  C   UNL     1       5.095   4.209  17.687  0.00  0.00    +0.000 A 
ATOM     19  C   UNL     1       4.624   4.095  16.364  0.00  0.00    +0.000 A 
ATOM     20  C   UNL     1       5.446   4.327  15.258  0.00  0.00    +0.000 A 
ATOM     21  C   UNL     1       6.767   4.704  15.448  0.00  0.00    +0.000 A 
ATOM     22  C   UNL     1       7.264   4.837  16.742  0.00  0.00    +0.000 A 
ATOM     23  C   UNL     1       6.450   4.572  17.859  0.00  0.00    +0.000 A 
BRANCH  23  24
ATOM     24  O   UNL     1       7.048   4.828  19.069  0.00  0.00    +0.000 OA
ATOM     25  C   UNL     1       7.882   5.985  19.071  0.00  0.00    +0.000 C 
ENDBRANCH  23  24
ENDBRANCH  14  18
ENDBRANCH   6   7
BRANCH   3  26
ATOM     26  N   UNL     1      -2.233  11.697  19.977  0.00  0.00    +0.000 N 
ATOM     27  C   UNL     1      -3.085  12.039  18.829  0.00  0.00    +0.000 C 
ATOM     28  C   UNL     1      -4.564  12.023  19.280  0.00  0.00    +0.000 C 
ATOM     29  N   UNL     1      -4.871  12.919  20.421  0.00  0.00    +0.000 NA
ATOM     30  C   UNL     1      -3.945  12.568  21.535  0.00  0.00    +0.000 C 
ATOM     31  C   UNL     1      -2.436  12.523  21.174  0.00  0.00    +0.000 C 
BRANCH  29  32
ATOM     32  C   UNL     1      -4.773  14.350  20.077  0.00  0.00    +0.000 C 
BRANCH  32  33
ATOM     33  C   UNL     1      -6.110  15.048  19.704  0.00  0.00    +0.000 C 
ATOM     34  C   UNL     1      -7.300  14.242  20.211  0.00  0.00    +0.000 C 
BRANCH  33  35
ATOM     35  O   UNL     1      -6.252  15.202  18.292  0.00  0.00    +0.000 OA
ATOM     36  H   UNL     1      -6.295  14.315  17.899  0.00  0.00    +0.000 HD
ENDBRANCH  33  35
ENDBRANCH  32  33
ENDBRANCH  29  32
ENDBRANCH   3  26
BRANCH   1  38
ATOM     37  C   UNL     1       0.576   9.411  23.098  0.00  0.00    +0.000 C 
ATOM     38  O   UNL     1       1.395   9.359  21.935  0.00  0.00    +0.000 OA
ENDBRANCH   1  38
TORSDOF 8
ENDMDL
MODEL 4
REMARK VINA RESULT:      -8.4      2.039      2.835
REMARK  Name = 
REMARK  11 active torsions:
REMARK  status: ('A' for Active; 'I' for Inactive)
REMARK    1  A    between atoms: C_1  and  O_2
REMARK    2  A    between atoms: O_2  and  C_3
REMARK    3  A    between atoms: C_5  and  N_6
REMARK    4  A    between atoms: N_9  and  C_10
REMARK    5  A    between atoms: C_10  and  C_11
REMARK    6  A    between atoms: C_11  and  C_12
REMARK    7  A    between atoms: C_11  and  O_13
REMARK    8  A    between atoms: C_18  and  N_19
REMARK    9  A    between atoms: C_26  and  C_27
REMARK   10  A    between atoms: C_32  and  O_33
REMARK   11  A    between atoms: O_33  and  C_34
REMARK                            x       y       z     vdW  Elec       q    Type
REMARK                         _______ _______ _______ _____ _____    ______ ____
ROOT
ATOM      1  C   UNL     1       0.927   9.540  20.630  0.00  0.00    +0.000 A 
ATOM      2  C   UNL     1      -0.174  10.406  20.774  0.00  0.00    +0.000 A 
ATOM      3  C   UNL     1      -0.927  10.856  19.678  0.00  0.00    +0.000 A 
ATOM      4  C   UNL     1      -0.472  10.497  18.413  0.00  0.00    +0.000 A 
ATOM      5  C   UNL     1       0.648   9.682  18.256  0.00  0.00    +0.000 A 
ATOM      6  C   UNL     1       1.310   9.103  19.347  0.00  0.00    +0.000 A 
ENDROOT
BRANCH   6   7
ATOM      7  N   UNL     1       2.369   8.192  19.140  0.00  0.00    +0.000 N 
ATOM      8  C   UNL     1       2.405   6.854  19.430  0.00  0.00    +0.000 A 
ATOM      9  N   UNL     1       1.549   6.337  20.373  0.00  0.00    +0.000 NA
ATOM     10  C   UNL     1       1.647   5.101  20.715  0.00  0.00    +0.000 A 
ATOM     11  C   UNL     1       2.632   4.284  20.122  0.00  0.00    +0.000 A 
ATOM     12  C   UNL     1       3.026   2.992  20.342  0.00  0.00    +0.000 A 
ATOM     13  C   UNL     1       4.115   2.766  19.474  0.00  0.00    +0.000 A 
ATOM     14  C   UNL     1       4.290   3.886  18.664  0.00  0.00    +0.000 A 
ATOM     15  N   UNL     1       3.409   4.847  19.158  0.00  0.00    +0.000 N 
ATOM     16  N   UNL     1       3.322   6.150  18.813  0.00  0.00    +0.000 NA
ATOM     17  H   UNL     1       3.267   8.611  19.339  0.00  0.00    +0.000 HD
BRANCH  14  18
ATOM     18  C   UNL     1       5.240   4.087  17.547  0.00  0.00    +0.000 A 
ATOM     19  C   UNL     1       4.788   3.928  16.222  0.00  0.00    +0.000 A 
ATOM     20  C   UNL     1       5.613   4.167  15.120  0.00  0.00    +0.000 A 
ATOM     21  C   UNL     1       6.916   4.597  15.315  0.00  0.00    +0.000 A 
ATOM     22  C   UNL     1       7.394   4.776  16.611  0.00  0.00    +0.000 A 
ATOM     23  C   UNL     1       6.578   4.505  17.724  0.00  0.00    +0.000 A 
BRANCH  23  24
ATOM     24  O   UNL     1       7.153   4.810  18.935  0.00  0.00    +0.000 OA
ATOM     25  C   UNL     1       7.857   6.050  18.948  0.00  0.00    +0.000 C 
ENDBRANCH  23  24
ENDBRANCH  14  18
ENDBRANCH   6   7
BRANCH   3  26
ATOM     26  N   UNL     1      -2.108  11.549  19.857  0.00  0.00    +0.000 N 
ATOM     27  C   UNL     1      -2.286  12.425  21.024  0.00  0.00    +0.000 C 
ATOM     28  C   UNL     1      -3.187  13.617  20.623  0.00  0.00    +0.000 C 
ATOM     29  N   UNL     1      -4.509  13.234  20.073  0.00  0.00    +0.000 NA
ATOM     30  C   UNL     1      -4.274  12.305  18.931  0.00  0.00    +0.000 C 
ATOM     31  C   UNL     1      -3.351  11.091  19.224  0.00  0.00    +0.000 C 
BRANCH  29  32
ATOM     32  C   UNL     1      -5.401  12.627  21.079  0.00  0.00    +0.000 C 
BRANCH  32  33
ATOM     33  C   UNL     1      -6.769  12.117  20.548  0.00  0.00    +0.000 C 
ATOM     34  C   UNL     1      -7.916  12.915  21.155  0.00  0.00    +0.000 C 
BRANCH  33  35
ATOM     35  O   UNL     1      -6.978  10.739  20.858  0.00  0.00    +0.000 OA
ATOM     36  H   UNL     1      -6.879  10.231  20.035  0.00  0.00    +0.000 HD
ENDBRANCH  33  35
ENDBRANCH  32  33
ENDBRANCH  29  32
ENDBRANCH   3  26
BRANCH   1  38
ATOM     37  C   UNL     1       0.685   9.354  23.011  0.00  0.00    +0.000 C 
ATOM     38  O   UNL     1       1.444   9.112  21.832  0.00  0.00    +0.000 OA
ENDBRANCH   1  38
TORSDOF 8
ENDMDL
MODEL 5
REMARK VINA RESULT:      -8.3      0.940      1.176
REMARK  Name = 
REMARK  11 active torsions:
REMARK  status: ('A' for Active; 'I' for Inactive)
REMARK    1  A    between atoms: C_1  and  O_2
REMARK    2  A    between atoms: O_2  and  C_3
REMARK    3  A    between atoms: C_5  and  N_6
REMARK    4  A    between atoms: N_9  and  C_10
REMARK    5  A    between atoms: C_10  and  C_11
REMARK    6  A    between atoms: C_11  and  C_12
REMARK    7  A    between atoms: C_11  and  O_13
REMARK    8  A    between atoms: C_18  and  N_19
REMARK    9  A    between atoms: C_26  and  C_27
REMARK   10  A    between atoms: C_32  and  O_33
REMARK   11  A    between atoms: O_33  and  C_34
REMARK                            x       y       z     vdW  Elec       q    Type
REMARK                         _______ _______ _______ _____ _____    ______ ____
ROOT
ATOM      1  C   UNL     1       0.927   9.707  19.380  0.00  0.00    +0.000 A 
ATOM      2  C   UNL     1      -0.031  10.646  19.811  0.00  0.00    +0.000 A 
ATOM      3  C   UNL     1      -0.578  10.625  21.104  0.00  0.00    +0.000 A 
ATOM      4  C   UNL     1      -0.215   9.561  21.923  0.00  0.00    +0.000 A 
ATOM      5  C   UNL     1       0.693   8.597  21.489  0.00  0.00    +0.000 A 
ATOM      6  C   UNL     1       1.360   8.697  20.261  0.00  0.00    +0.000 A 
ENDROOT
BRANCH   6   7
ATOM      7  N   UNL     1       2.356   7.760  19.909  0.00  0.00    +0.000 N 
ATOM      8  C   UNL     1       2.245   6.398  19.817  0.00  0.00    +0.000 A 
ATOM      9  N   UNL     1       1.240   5.748  20.493  0.00  0.00    +0.000 NA
ATOM     10  C   UNL     1       1.191   4.463  20.484  0.00  0.00    +0.000 A 
ATOM     11  C   UNL     1       2.170   3.729  19.783  0.00  0.00    +0.000 A 
ATOM     12  C   UNL     1       2.425   2.388  19.670  0.00  0.00    +0.000 A 
ATOM     13  C   UNL     1       3.589   2.280  18.880  0.00  0.00    +0.000 A 
ATOM     14  C   UNL     1       3.955   3.549  18.435  0.00  0.00    +0.000 A 
ATOM     15  N   UNL     1       3.103   4.436  19.091  0.00  0.00    +0.000 N 
ATOM     16  N   UNL     1       3.168   5.786  19.117  0.00  0.00    +0.000 NA
ATOM     17  H   UNL     1       3.255   8.006  20.301  0.00  0.00    +0.000 HD
BRANCH  14  18
ATOM     18  C   UNL     1       5.048   3.933  17.514  0.00  0.00    +0.000 A 
ATOM     19  C   UNL     1       4.825   3.884  16.124  0.00  0.00    +0.000 A 
ATOM     20  C   UNL     1       5.790   4.294  15.200  0.00  0.00    +0.000 A 
ATOM     21  C   UNL     1       7.005   4.790  15.646  0.00  0.00    +0.000 A 
ATOM     22  C   UNL     1       7.256   4.864  17.015  0.00  0.00    +0.000 A 
ATOM     23  C   UNL     1       6.301   4.421  17.948  0.00  0.00    +0.000 A 
BRANCH  23  24
ATOM     24  O   UNL     1       6.651   4.634  19.260  0.00  0.00    +0.000 OA
ATOM     25  C   UNL     1       7.523   5.745  19.455  0.00  0.00    +0.000 C 
ENDBRANCH  23  24
ENDBRANCH  14  18
ENDBRANCH   6   7
BRANCH   3  26
ATOM     26  N   UNL     1      -1.369  11.660  21.563  0.00  0.00    +0.000 N 
ATOM     27  C   UNL     1      -2.314  12.331  20.657  0.00  0.00    +0.000 C 
ATOM     28  C   UNL     1      -3.551  12.782  21.468  0.00  0.00    +0.000 C 
ATOM     29  N   UNL     1      -3.246  13.662  22.622  0.00  0.00    +0.000 NA
ATOM     30  C   UNL     1      -2.246  12.960  23.475  0.00  0.00    +0.000 C 
ATOM     31  C   UNL     1      -0.979  12.437  22.746  0.00  0.00    +0.000 C 
BRANCH  29  32
ATOM     32  C   UNL     1      -2.761  14.996  22.221  0.00  0.00    +0.000 C 
BRANCH  32  33
ATOM     33  C   UNL     1      -3.737  15.835  21.350  0.00  0.00    +0.000 C 
ATOM     34  C   UNL     1      -3.110  17.169  20.967  0.00  0.00    +0.000 C 
BRANCH  33  35
ATOM     35  O   UNL     1      -4.961  16.103  22.034  0.00  0.00    +0.000 OA
ATOM     36  H   UNL     1      -5.544  15.335  21.914  0.00  0.00    +0.000 HD
ENDBRANCH  33  35
ENDBRANCH  32  33
ENDBRANCH  29  32
ENDBRANCH   3  26
BRANCH   1  38
ATOM     37  C   UNL     1       2.194  11.170  17.961  0.00  0.00    +0.000 C 
ATOM     38  O   UNL     1       1.433   9.979  18.130  0.00  0.00    +0.000 OA
ENDBRANCH   1  38
TORSDOF 8
ENDMDL
MODEL 6
REMARK VINA RESULT:      -8.3      2.117     11.572
REMARK  Name = 
REMARK  11 active torsions:
REMARK  status: ('A' for Active; 'I' for Inactive)
REMARK    1  A    between atoms: C_1  and  O_2
REMARK    2  A    between atoms: O_2  and  C_3
REMARK    3  A    between atoms: C_5  and  N_6
REMARK    4  A    between atoms: N_9  and  C_10
REMARK    5  A    between atoms: C_10  and  C_11
REMARK    6  A    between atoms: C_11  and  C_12
REMARK    7  A    between atoms: C_11  and  O_13
REMARK    8  A    between atoms: C_18  and  N_19
REMARK    9  A    between atoms: C_26  and  C_27
REMARK   10  A    between atoms: C_32  and  O_33
REMARK   11  A    between atoms: O_33  and  C_34
REMARK                            x       y       z     vdW  Elec       q    Type
REMARK                         _______ _______ _______ _____ _____    ______ ____
ROOT
ATOM      1  C   UNL     1       1.094   8.682  20.184  0.00  0.00    +0.000 A 
ATOM      2  C   UNL     1       1.914   7.612  19.779  0.00  0.00    +0.000 A 
ATOM      3  C   UNL     1       2.545   7.578  18.525  0.00  0.00    +0.000 A 
ATOM      4  C   UNL     1       2.239   8.608  17.641  0.00  0.00    +0.000 A 
ATOM      5  C   UNL     1       1.388   9.646  18.012  0.00  0.00    +0.000 A 
ATOM      6  C   UNL     1       0.879   9.767  19.312  0.00  0.00    +0.000 A 
ENDROOT
BRANCH   6   7
ATOM      7  N   UNL     1       0.113  10.895  19.679  0.00  0.00    +0.000 N 
ATOM      8  C   UNL     1      -1.220  11.123  19.460  0.00  0.00    +0.000 A 
ATOM      9  N   UNL     1      -1.872  10.448  18.455  0.00  0.00    +0.000 NA
ATOM     10  C   UNL     1      -3.097  10.731  18.187  0.00  0.00    +0.000 A 
ATOM     11  C   UNL     1      -3.765  11.730  18.924  0.00  0.00    +0.000 A 
ATOM     12  C   UNL     1      -5.006  12.297  18.812  0.00  0.00    +0.000 A 
ATOM     13  C   UNL     1      -5.066  13.297  19.806  0.00  0.00    +0.000 A 
ATOM     14  C   UNL     1      -3.905  13.244  20.574  0.00  0.00    +0.000 A 
ATOM     15  N   UNL     1      -3.078  12.318  19.940  0.00  0.00    +0.000 N 
ATOM     16  N   UNL     1      -1.783  12.039  20.209  0.00  0.00    +0.000 NA
ATOM     17  H   UNL     1       0.632  11.754  19.560  0.00  0.00    +0.000 HD
BRANCH  14  18
ATOM     18  C   UNL     1      -3.549  14.029  21.778  0.00  0.00    +0.000 A 
ATOM     19  C   UNL     1      -3.098  15.355  21.627  0.00  0.00    +0.000 A 
ATOM     20  C   UNL     1      -2.809  16.172  22.723  0.00  0.00    +0.000 A 
ATOM     21  C   UNL     1      -2.986  15.688  24.010  0.00  0.00    +0.000 A 
ATOM     22  C   UNL     1      -3.441  14.385  24.197  0.00  0.00    +0.000 A 
ATOM     23  C   UNL     1      -3.702  13.547  23.098  0.00  0.00    +0.000 A 
BRANCH  23  24
ATOM     24  O   UNL     1      -4.226  12.322  23.432  0.00  0.00    +0.000 OA
ATOM     25  C   UNL     1      -4.724  12.247  24.766  0.00  0.00    +0.000 C 
ENDBRANCH  23  24
ENDBRANCH  14  18
ENDBRANCH   6   7
BRANCH   3  26
ATOM     26  N   UNL     1       3.489   6.616  18.224  0.00  0.00    +0.000 N 
ATOM     27  C   UNL     1       4.651   6.951  17.387  0.00  0.00    +0.000 C 
ATOM     28  C   UNL     1       5.860   6.104  17.847  0.00  0.00    +0.000 C 
ATOM     29  N   UNL     1       5.631   4.639  17.830  0.00  0.00    +0.000 NA
ATOM     30  C   UNL     1       4.414   4.361  18.644  0.00  0.00    +0.000 C 
ATOM     31  C   UNL     1       3.151   5.188  18.281  0.00  0.00    +0.000 C 
BRANCH  29  32
ATOM     32  C   UNL     1       5.498   4.090  16.467  0.00  0.00    +0.000 C 
BRANCH  32  33
ATOM     33  C   UNL     1       6.469   4.675  15.406  0.00  0.00    +0.000 C 
ATOM     34  C   UNL     1       6.304   3.962  14.070  0.00  0.00    +0.000 C 
BRANCH  33  35
ATOM     35  O   UNL     1       7.833   4.547  15.808  0.00  0.00    +0.000 OA
ATOM     36  H   UNL     1       8.266   3.927  15.197  0.00  0.00    +0.000 HD
ENDBRANCH  33  35
ENDBRANCH  32  33
ENDBRANCH  29  32
ENDBRANCH   3  26
BRANCH   1  38
ATOM     37  C   UNL     1       1.435   9.273  22.485  0.00  0.00    +0.000 C 
ATOM     38  O   UNL     1       0.680   8.586  21.493  0.00  0.00    +0.000 OA
ENDBRANCH   1  38
TORSDOF 8
ENDMDL
MODEL 7
REMARK VINA RESULT:      -8.1      2.097     11.220
REMARK  Name = 
REMARK  11 active torsions:
REMARK  status: ('A' for Active; 'I' for Inactive)
REMARK    1  A    between atoms: C_1  and  O_2
REMARK    2  A    between atoms: O_2  and  C_3
REMARK    3  A    between atoms: C_5  and  N_6
REMARK    4  A    between atoms: N_9  and  C_10
REMARK    5  A    between atoms: C_10  and  C_11
REMARK    6  A    between atoms: C_11  and  C_12
REMARK    7  A    between atoms: C_11  and  O_13
REMARK    8  A    between atoms: C_18  and  N_19
REMARK    9  A    between atoms: C_26  and  C_27
REMARK   10  A    between atoms: C_32  and  O_33
REMARK   11  A    between atoms: O_33  and  C_34
REMARK                            x       y       z     vdW  Elec       q    Type
REMARK                         _______ _______ _______ _____ _____    ______ ____
ROOT
ATOM      1  C   UNL     1       1.304   8.464  20.027  0.00  0.00    +0.000 A 
ATOM      2  C   UNL     1       2.152   7.396  19.673  0.00  0.00    +0.000 A 
ATOM      3  C   UNL     1       2.875   7.374  18.470  0.00  0.00    +0.000 A 
ATOM      4  C   UNL     1       2.637   8.413  17.575  0.00  0.00    +0.000 A 
ATOM      5  C   UNL     1       1.761   9.449  17.892  0.00  0.00    +0.000 A 
ATOM      6  C   UNL     1       1.156   9.557  19.152  0.00  0.00    +0.000 A 
ENDROOT
BRANCH   6   7
ATOM      7  N   UNL     1       0.366  10.683  19.472  0.00  0.00    +0.000 N 
ATOM      8  C   UNL     1      -0.974  10.868  19.256  0.00  0.00    +0.000 A 
ATOM      9  N   UNL     1      -1.617  10.130  18.291  0.00  0.00    +0.000 NA
ATOM     10  C   UNL     1      -2.852  10.370  18.021  0.00  0.00    +0.000 A 
ATOM     11  C   UNL     1      -3.537  11.387  18.717  0.00  0.00    +0.000 A 
ATOM     12  C   UNL     1      -4.793  11.918  18.590  0.00  0.00    +0.000 A 
ATOM     13  C   UNL     1      -4.869  12.963  19.535  0.00  0.00    +0.000 A 
ATOM     14  C   UNL     1      -3.700  12.975  20.294  0.00  0.00    +0.000 A 
ATOM     15  N   UNL     1      -2.856  12.040  19.696  0.00  0.00    +0.000 N 
ATOM     16  N   UNL     1      -1.553  11.805  19.966  0.00  0.00    +0.000 NA
ATOM     17  H   UNL     1       0.863  11.547  19.308  0.00  0.00    +0.000 HD
BRANCH  14  18
ATOM     18  C   UNL     1      -3.353  13.824  21.456  0.00  0.00    +0.000 A 
ATOM     19  C   UNL     1      -2.703  15.054  21.239  0.00  0.00    +0.000 A 
ATOM     20  C   UNL     1      -2.406  15.934  22.283  0.00  0.00    +0.000 A 
ATOM     21  C   UNL     1      -2.776  15.614  23.580  0.00  0.00    +0.000 A 
ATOM     22  C   UNL     1      -3.431  14.410  23.831  0.00  0.00    +0.000 A 
ATOM     23  C   UNL     1      -3.702  13.506  22.788  0.00  0.00    +0.000 A 
BRANCH  23  24
ATOM     24  O   UNL     1      -4.429  12.404  23.169  0.00  0.00    +0.000 OA
ATOM     25  C   UNL     1      -4.596  12.278  24.580  0.00  0.00    +0.000 C 
ENDBRANCH  23  24
ENDBRANCH  14  18
ENDBRANCH   6   7
BRANCH   3  26
ATOM     26  N   UNL     1       3.837   6.413  18.230  0.00  0.00    +0.000 N 
ATOM     27  C   UNL     1       4.573   5.804  19.348  0.00  0.00    +0.000 C 
ATOM     28  C   UNL     1       4.908   4.337  18.986  0.00  0.00    +0.000 C 
ATOM     29  N   UNL     1       5.673   4.171  17.727  0.00  0.00    +0.000 NA
ATOM     30  C   UNL     1       4.914   4.853  16.641  0.00  0.00    +0.000 C 
ATOM     31  C   UNL     1       4.500   6.323  16.923  0.00  0.00    +0.000 C 
BRANCH  29  32
ATOM     32  C   UNL     1       7.053   4.685  17.816  0.00  0.00    +0.000 C 
BRANCH  32  33
ATOM     33  C   UNL     1       7.305   5.755  18.913  0.00  0.00    +0.000 C 
ATOM     34  C   UNL     1       7.908   7.017  18.309  0.00  0.00    +0.000 C 
BRANCH  33  35
ATOM     35  O   UNL     1       8.195   5.281  19.923  0.00  0.00    +0.000 OA
ATOM     36  H   UNL     1       8.892   5.948  20.042  0.00  0.00    +0.000 HD
ENDBRANCH  33  35
ENDBRANCH  32  33
ENDBRANCH  29  32
ENDBRANCH   3  26
BRANCH   1  38
ATOM     37  C   UNL     1       1.399   9.127  22.332  0.00  0.00    +0.000 C 
ATOM     38  O   UNL     1       0.794   8.355  21.300  0.00  0.00    +0.000 OA
ENDBRANCH   1  38
TORSDOF 8
ENDMDL
MODEL 8
REMARK VINA RESULT:      -8.0      2.258     11.107
REMARK  Name = 
REMARK  11 active torsions:
REMARK  status: ('A' for Active; 'I' for Inactive)
REMARK    1  A    between atoms: C_1  and  O_2
REMARK    2  A    between atoms: O_2  and  C_3
REMARK    3  A    between atoms: C_5  and  N_6
REMARK    4  A    between atoms: N_9  and  C_10
REMARK    5  A    between atoms: C_10  and  C_11
REMARK    6  A    between atoms: C_11  and  C_12
REMARK    7  A    between atoms: C_11  and  O_13
REMARK    8  A    between atoms: C_18  and  N_19
REMARK    9  A    between atoms: C_26  and  C_27
REMARK   10  A    between atoms: C_32  and  O_33
REMARK   11  A    between atoms: O_33  and  C_34
REMARK                            x       y       z     vdW  Elec       q    Type
REMARK                         _______ _______ _______ _____ _____    ______ ____
ROOT
ATOM      1  C   UNL     1       1.383   8.314  20.035  0.00  0.00    +0.000 A 
ATOM      2  C   UNL     1       2.270   7.291  19.644  0.00  0.00    +0.000 A 
ATOM      3  C   UNL     1       2.960   7.317  18.422  0.00  0.00    +0.000 A 
ATOM      4  C   UNL     1       2.650   8.355  17.549  0.00  0.00    +0.000 A 
ATOM      5  C   UNL     1       1.737   9.346  17.903  0.00  0.00    +0.000 A 
ATOM      6  C   UNL     1       1.162   9.410  19.180  0.00  0.00    +0.000 A 
ENDROOT
BRANCH   6   7
ATOM      7  N   UNL     1       0.330  10.494  19.536  0.00  0.00    +0.000 N 
ATOM      8  C   UNL     1      -0.979  10.708  19.191  0.00  0.00    +0.000 A 
ATOM      9  N   UNL     1      -1.501  10.090  18.079  0.00  0.00    +0.000 NA
ATOM     10  C   UNL     1      -2.699  10.364  17.700  0.00  0.00    +0.000 A 
ATOM     11  C   UNL     1      -3.469  11.296  18.426  0.00  0.00    +0.000 A 
ATOM     12  C   UNL     1      -4.706  11.843  18.219  0.00  0.00    +0.000 A 
ATOM     13  C   UNL     1      -4.899  12.771  19.264  0.00  0.00    +0.000 A 
ATOM     14  C   UNL     1      -3.825  12.690  20.147  0.00  0.00    +0.000 A 
ATOM     15  N   UNL     1      -2.910  11.828  19.546  0.00  0.00    +0.000 N 
ATOM     16  N   UNL     1      -1.644  11.558  19.933  0.00  0.00    +0.000 NA
ATOM     17  H   UNL     1       0.834  11.370  19.530  0.00  0.00    +0.000 HD
BRANCH  14  18
ATOM     18  C   UNL     1      -3.621  13.397  21.432  0.00  0.00    +0.000 A 
ATOM     19  C   UNL     1      -4.090  12.809  22.623  0.00  0.00    +0.000 A 
ATOM     20  C   UNL     1      -3.873  13.389  23.876  0.00  0.00    +0.000 A 
ATOM     21  C   UNL     1      -3.156  14.571  23.973  0.00  0.00    +0.000 A 
ATOM     22  C   UNL     1      -2.667  15.176  22.816  0.00  0.00    +0.000 A 
ATOM     23  C   UNL     1      -2.912  14.613  21.550  0.00  0.00    +0.000 A 
BRANCH  23  24
ATOM     24  O   UNL     1      -2.297  15.270  20.512  0.00  0.00    +0.000 OA
ATOM     25  C   UNL     1      -0.878  15.127  20.493  0.00  0.00    +0.000 C 
ENDBRANCH  23  24
ENDBRANCH  14  18
ENDBRANCH   6   7
BRANCH   3  26
ATOM     26  N   UNL     1       3.959   6.405  18.144  0.00  0.00    +0.000 N 
ATOM     27  C   UNL     1       4.670   5.726  19.237  0.00  0.00    +0.000 C 
ATOM     28  C   UNL     1       5.061   4.304  18.773  0.00  0.00    +0.000 C 
ATOM     29  N   UNL     1       5.878   4.261  17.535  0.00  0.00    +0.000 NA
ATOM     30  C   UNL     1       5.139   5.008  16.479  0.00  0.00    +0.000 C 
ATOM     31  C   UNL     1       4.672   6.439  16.861  0.00  0.00    +0.000 C 
BRANCH  29  32
ATOM     32  C   UNL     1       7.238   4.802  17.720  0.00  0.00    +0.000 C 
BRANCH  32  33
ATOM     33  C   UNL     1       7.414   5.794  18.902  0.00  0.00    +0.000 C 
ATOM     34  C   UNL     1       7.993   7.117  18.416  0.00  0.00    +0.000 C 
BRANCH  33  35
ATOM     35  O   UNL     1       8.285   5.275  19.906  0.00  0.00    +0.000 OA
ATOM     36  H   UNL     1       8.940   5.962  20.116  0.00  0.00    +0.000 HD
ENDBRANCH  33  35
ENDBRANCH  32  33
ENDBRANCH  29  32
ENDBRANCH   3  26
BRANCH   1  38
ATOM     37  C   UNL     1       1.362   9.087  22.307  0.00  0.00    +0.000 C 
ATOM     38  O   UNL     1       0.913   8.165  21.320  0.00  0.00    +0.000 OA
ENDBRANCH   1  38
TORSDOF 8
ENDMDL
MODEL 9
REMARK VINA RESULT:      -8.0      2.281     11.609
REMARK  Name = 
REMARK  11 active torsions:
REMARK  status: ('A' for Active; 'I' for Inactive)
REMARK    1  A    between atoms: C_1  and  O_2
REMARK    2  A    between atoms: O_2  and  C_3
REMARK    3  A    between atoms: C_5  and  N_6
REMARK    4  A    between atoms: N_9  and  C_10
REMARK    5  A    between atoms: C_10  and  C_11
REMARK    6  A    between atoms: C_11  and  C_12
REMARK    7  A    between atoms: C_11  and  O_13
REMARK    8  A    between atoms: C_18  and  N_19
REMARK    9  A    between atoms: C_26  and  C_27
REMARK   10  A    between atoms: C_32  and  O_33
REMARK   11  A    between atoms: O_33  and  C_34
REMARK                            x       y       z     vdW  Elec       q    Type
REMARK                         _______ _______ _______ _____ _____    ______ ____
ROOT
ATOM      1  C   UNL     1       1.122   8.588  20.215  0.00  0.00    +0.000 A 
ATOM      2  C   UNL     1       1.976   7.554  19.784  0.00  0.00    +0.000 A 
ATOM      3  C   UNL     1       2.593   7.563  18.523  0.00  0.00    +0.000 A 
ATOM      4  C   UNL     1       2.238   8.593  17.658  0.00  0.00    +0.000 A 
ATOM      5  C   UNL     1       1.354   9.594  18.055  0.00  0.00    +0.000 A 
ATOM      6  C   UNL     1       0.857   9.676  19.362  0.00  0.00    +0.000 A 
ENDROOT
BRANCH   6   7
ATOM      7  N   UNL     1       0.055  10.770  19.755  0.00  0.00    +0.000 N 
ATOM      8  C   UNL     1      -1.259  11.013  19.448  0.00  0.00    +0.000 A 
ATOM      9  N   UNL     1      -1.821  10.420  18.342  0.00  0.00    +0.000 NA
ATOM     10  C   UNL     1      -3.023  10.721  17.999  0.00  0.00    +0.000 A 
ATOM     11  C   UNL     1      -3.756  11.657  18.757  0.00  0.00    +0.000 A 
ATOM     12  C   UNL     1      -4.989  12.229  18.590  0.00  0.00    +0.000 A 
ATOM     13  C   UNL     1      -5.137  13.146  19.653  0.00  0.00    +0.000 A 
ATOM     14  C   UNL     1      -4.042  13.033  20.507  0.00  0.00    +0.000 A 
ATOM     15  N   UNL     1      -3.158  12.162  19.869  0.00  0.00    +0.000 N 
ATOM     16  N   UNL     1      -1.888  11.864  20.219  0.00  0.00    +0.000 NA
ATOM     17  H   UNL     1       0.575  11.636  19.749  0.00  0.00    +0.000 HD
BRANCH  14  18
ATOM     18  C   UNL     1      -3.791  13.718  21.795  0.00  0.00    +0.000 A 
ATOM     19  C   UNL     1      -3.997  13.015  22.999  0.00  0.00    +0.000 A 
ATOM     20  C   UNL     1      -3.716  13.579  24.246  0.00  0.00    +0.000 A 
ATOM     21  C   UNL     1      -3.198  14.862  24.323  0.00  0.00    +0.000 A 
ATOM     22  C   UNL     1      -2.971  15.582  23.152  0.00  0.00    +0.000 A 
ATOM     23  C   UNL     1      -3.282  15.032  21.895  0.00  0.00    +0.000 A 
BRANCH  23  24
ATOM     24  O   UNL     1      -2.925  15.821  20.828  0.00  0.00    +0.000 OA
ATOM     25  C   UNL     1      -3.877  16.834  20.510  0.00  0.00    +0.000 C 
ENDBRANCH  23  24
ENDBRANCH  14  18
ENDBRANCH   6   7
BRANCH   3  26
ATOM     26  N   UNL     1       3.567   6.640  18.196  0.00  0.00    +0.000 N 
ATOM     27  C   UNL     1       4.634   6.992  17.247  0.00  0.00    +0.000 C 
ATOM     28  C   UNL     1       5.928   6.246  17.649  0.00  0.00    +0.000 C 
ATOM     29  N   UNL     1       5.790   4.771  17.731  0.00  0.00    +0.000 NA
ATOM     30  C   UNL     1       4.663   4.472  18.659  0.00  0.00    +0.000 C 
ATOM     31  C   UNL     1       3.325   5.202  18.360  0.00  0.00    +0.000 C 
BRANCH  29  32
ATOM     32  C   UNL     1       5.581   4.135  16.417  0.00  0.00    +0.000 C 
BRANCH  32  33
ATOM     33  C   UNL     1       6.439   4.698  15.251  0.00  0.00    +0.000 C 
ATOM     34  C   UNL     1       6.152   3.948  13.956  0.00  0.00    +0.000 C 
BRANCH  33  35
ATOM     35  O   UNL     1       7.837   4.593  15.520  0.00  0.00    +0.000 OA
ATOM     36  H   UNL     1       7.959   3.895  16.186  0.00  0.00    +0.000 HD
ENDBRANCH  33  35
ENDBRANCH  32  33
ENDBRANCH  29  32
ENDBRANCH   3  26
BRANCH   1  38
ATOM     37  C   UNL     1       1.411   9.227  22.511  0.00  0.00    +0.000 C 
ATOM     38  O   UNL     1       0.728   8.457  21.528  0.00  0.00    +0.000 OA
ENDBRANCH   1  38
TORSDOF 8
ENDMDL
