MODEL 1
REMARK VINA RESULT:      -6.5      0.000      0.000
REMARK  Name = 
REMARK  7 active torsions:
REMARK  status: ('A' for Active; 'I' for Inactive)
REMARK    1  A    between atoms: C_1  and  O_2
REMARK    2  A    between atoms: O_2  and  C_3
REMARK    3  A    between atoms: C_8  and  N_9
REMARK    4  A    between atoms: C_15  and  C_16
REMARK    5  A    between atoms: C_15  and  C_17
REMARK    6  A    between atoms: C_19  and  O_20
REMARK    7  A    between atoms: C_29  and  O_30
REMARK                            x       y       z     vdW  Elec       q    Type
REMARK                         _______ _______ _______ _____ _____    ______ ____
ROOT
ATOM      1  N   UNL     1      -1.006  14.964  20.233  0.00  0.00    +0.000 N 
ATOM      2  C   UNL     1      -0.536  13.660  20.303  0.00  0.00    +0.000 C 
ATOM      3  C   UNL     1      -0.360  13.282  21.578  0.00  0.00    +0.000 C 
ATOM      4  C   UNL     1      -0.428  11.837  21.829  0.00  0.00    +0.000 C 
ATOM      5  O   UNL     1      -0.464  11.426  22.988  0.00  0.00    +0.000 OA
ATOM      6  C   UNL     1      -0.678  10.892  20.622  0.00  0.00    +0.000 C 
ATOM      7  C   UNL     1      -0.168  11.395  19.248  0.00  0.00    +0.000 C 
ATOM      8  C   UNL     1      -0.820  10.626  18.073  0.00  0.00    +0.000 C 
ATOM      9  C   UNL     1       1.356  11.192  19.142  0.00  0.00    +0.000 C 
ATOM     10  C   UNL     1      -0.541  12.868  19.046  0.00  0.00    +0.000 C 
ATOM     11  C   UNL     1      -0.423  14.500  22.528  0.00  0.00    +0.000 C 
ATOM     12  C   UNL     1      -1.165  14.821  23.857  0.00  0.00    +0.000 C 
ATOM     13  O   UNL     1      -0.641  15.043  24.940  0.00  0.00    +0.000 OA
ATOM     14  C   UNL     1      -2.608  14.940  23.628  0.00  0.00    +0.000 A 
ATOM     15  C   UNL     1      -3.486  14.519  24.615  0.00  0.00    +0.000 A 
ATOM     16  C   UNL     1      -4.346  13.501  24.263  0.00  0.00    +0.000 A 
ATOM     17  C   UNL     1      -4.320  13.025  22.937  0.00  0.00    +0.000 A 
ATOM     18  C   UNL     1      -3.553  13.657  21.916  0.00  0.00    +0.000 A 
ATOM     19  C   UNL     1      -2.713  14.717  22.256  0.00  0.00    +0.000 A 
ATOM     20  C   UNL     1      -1.410  15.331  21.614  0.00  0.00    +0.000 C 
ENDROOT
BRANCH   1  26
ATOM     21  C   UNL     1       1.184  15.944  19.366  0.00  0.00    +0.000 A 
ATOM     22  C   UNL     1       1.811  16.745  18.400  0.00  0.00    +0.000 A 
ATOM     23  C   UNL     1       1.070  17.605  17.594  0.00  0.00    +0.000 A 
ATOM     24  C   UNL     1      -0.319  17.656  17.754  0.00  0.00    +0.000 A 
ATOM     25  C   UNL     1      -0.967  16.824  18.676  0.00  0.00    +0.000 A 
ATOM     26  C   UNL     1      -0.248  15.908  19.463  0.00  0.00    +0.000 A 
BRANCH  21  28
ATOM     27  C   UNL     1       3.073  14.517  19.607  0.00  0.00    +0.000 C 
ATOM     28  O   UNL     1       1.945  15.157  20.210  0.00  0.00    +0.000 OA
ENDBRANCH  21  28
ENDBRANCH   1  26
BRANCH  11  29
ATOM     29  O   UNL     1       0.889  15.055  22.695  0.00  0.00    +0.000 OA
ATOM     30  H   UNL     1       0.780  15.694  23.431  0.00  0.00    +0.000 HD
ENDBRANCH  11  29
BRANCH  20  31
ATOM     31  O   UNL     1      -1.396  16.734  21.836  0.00  0.00    +0.000 OA
ATOM     32  H   UNL     1      -1.052  17.100  21.001  0.00  0.00    +0.000 HD
ENDBRANCH  20  31
TORSDOF 4
ENDMDL
MODEL 2
REMARK VINA RESULT:      -6.4      0.749      1.780
REMARK  Name = 
REMARK  7 active torsions:
REMARK  status: ('A' for Active; 'I' for Inactive)
REMARK    1  A    between atoms: C_1  and  O_2
REMARK    2  A    between atoms: O_2  and  C_3
REMARK    3  A    between atoms: C_8  and  N_9
REMARK    4  A    between atoms: C_15  and  C_16
REMARK    5  A    between atoms: C_15  and  C_17
REMARK    6  A    between atoms: C_19  and  O_20
REMARK    7  A    between atoms: C_29  and  O_30
REMARK                            x       y       z     vdW  Elec       q    Type
REMARK                         _______ _______ _______ _____ _____    ______ ____
ROOT
ATOM      1  N   UNL     1      -1.062  14.798  20.192  0.00  0.00    +0.000 N 
ATOM      2  C   UNL     1      -0.612  13.489  20.302  0.00  0.00    +0.000 C 
ATOM      3  C   UNL     1      -0.422  13.155  21.588  0.00  0.00    +0.000 C 
ATOM      4  C   UNL     1      -0.508  11.721  21.891  0.00  0.00    +0.000 C 
ATOM      5  O   UNL     1      -0.533  11.353  23.065  0.00  0.00    +0.000 OA
ATOM      6  C   UNL     1      -0.791  10.737  20.723  0.00  0.00    +0.000 C 
ATOM      7  C   UNL     1      -0.295  11.182  19.325  0.00  0.00    +0.000 C 
ATOM      8  C   UNL     1      -0.976  10.381  18.189  0.00  0.00    +0.000 C 
ATOM      9  C   UNL     1       1.225  10.951  19.204  0.00  0.00    +0.000 C 
ATOM     10  C   UNL     1      -0.648  12.653  19.075  0.00  0.00    +0.000 C 
ATOM     11  C   UNL     1      -0.451  14.408  22.493  0.00  0.00    +0.000 C 
ATOM     12  C   UNL     1      -1.167  14.788  23.821  0.00  0.00    +0.000 C 
ATOM     13  O   UNL     1      -0.624  15.041  24.887  0.00  0.00    +0.000 OA
ATOM     14  C   UNL     1      -2.612  14.922  23.608  0.00  0.00    +0.000 A 
ATOM     15  C   UNL     1      -3.481  14.551  24.623  0.00  0.00    +0.000 A 
ATOM     16  C   UNL     1      -4.362  13.534  24.321  0.00  0.00    +0.000 A 
ATOM     17  C   UNL     1      -4.363  13.011  23.013  0.00  0.00    +0.000 A 
ATOM     18  C   UNL     1      -3.603  13.593  21.959  0.00  0.00    +0.000 A 
ATOM     19  C   UNL     1      -2.741  14.651  22.247  0.00  0.00    +0.000 A 
ATOM     20  C   UNL     1      -1.439  15.220  21.564  0.00  0.00    +0.000 C 
ENDROOT
BRANCH   1  26
ATOM     21  C   UNL     1      -0.776  16.950  18.853  0.00  0.00    +0.000 A 
ATOM     22  C   UNL     1       0.117  17.866  18.278  0.00  0.00    +0.000 A 
ATOM     23  C   UNL     1       1.458  17.540  18.100  0.00  0.00    +0.000 A 
ATOM     24  C   UNL     1       1.911  16.280  18.509  0.00  0.00    +0.000 A 
ATOM     25  C   UNL     1       1.044  15.375  19.134  0.00  0.00    +0.000 A 
ATOM     26  C   UNL     1      -0.301  15.701  19.376  0.00  0.00    +0.000 A 
BRANCH  21  28
ATOM     27  C   UNL     1      -2.471  18.599  18.576  0.00  0.00    +0.000 C 
ATOM     28  O   UNL     1      -2.119  17.263  18.949  0.00  0.00    +0.000 OA
ENDBRANCH  21  28
ENDBRANCH   1  26
BRANCH  11  29
ATOM     29  O   UNL     1       0.871  14.947  22.620  0.00  0.00    +0.000 OA
ATOM     30  H   UNL     1       0.928  15.601  21.891  0.00  0.00    +0.000 HD
ENDBRANCH  11  29
BRANCH  20  31
ATOM     31  O   UNL     1      -1.400  16.630  21.735  0.00  0.00    +0.000 OA
ATOM     32  H   UNL     1      -1.772  16.977  20.903  0.00  0.00    +0.000 HD
ENDBRANCH  20  31
TORSDOF 4
ENDMDL
MODEL 3
REMARK VINA RESULT:      -6.4      1.821      5.477
REMARK  Name = 
REMARK  7 active torsions:
REMARK  status: ('A' for Active; 'I' for Inactive)
REMARK    1  A    between atoms: C_1  and  O_2
REMARK    2  A    between atoms: O_2  and  C_3
REMARK    3  A    between atoms: C_8  and  N_9
REMARK    4  A    between atoms: C_15  and  C_16
REMARK    5  A    between atoms: C_15  and  C_17
REMARK    6  A    between atoms: C_19  and  O_20
REMARK    7  A    between atoms: C_29  and  O_30
REMARK                            x       y       z     vdW  Elec       q    Type
REMARK                         _______ _______ _______ _____ _____    ______ ____
ROOT
ATOM      1  N   UNL     1      -0.834  12.604  20.799  0.00  0.00    +0.000 N 
ATOM      2  C   UNL     1      -2.058  13.176  21.116  0.00  0.00    +0.000 C 
ATOM      3  C   UNL     1      -1.889  14.316  21.804  0.00  0.00    +0.000 C 
ATOM      4  C   UNL     1      -2.989  15.284  21.711  0.00  0.00    +0.000 C 
ATOM      5  O   UNL     1      -2.832  16.421  22.154  0.00  0.00    +0.000 OA
ATOM      6  C   UNL     1      -4.230  14.908  20.855  0.00  0.00    +0.000 C 
ATOM      7  C   UNL     1      -4.547  13.396  20.746  0.00  0.00    +0.000 C 
ATOM      8  C   UNL     1      -5.500  13.089  19.566  0.00  0.00    +0.000 C 
ATOM      9  C   UNL     1      -5.237  12.905  22.035  0.00  0.00    +0.000 C 
ATOM     10  C   UNL     1      -3.266  12.599  20.473  0.00  0.00    +0.000 C 
ATOM     11  C   UNL     1      -0.430  14.453  22.294  0.00  0.00    +0.000 C 
ATOM     12  C   UNL     1       0.641  15.582  22.259  0.00  0.00    +0.000 C 
ATOM     13  O   UNL     1       1.129  16.143  23.230  0.00  0.00    +0.000 OA
ATOM     14  C   UNL     1       1.091  15.825  20.885  0.00  0.00    +0.000 A 
ATOM     15  C   UNL     1       1.426  17.115  20.502  0.00  0.00    +0.000 A 
ATOM     16  C   UNL     1       0.677  17.655  19.478  0.00  0.00    +0.000 A 
ATOM     17  C   UNL     1      -0.301  16.849  18.863  0.00  0.00    +0.000 A 
ATOM     18  C   UNL     1      -0.438  15.461  19.153  0.00  0.00    +0.000 A 
ATOM     19  C   UNL     1       0.348  14.897  20.157  0.00  0.00    +0.000 A 
ATOM     20  C   UNL     1       0.192  13.636  21.091  0.00  0.00    +0.000 C 
ENDROOT
BRANCH   1  26
ATOM     21  C   UNL     1      -0.050  10.208  20.406  0.00  0.00    +0.000 A 
ATOM     22  C   UNL     1       0.369   9.000  20.983  0.00  0.00    +0.000 A 
ATOM     23  C   UNL     1       0.162   8.745  22.335  0.00  0.00    +0.000 A 
ATOM     24  C   UNL     1      -0.468   9.716  23.121  0.00  0.00    +0.000 A 
ATOM     25  C   UNL     1      -0.844  10.949  22.574  0.00  0.00    +0.000 A 
ATOM     26  C   UNL     1      -0.596  11.254  21.224  0.00  0.00    +0.000 A 
BRANCH  21  28
ATOM     27  C   UNL     1       1.222   9.773  18.442  0.00  0.00    +0.000 C 
ATOM     28  O   UNL     1       0.093  10.410  19.046  0.00  0.00    +0.000 OA
ENDBRANCH  21  28
ENDBRANCH   1  26
BRANCH  11  29
ATOM     29  O   UNL     1      -0.293  13.856  23.590  0.00  0.00    +0.000 OA
ATOM     30  H   UNL     1       0.402  13.176  23.462  0.00  0.00    +0.000 HD
ENDBRANCH  11  29
BRANCH  20  31
ATOM     31  O   UNL     1       1.474  13.080  21.343  0.00  0.00    +0.000 OA
ATOM     32  H   UNL     1       2.092  13.746  20.992  0.00  0.00    +0.000 HD
ENDBRANCH  20  31
TORSDOF 4
ENDMDL
MODEL 4
REMARK VINA RESULT:      -6.3      2.338      5.734
REMARK  Name = 
REMARK  7 active torsions:
REMARK  status: ('A' for Active; 'I' for Inactive)
REMARK    1  A    between atoms: C_1  and  O_2
REMARK    2  A    between atoms: O_2  and  C_3
REMARK    3  A    between atoms: C_8  and  N_9
REMARK    4  A    between atoms: C_15  and  C_16
REMARK    5  A    between atoms: C_15  and  C_17
REMARK    6  A    between atoms: C_19  and  O_20
REMARK    7  A    between atoms: C_29  and  O_30
REMARK                            x       y       z     vdW  Elec       q    Type
REMARK                         _______ _______ _______ _____ _____    ______ ____
ROOT
ATOM      1  N   UNL     1      -1.733  12.895  19.191  0.00  0.00    +0.000 N 
ATOM      2  C   UNL     1      -1.413  12.745  20.533  0.00  0.00    +0.000 C 
ATOM      3  C   UNL     1      -0.167  13.178  20.779  0.00  0.00    +0.000 C 
ATOM      4  C   UNL     1       0.096  13.607  22.158  0.00  0.00    +0.000 C 
ATOM      5  O   UNL     1       1.149  14.189  22.418  0.00  0.00    +0.000 OA
ATOM      6  C   UNL     1      -1.060  13.513  23.192  0.00  0.00    +0.000 C 
ATOM      7  C   UNL     1      -2.111  12.405  22.937  0.00  0.00    +0.000 C 
ATOM      8  C   UNL     1      -3.415  12.650  23.734  0.00  0.00    +0.000 C 
ATOM      9  C   UNL     1      -1.554  11.036  23.375  0.00  0.00    +0.000 C 
ATOM     10  C   UNL     1      -2.517  12.383  21.458  0.00  0.00    +0.000 C 
ATOM     11  C   UNL     1       0.611  13.395  19.461  0.00  0.00    +0.000 C 
ATOM     12  C   UNL     1       1.487  14.542  18.878  0.00  0.00    +0.000 C 
ATOM     13  O   UNL     1       2.678  14.474  18.610  0.00  0.00    +0.000 OA
ATOM     14  C   UNL     1       0.664  15.717  18.574  0.00  0.00    +0.000 A 
ATOM     15  C   UNL     1       1.206  16.982  18.739  0.00  0.00    +0.000 A 
ATOM     16  C   UNL     1       0.570  17.796  19.652  0.00  0.00    +0.000 A 
ATOM     17  C   UNL     1      -0.598  17.319  20.280  0.00  0.00    +0.000 A 
ATOM     18  C   UNL     1      -1.227  16.101  19.895  0.00  0.00    +0.000 A 
ATOM     19  C   UNL     1      -0.612  15.292  18.939  0.00  0.00    +0.000 A 
ATOM     20  C   UNL     1      -0.671  13.752  18.607  0.00  0.00    +0.000 C 
ENDROOT
BRANCH   1  26
ATOM     21  C   UNL     1      -3.486  11.475  17.999  0.00  0.00    +0.000 A 
ATOM     22  C   UNL     1      -3.736  10.430  17.098  0.00  0.00    +0.000 A 
ATOM     23  C   UNL     1      -2.724   9.549  16.727  0.00  0.00    +0.000 A 
ATOM     24  C   UNL     1      -1.443   9.722  17.263  0.00  0.00    +0.000 A 
ATOM     25  C   UNL     1      -1.163  10.792  18.122  0.00  0.00    +0.000 A 
ATOM     26  C   UNL     1      -2.153  11.728  18.468  0.00  0.00    +0.000 A 
BRANCH  21  28
ATOM     27  C   UNL     1      -5.681  12.293  17.577  0.00  0.00    +0.000 C 
ATOM     28  O   UNL     1      -4.522  12.290  18.415  0.00  0.00    +0.000 OA
ENDBRANCH  21  28
ENDBRANCH   1  26
BRANCH  11  29
ATOM     29  O   UNL     1       1.291  12.188  19.093  0.00  0.00    +0.000 OA
ATOM     30  H   UNL     1       2.141  12.241  19.579  0.00  0.00    +0.000 HD
ENDBRANCH  11  29
BRANCH  20  31
ATOM     31  O   UNL     1      -0.527  13.571  17.205  0.00  0.00    +0.000 OA
ATOM     32  H   UNL     1      -0.133  12.683  17.123  0.00  0.00    +0.000 HD
ENDBRANCH  20  31
TORSDOF 4
ENDMDL
MODEL 5
REMARK VINA RESULT:      -6.3      3.052      5.890
REMARK  Name = 
REMARK  7 active torsions:
REMARK  status: ('A' for Active; 'I' for Inactive)
REMARK    1  A    between atoms: C_1  and  O_2
REMARK    2  A    between atoms: O_2  and  C_3
REMARK    3  A    between atoms: C_8  and  N_9
REMARK    4  A    between atoms: C_15  and  C_16
REMARK    5  A    between atoms: C_15  and  C_17
REMARK    6  A    between atoms: C_19  and  O_20
REMARK    7  A    between atoms: C_29  and  O_30
REMARK                            x       y       z     vdW  Elec       q    Type
REMARK                         _______ _______ _______ _____ _____    ______ ____
ROOT
ATOM      1  N   UNL     1      -4.400  13.798  23.581  0.00  0.00    +0.000 N 
ATOM      2  C   UNL     1      -3.227  13.526  22.889  0.00  0.00    +0.000 C 
ATOM      3  C   UNL     1      -2.615  14.662  22.520  0.00  0.00    +0.000 C 
ATOM      4  C   UNL     1      -1.166  14.564  22.312  0.00  0.00    +0.000 C 
ATOM      5  O   UNL     1      -0.507  15.592  22.157  0.00  0.00    +0.000 OA
ATOM      6  C   UNL     1      -0.483  13.184  22.518  0.00  0.00    +0.000 C 
ATOM      7  C   UNL     1      -1.368  11.942  22.247  0.00  0.00    +0.000 C 
ATOM      8  C   UNL     1      -0.771  10.659  22.874  0.00  0.00    +0.000 C 
ATOM      9  C   UNL     1      -1.491  11.699  20.730  0.00  0.00    +0.000 C 
ATOM     10  C   UNL     1      -2.750  12.120  22.887  0.00  0.00    +0.000 C 
ATOM     11  C   UNL     1      -3.556  15.877  22.693  0.00  0.00    +0.000 C 
ATOM     12  C   UNL     1      -3.424  17.286  23.339  0.00  0.00    +0.000 C 
ATOM     13  O   UNL     1      -3.494  18.357  22.752  0.00  0.00    +0.000 OA
ATOM     14  C   UNL     1      -3.312  17.179  24.797  0.00  0.00    +0.000 A 
ATOM     15  C   UNL     1      -2.521  18.088  25.482  0.00  0.00    +0.000 A 
ATOM     16  C   UNL     1      -1.461  17.556  26.186  0.00  0.00    +0.000 A 
ATOM     17  C   UNL     1      -1.308  16.155  26.214  0.00  0.00    +0.000 A 
ATOM     18  C   UNL     1      -2.286  15.271  25.678  0.00  0.00    +0.000 A 
ATOM     19  C   UNL     1      -3.385  15.802  25.003  0.00  0.00    +0.000 A 
ATOM     20  C   UNL     1      -4.364  15.248  23.898  0.00  0.00    +0.000 C 
ENDROOT
BRANCH   1  26
ATOM     21  C   UNL     1      -5.935  13.027  21.695  0.00  0.00    +0.000 A 
ATOM     22  C   UNL     1      -7.040  12.246  21.326  0.00  0.00    +0.000 A 
ATOM     23  C   UNL     1      -7.916  11.748  22.286  0.00  0.00    +0.000 A 
ATOM     24  C   UNL     1      -7.677  12.031  23.635  0.00  0.00    +0.000 A 
ATOM     25  C   UNL     1      -6.549  12.763  24.026  0.00  0.00    +0.000 A 
ATOM     26  C   UNL     1      -5.619  13.231  23.081  0.00  0.00    +0.000 A 
BRANCH  21  28
ATOM     27  C   UNL     1      -4.843  12.737  19.600  0.00  0.00    +0.000 C 
ATOM     28  O   UNL     1      -5.123  13.579  20.722  0.00  0.00    +0.000 OA
ENDBRANCH  21  28
ENDBRANCH   1  26
BRANCH  11  29
ATOM     29  O   UNL     1      -4.300  16.092  21.487  0.00  0.00    +0.000 OA
ATOM     30  H   UNL     1      -3.612  16.319  20.826  0.00  0.00    +0.000 HD
ENDBRANCH  11  29
BRANCH  20  31
ATOM     31  O   UNL     1      -5.658  15.797  24.104  0.00  0.00    +0.000 OA
ATOM     32  H   UNL     1      -5.734  15.863  25.073  0.00  0.00    +0.000 HD
ENDBRANCH  20  31
TORSDOF 4
ENDMDL
MODEL 6
REMARK VINA RESULT:      -6.2      2.660      4.780
REMARK  Name = 
REMARK  7 active torsions:
REMARK  status: ('A' for Active; 'I' for Inactive)
REMARK    1  A    between atoms: C_1  and  O_2
REMARK    2  A    between atoms: O_2  and  C_3
REMARK    3  A    between atoms: C_8  and  N_9
REMARK    4  A    between atoms: C_15  and  C_16
REMARK    5  A    between atoms: C_15  and  C_17
REMARK    6  A    between atoms: C_19  and  O_20
REMARK    7  A    between atoms: C_29  and  O_30
REMARK                            x       y       z     vdW  Elec       q    Type
REMARK                         _______ _______ _______ _____ _____    ______ ____
ROOT
ATOM      1  N   UNL     1      -2.412  11.895  19.792  0.00  0.00    +0.000 N 
ATOM      2  C   UNL     1      -1.096  11.488  19.964  0.00  0.00    +0.000 C 
ATOM      3  C   UNL     1      -0.295  12.541  20.191  0.00  0.00    +0.000 C 
ATOM      4  C   UNL     1       0.941  12.253  20.928  0.00  0.00    +0.000 C 
ATOM      5  O   UNL     1       1.631  13.187  21.337  0.00  0.00    +0.000 OA
ATOM      6  C   UNL     1       1.216  10.787  21.361  0.00  0.00    +0.000 C 
ATOM      7  C   UNL     1       0.604   9.686  20.458  0.00  0.00    +0.000 C 
ATOM      8  C   UNL     1       0.555   8.314  21.173  0.00  0.00    +0.000 C 
ATOM      9  C   UNL     1       1.456   9.512  19.185  0.00  0.00    +0.000 C 
ATOM     10  C   UNL     1      -0.847  10.030  20.104  0.00  0.00    +0.000 C 
ATOM     11  C   UNL     1      -1.024  13.866  19.870  0.00  0.00    +0.000 C 
ATOM     12  C   UNL     1      -1.214  15.223  20.608  0.00  0.00    +0.000 C 
ATOM     13  O   UNL     1      -0.804  16.312  20.232  0.00  0.00    +0.000 OA
ATOM     14  C   UNL     1      -2.065  15.054  21.790  0.00  0.00    +0.000 A 
ATOM     15  C   UNL     1      -1.818  15.824  22.916  0.00  0.00    +0.000 A 
ATOM     16  C   UNL     1      -1.498  15.129  24.064  0.00  0.00    +0.000 A 
ATOM     17  C   UNL     1      -1.517  13.721  24.025  0.00  0.00    +0.000 A 
ATOM     18  C   UNL     1      -2.001  12.996  22.899  0.00  0.00    +0.000 A 
ATOM     19  C   UNL     1      -2.369  13.694  21.749  0.00  0.00    +0.000 A 
ATOM     20  C   UNL     1      -2.464  13.315  20.221  0.00  0.00    +0.000 C 
ENDROOT
BRANCH   1  26
ATOM     21  C   UNL     1      -4.498  11.492  18.381  0.00  0.00    +0.000 A 
ATOM     22  C   UNL     1      -5.034  11.345  17.093  0.00  0.00    +0.000 A 
ATOM     23  C   UNL     1      -4.208  11.106  15.998  0.00  0.00    +0.000 A 
ATOM     24  C   UNL     1      -2.826  11.020  16.197  0.00  0.00    +0.000 A 
ATOM     25  C   UNL     1      -2.269  11.218  17.467  0.00  0.00    +0.000 A 
ATOM     26  C   UNL     1      -3.076  11.516  18.578  0.00  0.00    +0.000 A 
BRANCH  21  28
ATOM     27  C   UNL     1      -6.651  11.097  19.315  0.00  0.00    +0.000 C 
ATOM     28  O   UNL     1      -5.340  11.649  19.465  0.00  0.00    +0.000 OA
ENDBRANCH  21  28
ENDBRANCH   1  26
BRANCH  11  29
ATOM     29  O   UNL     1      -0.809  14.220  18.498  0.00  0.00    +0.000 OA
ATOM     30  H   UNL     1      -0.123  14.920  18.542  0.00  0.00    +0.000 HD
ENDBRANCH  11  29
BRANCH  20  31
ATOM     31  O   UNL     1      -3.540  14.028  19.629  0.00  0.00    +0.000 OA
ATOM     32  H   UNL     1      -3.111  14.803  19.221  0.00  0.00    +0.000 HD
ENDBRANCH  20  31
TORSDOF 4
ENDMDL
MODEL 7
REMARK VINA RESULT:      -6.2      2.654      5.547
REMARK  Name = 
REMARK  7 active torsions:
REMARK  status: ('A' for Active; 'I' for Inactive)
REMARK    1  A    between atoms: C_1  and  O_2
REMARK    2  A    between atoms: O_2  and  C_3
REMARK    3  A    between atoms: C_8  and  N_9
REMARK    4  A    between atoms: C_15  and  C_16
REMARK    5  A    between atoms: C_15  and  C_17
REMARK    6  A    between atoms: C_19  and  O_20
REMARK    7  A    between atoms: C_29  and  O_30
REMARK                            x       y       z     vdW  Elec       q    Type
REMARK                         _______ _______ _______ _____ _____    ______ ____
ROOT
ATOM      1  N   UNL     1       0.164  10.803  19.480  0.00  0.00    +0.000 N 
ATOM      2  C   UNL     1      -1.178  10.865  19.131  0.00  0.00    +0.000 C 
ATOM      3  C   UNL     1      -1.871  11.592  20.022  0.00  0.00    +0.000 C 
ATOM      4  C   UNL     1      -3.105  12.206  19.518  0.00  0.00    +0.000 C 
ATOM      5  O   UNL     1      -3.694  13.035  20.212  0.00  0.00    +0.000 OA
ATOM      6  C   UNL     1      -3.502  11.956  18.037  0.00  0.00    +0.000 C 
ATOM      7  C   UNL     1      -3.022  10.617  17.423  0.00  0.00    +0.000 C 
ATOM      8  C   UNL     1      -3.078  10.638  15.876  0.00  0.00    +0.000 C 
ATOM      9  C   UNL     1      -3.924   9.461  17.900  0.00  0.00    +0.000 C 
ATOM     10  C   UNL     1      -1.556  10.355  17.788  0.00  0.00    +0.000 C 
ATOM     11  C   UNL     1      -1.033  11.848  21.295  0.00  0.00    +0.000 C 
ATOM     12  C   UNL     1      -0.697  13.100  22.157  0.00  0.00    +0.000 C 
ATOM     13  O   UNL     1      -1.015  13.278  23.324  0.00  0.00    +0.000 OA
ATOM     14  C   UNL     1       0.170  14.020  21.414  0.00  0.00    +0.000 A 
ATOM     15  C   UNL     1       0.029  15.385  21.609  0.00  0.00    +0.000 A 
ATOM     16  C   UNL     1      -0.318  16.121  20.495  0.00  0.00    +0.000 A 
ATOM     17  C   UNL     1      -0.431  15.456  19.258  0.00  0.00    +0.000 A 
ATOM     18  C   UNL     1      -0.050  14.094  19.087  0.00  0.00    +0.000 A 
ATOM     19  C   UNL     1       0.346  13.355  20.202  0.00  0.00    +0.000 A 
ATOM     20  C   UNL     1       0.360  11.817  20.547  0.00  0.00    +0.000 C 
ENDROOT
BRANCH   1  26
ATOM     21  C   UNL     1       1.731   8.920  18.771  0.00  0.00    +0.000 A 
ATOM     22  C   UNL     1       2.420   7.759  19.153  0.00  0.00    +0.000 A 
ATOM     23  C   UNL     1       2.094   7.088  20.328  0.00  0.00    +0.000 A 
ATOM     24  C   UNL     1       1.067   7.592  21.135  0.00  0.00    +0.000 A 
ATOM     25  C   UNL     1       0.406   8.780  20.796  0.00  0.00    +0.000 A 
ATOM     26  C   UNL     1       0.754   9.505  19.644  0.00  0.00    +0.000 A 
BRANCH  21  28
ATOM     27  C   UNL     1       2.543  10.852  17.644  0.00  0.00    +0.000 C 
ATOM     28  O   UNL     1       2.017   9.525  17.562  0.00  0.00    +0.000 OA
ENDBRANCH  21  28
ENDBRANCH   1  26
BRANCH  11  29
ATOM     29  O   UNL     1      -1.256  10.797  22.244  0.00  0.00    +0.000 OA
ATOM     30  H   UNL     1      -0.382  10.682  22.675  0.00  0.00    +0.000 HD
ENDBRANCH  11  29
BRANCH  20  31
ATOM     31  O   UNL     1       1.479  11.534  21.375  0.00  0.00    +0.000 OA
ATOM     32  H   UNL     1       1.582  12.339  21.913  0.00  0.00    +0.000 HD
ENDBRANCH  20  31
TORSDOF 4
ENDMDL
MODEL 8
REMARK VINA RESULT:      -6.1      2.089      4.533
REMARK  Name = 
REMARK  7 active torsions:
REMARK  status: ('A' for Active; 'I' for Inactive)
REMARK    1  A    between atoms: C_1  and  O_2
REMARK    2  A    between atoms: O_2  and  C_3
REMARK    3  A    between atoms: C_8  and  N_9
REMARK    4  A    between atoms: C_15  and  C_16
REMARK    5  A    between atoms: C_15  and  C_17
REMARK    6  A    between atoms: C_19  and  O_20
REMARK    7  A    between atoms: C_29  and  O_30
REMARK                            x       y       z     vdW  Elec       q    Type
REMARK                         _______ _______ _______ _____ _____    ______ ____
ROOT
ATOM      1  N   UNL     1       0.040  14.395  20.285  0.00  0.00    +0.000 N 
ATOM      2  C   UNL     1      -1.333  14.470  20.469  0.00  0.00    +0.000 C 
ATOM      3  C   UNL     1      -1.943  13.382  19.973  0.00  0.00    +0.000 C 
ATOM      4  C   UNL     1      -3.242  13.053  20.571  0.00  0.00    +0.000 C 
ATOM      5  O   UNL     1      -3.773  11.975  20.307  0.00  0.00    +0.000 OA
ATOM      6  C   UNL     1      -3.794  13.979  21.690  0.00  0.00    +0.000 C 
ATOM      7  C   UNL     1      -3.348  15.462  21.626  0.00  0.00    +0.000 C 
ATOM      8  C   UNL     1      -3.577  16.192  22.971  0.00  0.00    +0.000 C 
ATOM      9  C   UNL     1      -4.158  16.212  20.550  0.00  0.00    +0.000 C 
ATOM     10  C   UNL     1      -1.844  15.556  21.344  0.00  0.00    +0.000 C 
ATOM     11  C   UNL     1      -0.976  12.565  19.086  0.00  0.00    +0.000 C 
ATOM     12  C   UNL     1      -0.580  11.063  18.984  0.00  0.00    +0.000 C 
ATOM     13  O   UNL     1      -0.772  10.331  18.023  0.00  0.00    +0.000 OA
ATOM     14  C   UNL     1       0.173  10.645  20.171  0.00  0.00    +0.000 A 
ATOM     15  C   UNL     1       0.016   9.354  20.649  0.00  0.00    +0.000 A 
ATOM     16  C   UNL     1      -0.474   9.242  21.934  0.00  0.00    +0.000 A 
ATOM     17  C   UNL     1      -0.705  10.420  22.671  0.00  0.00    +0.000 A 
ATOM     18  C   UNL     1      -0.308  11.704  22.200  0.00  0.00    +0.000 A 
ATOM     19  C   UNL     1       0.230  11.820  20.918  0.00  0.00    +0.000 A 
ATOM     20  C   UNL     1       0.325  12.997  19.874  0.00  0.00    +0.000 C 
ENDROOT
BRANCH   1  26
ATOM     21  C   UNL     1       2.077  15.794  19.650  0.00  0.00    +0.000 A 
ATOM     22  C   UNL     1       2.643  16.697  18.738  0.00  0.00    +0.000 A 
ATOM     23  C   UNL     1       1.849  17.379  17.821  0.00  0.00    +0.000 A 
ATOM     24  C   UNL     1       0.469  17.147  17.814  0.00  0.00    +0.000 A 
ATOM     25  C   UNL     1      -0.106  16.209  18.681  0.00  0.00    +0.000 A 
ATOM     26  C   UNL     1       0.681  15.467  19.578  0.00  0.00    +0.000 A 
BRANCH  21  28
ATOM     27  C   UNL     1       4.237  14.981  20.231  0.00  0.00    +0.000 C 
ATOM     28  O   UNL     1       2.872  15.187  20.604  0.00  0.00    +0.000 OA
ENDBRANCH  21  28
ENDBRANCH   1  26
BRANCH  11  29
ATOM     29  O   UNL     1      -1.062  13.016  17.728  0.00  0.00    +0.000 OA
ATOM     30  H   UNL     1      -2.021  12.968  17.526  0.00  0.00    +0.000 HD
ENDBRANCH  11  29
BRANCH  20  31
ATOM     31  O   UNL     1       1.537  12.876  19.143  0.00  0.00    +0.000 OA
ATOM     32  H   UNL     1       1.510  13.624  18.519  0.00  0.00    +0.000 HD
ENDBRANCH  20  31
TORSDOF 4
ENDMDL
MODEL 9
REMARK VINA RESULT:      -6.1      1.754      5.674
REMARK  Name = 
REMARK  7 active torsions:
REMARK  status: ('A' for Active; 'I' for Inactive)
REMARK    1  A    between atoms: C_1  and  O_2
REMARK    2  A    between atoms: O_2  and  C_3
REMARK    3  A    between atoms: C_8  and  N_9
REMARK    4  A    between atoms: C_15  and  C_16
REMARK    5  A    between atoms: C_15  and  C_17
REMARK    6  A    between atoms: C_19  and  O_20
REMARK    7  A    between atoms: C_29  and  O_30
REMARK                            x       y       z     vdW  Elec       q    Type
REMARK                         _______ _______ _______ _____ _____    ______ ____
ROOT
ATOM      1  N   UNL     1      -1.711  14.503  21.957  0.00  0.00    +0.000 N 
ATOM      2  C   UNL     1      -1.119  15.323  21.007  0.00  0.00    +0.000 C 
ATOM      3  C   UNL     1      -0.064  14.716  20.442  0.00  0.00    +0.000 C 
ATOM      4  C   UNL     1       0.290  15.180  19.095  0.00  0.00    +0.000 C 
ATOM      5  O   UNL     1       1.120  14.551  18.438  0.00  0.00    +0.000 OA
ATOM      6  C   UNL     1      -0.557  16.317  18.461  0.00  0.00    +0.000 C 
ATOM      7  C   UNL     1      -1.209  17.313  19.453  0.00  0.00    +0.000 C 
ATOM      8  C   UNL     1      -2.351  18.123  18.793  0.00  0.00    +0.000 C 
ATOM      9  C   UNL     1      -0.159  18.323  19.957  0.00  0.00    +0.000 C 
ATOM     10  C   UNL     1      -1.850  16.558  20.624  0.00  0.00    +0.000 C 
ATOM     11  C   UNL     1       0.342  13.457  21.241  0.00  0.00    +0.000 C 
ATOM     12  C   UNL     1       0.664  11.979  20.877  0.00  0.00    +0.000 C 
ATOM     13  O   UNL     1       1.740  11.417  21.029  0.00  0.00    +0.000 OA
ATOM     14  C   UNL     1      -0.543  11.285  20.417  0.00  0.00    +0.000 A 
ATOM     15  C   UNL     1      -0.431  10.315  19.433  0.00  0.00    +0.000 A 
ATOM     16  C   UNL     1      -1.122  10.558  18.265  0.00  0.00    +0.000 A 
ATOM     17  C   UNL     1      -1.928  11.711  18.187  0.00  0.00    +0.000 A 
ATOM     18  C   UNL     1      -2.177  12.544  19.315  0.00  0.00    +0.000 A 
ATOM     19  C   UNL     1      -1.516  12.278  20.515  0.00  0.00    +0.000 A 
ATOM     20  C   UNL     1      -1.120  13.155  21.764  0.00  0.00    +0.000 C 
ENDROOT
BRANCH   1  26
ATOM     21  C   UNL     1      -2.864  14.633  24.228  0.00  0.00    +0.000 A 
ATOM     22  C   UNL     1      -2.762  15.002  25.578  0.00  0.00    +0.000 A 
ATOM     23  C   UNL     1      -1.737  15.836  26.015  0.00  0.00    +0.000 A 
ATOM     24  C   UNL     1      -0.798  16.300  25.087  0.00  0.00    +0.000 A 
ATOM     25  C   UNL     1      -0.853  15.898  23.747  0.00  0.00    +0.000 A 
ATOM     26  C   UNL     1      -1.846  15.013  23.292  0.00  0.00    +0.000 A 
BRANCH  21  28
ATOM     27  C   UNL     1      -4.212  12.703  24.581  0.00  0.00    +0.000 C 
ATOM     28  O   UNL     1      -3.934  13.869  23.801  0.00  0.00    +0.000 OA
ENDBRANCH  21  28
ENDBRANCH   1  26
BRANCH  11  29
ATOM     29  O   UNL     1       1.303  13.807  22.245  0.00  0.00    +0.000 OA
ATOM     30  H   UNL     1       2.017  14.253  21.740  0.00  0.00    +0.000 HD
ENDBRANCH  11  29
BRANCH  20  31
ATOM     31  O   UNL     1      -1.184  12.354  22.936  0.00  0.00    +0.000 OA
ATOM     32  H   UNL     1      -2.069  12.542  23.299  0.00  0.00    +0.000 HD
ENDBRANCH  20  31
TORSDOF 4
ENDMDL
