MODEL 1
REMARK VINA RESULT:      -8.2      0.000      0.000
REMARK  Name = 
REMARK  10 active torsions:
REMARK  status: ('A' for Active; 'I' for Inactive)
REMARK    1  A    between atoms: N_1  and  C_2
REMARK    2  A    between atoms: C_2  and  C_3
REMARK    3  A    between atoms: C_2  and  C_25
REMARK    4  A    between atoms: C_3  and  S_4
REMARK    5  A    between atoms: S_4  and  C_5
REMARK    6  A    between atoms: C_5  and  C_6
REMARK    7  A    between atoms: C_5  and  C_12
REMARK    8  A    between atoms: C_5  and  C_18
REMARK    9  A    between atoms: C_22  and  O_23
REMARK   10  A    between atoms: C_25  and  O_27
REMARK                            x       y       z     vdW  Elec       q    Type
REMARK                         _______ _______ _______ _____ _____    ______ ____
ROOT
ATOM      1  C   UNK     1       4.329   5.729  17.803  0.00  0.00    +0.000 C 
ENDROOT
BRANCH   1   2
ATOM      2  C   UNK     1       5.840   6.105  18.128  0.00  0.00    +0.000 A 
ATOM      3  C   UNK     1       6.475   7.187  17.472  0.00  0.00    +0.000 A 
ATOM      4  C   UNK     1       7.748   7.644  17.847  0.00  0.00    +0.000 A 
ATOM      5  C   UNK     1       8.438   7.025  18.880  0.00  0.00    +0.000 A 
ATOM      6  C   UNK     1       7.901   5.888  19.460  0.00  0.00    +0.000 A 
ATOM      7  C   UNK     1       6.651   5.408  19.045  0.00  0.00    +0.000 A 
ENDBRANCH   1   2
BRANCH   1   8
ATOM      8  C   UNK     1       3.270   6.817  18.268  0.00  0.00    +0.000 A 
ATOM      9  C   UNK     1       2.960   7.920  17.428  0.00  0.00    +0.000 A 
ATOM     10  C   UNK     1       2.093   8.948  17.841  0.00  0.00    +0.000 A 
ATOM     11  C   UNK     1       1.530   8.920  19.107  0.00  0.00    +0.000 A 
ATOM     12  C   UNK     1       1.772   7.835  19.935  0.00  0.00    +0.000 A 
ATOM     13  C   UNK     1       2.612   6.786  19.506  0.00  0.00    +0.000 A 
ENDBRANCH   1   8
BRANCH   1  14
ATOM     14  C   UNK     1       3.842   4.294  18.246  0.00  0.00    +0.000 A 
ATOM     15  C   UNK     1       2.655   3.703  17.753  0.00  0.00    +0.000 A 
ATOM     16  C   UNK     1       2.276   2.395  18.081  0.00  0.00    +0.000 A 
ATOM     17  C   UNK     1       3.102   1.614  18.876  0.00  0.00    +0.000 A 
ATOM     18  C   UNK     1       4.241   2.189  19.415  0.00  0.00    +0.000 A 
ATOM     19  C   UNK     1       4.546   3.533  19.197  0.00  0.00    +0.000 A 
BRANCH  18  20
ATOM     20  O   UNK     1       5.128   1.445  20.136  0.00  0.00    +0.000 OA
ATOM     21  H   UNK     1       6.009   1.560  19.741  0.00  0.00    +0.000 HD
ENDBRANCH  18  20
ENDBRANCH   1  14
BRANCH   1  22
ATOM     22  S   UNK     1       4.284   5.796  15.791  0.00  0.00    +0.000 S 
BRANCH  22  23
ATOM     23  C   UNK     1       5.224   4.269  15.383  0.00  0.00    +0.000 C 
BRANCH  23  24
ATOM     24  C   UNK     1       6.063   4.480  14.115  0.00  0.00    +0.000 C 
BRANCH  24  25
ATOM     25  N   UNK     1       6.243   3.242  13.290  0.00  0.00    +0.000 NA
ATOM     26  H   UNK     1       6.727   3.543  12.434  0.00  0.00    +0.000 HD
ATOM     27  H   UNK     1       5.319   2.950  12.948  0.00  0.00    +0.000 HD
ENDBRANCH  24  25
BRANCH  24  28
ATOM     28  C   UNK     1       7.459   5.008  14.478  0.00  0.00    +0.000 C 
ATOM     29  O   UNK     1       8.176   5.686  13.765  0.00  0.00    +0.000 OA
BRANCH  28  30
ATOM     30  O   UNK     1       7.825   4.595  15.725  0.00  0.00    +0.000 OA
ATOM     31  H   UNK     1       7.737   3.611  15.735  0.00  0.00    +0.000 HD
ENDBRANCH  28  30
ENDBRANCH  24  28
ENDBRANCH  23  24
ENDBRANCH  22  23
ENDBRANCH   1  22
TORSDOF 10
ENDMDL
MODEL 2
REMARK VINA RESULT:      -8.1      0.241      1.134
REMARK  Name = 
REMARK  10 active torsions:
REMARK  status: ('A' for Active; 'I' for Inactive)
REMARK    1  A    between atoms: N_1  and  C_2
REMARK    2  A    between atoms: C_2  and  C_3
REMARK    3  A    between atoms: C_2  and  C_25
REMARK    4  A    between atoms: C_3  and  S_4
REMARK    5  A    between atoms: S_4  and  C_5
REMARK    6  A    between atoms: C_5  and  C_6
REMARK    7  A    between atoms: C_5  and  C_12
REMARK    8  A    between atoms: C_5  and  C_18
REMARK    9  A    between atoms: C_22  and  O_23
REMARK   10  A    between atoms: C_25  and  O_27
REMARK                            x       y       z     vdW  Elec       q    Type
REMARK                         _______ _______ _______ _____ _____    ______ ____
ROOT
ATOM      1  C   UNK     1       4.258   5.876  17.859  0.00  0.00    +0.000 C 
ENDROOT
BRANCH   1   2
ATOM      2  C   UNK     1       5.789   6.179  18.167  0.00  0.00    +0.000 A 
ATOM      3  C   UNK     1       6.463   7.239  17.515  0.00  0.00    +0.000 A 
ATOM      4  C   UNK     1       7.761   7.634  17.877  0.00  0.00    +0.000 A 
ATOM      5  C   UNK     1       8.437   6.970  18.892  0.00  0.00    +0.000 A 
ATOM      6  C   UNK     1       7.856   5.852  19.467  0.00  0.00    +0.000 A 
ATOM      7  C   UNK     1       6.580   5.435  19.064  0.00  0.00    +0.000 A 
ENDBRANCH   1   2
BRANCH   1   8
ATOM      8  C   UNK     1       3.259   7.021  18.320  0.00  0.00    +0.000 A 
ATOM      9  C   UNK     1       2.661   6.974  19.608  0.00  0.00    +0.000 A 
ATOM     10  C   UNK     1       1.707   7.923  20.018  0.00  0.00    +0.000 A 
ATOM     11  C   UNK     1       1.303   8.927  19.153  0.00  0.00    +0.000 A 
ATOM     12  C   UNK     1       1.900   9.031  17.907  0.00  0.00    +0.000 A 
ATOM     13  C   UNK     1       2.884   8.102  17.509  0.00  0.00    +0.000 A 
ENDBRANCH   1   8
BRANCH   1  14
ATOM     14  C   UNK     1       3.704   4.472  18.324  0.00  0.00    +0.000 A 
ATOM     15  C   UNK     1       2.408   4.013  17.988  0.00  0.00    +0.000 A 
ATOM     16  C   UNK     1       1.956   2.731  18.327  0.00  0.00    +0.000 A 
ATOM     17  C   UNK     1       2.807   1.845  18.972  0.00  0.00    +0.000 A 
ATOM     18  C   UNK     1       4.059   2.291  19.360  0.00  0.00    +0.000 A 
ATOM     19  C   UNK     1       4.458   3.611  19.141  0.00  0.00    +0.000 A 
BRANCH  18  20
ATOM     20  O   UNK     1       4.963   1.441  19.924  0.00  0.00    +0.000 OA
ATOM     21  H   UNK     1       4.477   0.675  20.278  0.00  0.00    +0.000 HD
ENDBRANCH  18  20
ENDBRANCH   1  14
BRANCH   1  22
ATOM     22  S   UNK     1       4.198   5.922  15.847  0.00  0.00    +0.000 S 
BRANCH  22  23
ATOM     23  C   UNK     1       5.025   4.329  15.451  0.00  0.00    +0.000 C 
BRANCH  23  24
ATOM     24  C   UNK     1       6.030   4.517  14.305  0.00  0.00    +0.000 C 
BRANCH  24  25
ATOM     25  N   UNK     1       6.185   3.314  13.425  0.00  0.00    +0.000 NA
ATOM     26  H   UNK     1       5.252   3.134  13.030  0.00  0.00    +0.000 HD
ATOM     27  H   UNK     1       6.349   2.498  14.027  0.00  0.00    +0.000 HD
ENDBRANCH  24  25
BRANCH  24  28
ATOM     28  C   UNK     1       7.416   4.872  14.862  0.00  0.00    +0.000 C 
ATOM     29  O   UNK     1       7.862   4.532  15.944  0.00  0.00    +0.000 OA
BRANCH  28  30
ATOM     30  O   UNK     1       8.105   5.657  13.987  0.00  0.00    +0.000 OA
ATOM     31  H   UNK     1       9.058   5.599  14.243  0.00  0.00    +0.000 HD
ENDBRANCH  28  30
ENDBRANCH  24  28
ENDBRANCH  23  24
ENDBRANCH  22  23
ENDBRANCH   1  22
TORSDOF 10
ENDMDL
MODEL 3
REMARK VINA RESULT:      -8.0      2.619      5.092
REMARK  Name = 
REMARK  10 active torsions:
REMARK  status: ('A' for Active; 'I' for Inactive)
REMARK    1  A    between atoms: N_1  and  C_2
REMARK    2  A    between atoms: C_2  and  C_3
REMARK    3  A    between atoms: C_2  and  C_25
REMARK    4  A    between atoms: C_3  and  S_4
REMARK    5  A    between atoms: S_4  and  C_5
REMARK    6  A    between atoms: C_5  and  C_6
REMARK    7  A    between atoms: C_5  and  C_12
REMARK    8  A    between atoms: C_5  and  C_18
REMARK    9  A    between atoms: C_22  and  O_23
REMARK   10  A    between atoms: C_25  and  O_27
REMARK                            x       y       z     vdW  Elec       q    Type
REMARK                         _______ _______ _______ _____ _____    ______ ____
ROOT
ATOM      1  C   UNK     1       3.437   5.592  18.540  0.00  0.00    +0.000 C 
ENDROOT
BRANCH   1   2
ATOM      2  C   UNK     1       4.115   5.480  17.106  0.00  0.00    +0.000 A 
ATOM      3  C   UNK     1       4.638   6.626  16.460  0.00  0.00    +0.000 A 
ATOM      4  C   UNK     1       5.381   6.540  15.272  0.00  0.00    +0.000 A 
ATOM      5  C   UNK     1       5.611   5.307  14.679  0.00  0.00    +0.000 A 
ATOM      6  C   UNK     1       5.010   4.180  15.215  0.00  0.00    +0.000 A 
ATOM      7  C   UNK     1       4.229   4.282  16.374  0.00  0.00    +0.000 A 
ENDBRANCH   1   2
BRANCH   1   8
ATOM      8  C   UNK     1       2.585   4.319  18.962  0.00  0.00    +0.000 A 
ATOM      9  C   UNK     1       1.530   3.856  18.131  0.00  0.00    +0.000 A 
ATOM     10  C   UNK     1       0.700   2.786  18.512  0.00  0.00    +0.000 A 
ATOM     11  C   UNK     1       0.879   2.165  19.737  0.00  0.00    +0.000 A 
ATOM     12  C   UNK     1       1.928   2.560  20.553  0.00  0.00    +0.000 A 
ATOM     13  C   UNK     1       2.784   3.608  20.154  0.00  0.00    +0.000 A 
ENDBRANCH   1   8
BRANCH   1  14
ATOM     14  C   UNK     1       2.608   6.903  18.835  0.00  0.00    +0.000 A 
ATOM     15  C   UNK     1       1.992   7.154  20.085  0.00  0.00    +0.000 A 
ATOM     16  C   UNK     1       1.336   8.358  20.368  0.00  0.00    +0.000 A 
ATOM     17  C   UNK     1       1.317   9.376  19.425  0.00  0.00    +0.000 A 
ATOM     18  C   UNK     1       1.864   9.132  18.176  0.00  0.00    +0.000 A 
ATOM     19  C   UNK     1       2.398   7.885  17.849  0.00  0.00    +0.000 A 
BRANCH  18  20
ATOM     20  O   UNK     1       1.944  10.121  17.240  0.00  0.00    +0.000 OA
ATOM     21  H   UNK     1       1.211  10.000  16.611  0.00  0.00    +0.000 HD
ENDBRANCH  18  20
ENDBRANCH   1  14
BRANCH   1  22
ATOM     22  S   UNK     1       5.025   5.580  19.779  0.00  0.00    +0.000 S 
BRANCH  22  23
ATOM     23  C   UNK     1       6.085   4.327  18.952  0.00  0.00    +0.000 C 
BRANCH  23  24
ATOM     24  C   UNK     1       7.244   5.010  18.211  0.00  0.00    +0.000 C 
BRANCH  24  25
ATOM     25  N   UNK     1       8.267   4.060  17.669  0.00  0.00    +0.000 NA
ATOM     26  H   UNK     1       9.026   4.646  17.297  0.00  0.00    +0.000 HD
ATOM     27  H   UNK     1       7.876   3.618  16.828  0.00  0.00    +0.000 HD
ENDBRANCH  24  25
BRANCH  24  28
ATOM     28  C   UNK     1       7.966   5.996  19.141  0.00  0.00    +0.000 C 
ATOM     29  O   UNK     1       8.318   7.126  18.853  0.00  0.00    +0.000 OA
BRANCH  28  30
ATOM     30  O   UNK     1       8.197   5.433  20.361  0.00  0.00    +0.000 OA
ATOM     31  H   UNK     1       9.151   5.586  20.568  0.00  0.00    +0.000 HD
ENDBRANCH  28  30
ENDBRANCH  24  28
ENDBRANCH  23  24
ENDBRANCH  22  23
ENDBRANCH   1  22
TORSDOF 10
ENDMDL
MODEL 4
REMARK VINA RESULT:      -8.0      1.479      4.620
REMARK  Name = 
REMARK  10 active torsions:
REMARK  status: ('A' for Active; 'I' for Inactive)
REMARK    1  A    between atoms: N_1  and  C_2
REMARK    2  A    between atoms: C_2  and  C_3
REMARK    3  A    between atoms: C_2  and  C_25
REMARK    4  A    between atoms: C_3  and  S_4
REMARK    5  A    between atoms: S_4  and  C_5
REMARK    6  A    between atoms: C_5  and  C_6
REMARK    7  A    between atoms: C_5  and  C_12
REMARK    8  A    between atoms: C_5  and  C_18
REMARK    9  A    between atoms: C_22  and  O_23
REMARK   10  A    between atoms: C_25  and  O_27
REMARK                            x       y       z     vdW  Elec       q    Type
REMARK                         _______ _______ _______ _____ _____    ______ ____
ROOT
ATOM      1  C   UNK     1       3.886   5.745  18.544  0.00  0.00    +0.000 C 
ENDROOT
BRANCH   1   2
ATOM      2  C   UNK     1       2.906   6.995  18.629  0.00  0.00    +0.000 A 
ATOM      3  C   UNK     1       2.200   7.282  19.822  0.00  0.00    +0.000 A 
ATOM      4  C   UNK     1       1.453   8.460  19.983  0.00  0.00    +0.000 A 
ATOM      5  C   UNK     1       1.372   9.384  18.950  0.00  0.00    +0.000 A 
ATOM      6  C   UNK     1       1.947   9.077  17.727  0.00  0.00    +0.000 A 
ATOM      7  C   UNK     1       2.648   7.875  17.560  0.00  0.00    +0.000 A 
ENDBRANCH   1   2
BRANCH   1   8
ATOM      8  C   UNK     1       3.572   4.595  19.593  0.00  0.00    +0.000 A 
ATOM      9  C   UNK     1       4.300   3.376  19.559  0.00  0.00    +0.000 A 
ATOM     10  C   UNK     1       3.993   2.303  20.415  0.00  0.00    +0.000 A 
ATOM     11  C   UNK     1       2.939   2.403  21.310  0.00  0.00    +0.000 A 
ATOM     12  C   UNK     1       2.237   3.594  21.404  0.00  0.00    +0.000 A 
ATOM     13  C   UNK     1       2.570   4.684  20.571  0.00  0.00    +0.000 A 
ENDBRANCH   1   8
BRANCH   1  14
ATOM     14  C   UNK     1       5.434   6.055  18.547  0.00  0.00    +0.000 A 
ATOM     15  C   UNK     1       6.025   7.009  17.684  0.00  0.00    +0.000 A 
ATOM     16  C   UNK     1       7.383   7.343  17.755  0.00  0.00    +0.000 A 
ATOM     17  C   UNK     1       8.188   6.769  18.728  0.00  0.00    +0.000 A 
ATOM     18  C   UNK     1       7.645   5.793  19.547  0.00  0.00    +0.000 A 
ATOM     19  C   UNK     1       6.327   5.363  19.386  0.00  0.00    +0.000 A 
BRANCH  18  20
ATOM     20  O   UNK     1       8.368   5.254  20.570  0.00  0.00    +0.000 OA
ATOM     21  H   UNK     1       8.481   4.304  20.392  0.00  0.00    +0.000 HD
ENDBRANCH  18  20
ENDBRANCH   1  14
BRANCH   1  22
ATOM     22  S   UNK     1       3.425   4.946  16.754  0.00  0.00    +0.000 S 
BRANCH  22  23
ATOM     23  C   UNK     1       4.985   4.051  16.375  0.00  0.00    +0.000 C 
BRANCH  23  24
ATOM     24  C   UNK     1       5.640   4.627  15.112  0.00  0.00    +0.000 C 
BRANCH  24  25
ATOM     25  N   UNK     1       5.410   3.808  13.878  0.00  0.00    +0.000 NA
ATOM     26  H   UNK     1       4.767   3.055  14.156  0.00  0.00    +0.000 HD
ATOM     27  H   UNK     1       6.281   3.307  13.662  0.00  0.00    +0.000 HD
ENDBRANCH  24  25
BRANCH  24  28
ATOM     28  C   UNK     1       7.156   4.762  15.309  0.00  0.00    +0.000 C 
ATOM     29  O   UNK     1       7.804   4.292  16.228  0.00  0.00    +0.000 OA
BRANCH  28  30
ATOM     30  O   UNK     1       7.710   5.515  14.318  0.00  0.00    +0.000 OA
ATOM     31  H   UNK     1       7.651   6.457  14.611  0.00  0.00    +0.000 HD
ENDBRANCH  28  30
ENDBRANCH  24  28
ENDBRANCH  23  24
ENDBRANCH  22  23
ENDBRANCH   1  22
TORSDOF 10
ENDMDL
MODEL 5
REMARK VINA RESULT:      -8.0      2.663      4.943
REMARK  Name = 
REMARK  10 active torsions:
REMARK  status: ('A' for Active; 'I' for Inactive)
REMARK    1  A    between atoms: N_1  and  C_2
REMARK    2  A    between atoms: C_2  and  C_3
REMARK    3  A    between atoms: C_2  and  C_25
REMARK    4  A    between atoms: C_3  and  S_4
REMARK    5  A    between atoms: S_4  and  C_5
REMARK    6  A    between atoms: C_5  and  C_6
REMARK    7  A    between atoms: C_5  and  C_12
REMARK    8  A    between atoms: C_5  and  C_18
REMARK    9  A    between atoms: C_22  and  O_23
REMARK   10  A    between atoms: C_25  and  O_27
REMARK                            x       y       z     vdW  Elec       q    Type
REMARK                         _______ _______ _______ _____ _____    ______ ____
ROOT
ATOM      1  C   UNK     1       3.506   5.715  18.435  0.00  0.00    +0.000 C 
ENDROOT
BRANCH   1   2
ATOM      2  C   UNK     1       4.189   5.461  17.021  0.00  0.00    +0.000 A 
ATOM      3  C   UNK     1       4.744   6.533  16.281  0.00  0.00    +0.000 A 
ATOM      4  C   UNK     1       5.490   6.324  15.111  0.00  0.00    +0.000 A 
ATOM      5  C   UNK     1       5.693   5.038  14.630  0.00  0.00    +0.000 A 
ATOM      6  C   UNK     1       5.062   3.978  15.259  0.00  0.00    +0.000 A 
ATOM      7  C   UNK     1       4.277   4.201  16.398  0.00  0.00    +0.000 A 
ENDBRANCH   1   2
BRANCH   1   8
ATOM      8  C   UNK     1       2.573   4.529  18.933  0.00  0.00    +0.000 A 
ATOM      9  C   UNK     1       1.657   3.914  18.038  0.00  0.00    +0.000 A 
ATOM     10  C   UNK     1       0.756   2.921  18.464  0.00  0.00    +0.000 A 
ATOM     11  C   UNK     1       0.724   2.531  19.793  0.00  0.00    +0.000 A 
ATOM     12  C   UNK     1       1.635   3.076  20.684  0.00  0.00    +0.000 A 
ATOM     13  C   UNK     1       2.564   4.044  20.249  0.00  0.00    +0.000 A 
ENDBRANCH   1   8
BRANCH   1  14
ATOM     14  C   UNK     1       2.757   7.092  18.626  0.00  0.00    +0.000 A 
ATOM     15  C   UNK     1       2.679   8.067  17.603  0.00  0.00    +0.000 A 
ATOM     16  C   UNK     1       1.937   9.247  17.748  0.00  0.00    +0.000 A 
ATOM     17  C   UNK     1       1.204   9.466  18.905  0.00  0.00    +0.000 A 
ATOM     18  C   UNK     1       1.310   8.552  19.940  0.00  0.00    +0.000 A 
ATOM     19  C   UNK     1       2.156   7.446  19.847  0.00  0.00    +0.000 A 
BRANCH  18  20
ATOM     20  O   UNK     1       0.552   8.678  21.067  0.00  0.00    +0.000 OA
ATOM     21  H   UNK     1       0.200   9.584  21.094  0.00  0.00    +0.000 HD
ENDBRANCH  18  20
ENDBRANCH   1  14
BRANCH   1  22
ATOM     22  S   UNK     1       5.078   5.694  19.692  0.00  0.00    +0.000 S 
BRANCH  22  23
ATOM     23  C   UNK     1       6.112   4.387  18.914  0.00  0.00    +0.000 C 
BRANCH  23  24
ATOM     24  C   UNK     1       7.276   5.018  18.137  0.00  0.00    +0.000 C 
BRANCH  24  25
ATOM     25  N   UNK     1       8.258   4.023  17.596  0.00  0.00    +0.000 NA
ATOM     26  H   UNK     1       8.409   4.285  16.613  0.00  0.00    +0.000 HD
ATOM     27  H   UNK     1       7.786   3.114  17.529  0.00  0.00    +0.000 HD
ENDBRANCH  24  25
BRANCH  24  28
ATOM     28  C   UNK     1       8.048   5.999  19.032  0.00  0.00    +0.000 C 
ATOM     29  O   UNK     1       8.281   7.168  18.778  0.00  0.00    +0.000 OA
BRANCH  28  30
ATOM     30  O   UNK     1       8.477   5.384  20.170  0.00  0.00    +0.000 OA
ATOM     31  H   UNK     1       8.354   6.032  20.906  0.00  0.00    +0.000 HD
ENDBRANCH  28  30
ENDBRANCH  24  28
ENDBRANCH  23  24
ENDBRANCH  22  23
ENDBRANCH   1  22
TORSDOF 10
ENDMDL
MODEL 6
REMARK VINA RESULT:      -7.9      2.219      4.571
REMARK  Name = 
REMARK  10 active torsions:
REMARK  status: ('A' for Active; 'I' for Inactive)
REMARK    1  A    between atoms: N_1  and  C_2
REMARK    2  A    between atoms: C_2  and  C_3
REMARK    3  A    between atoms: C_2  and  C_25
REMARK    4  A    between atoms: C_3  and  S_4
REMARK    5  A    between atoms: S_4  and  C_5
REMARK    6  A    between atoms: C_5  and  C_6
REMARK    7  A    between atoms: C_5  and  C_12
REMARK    8  A    between atoms: C_5  and  C_18
REMARK    9  A    between atoms: C_22  and  O_23
REMARK   10  A    between atoms: C_25  and  O_27
REMARK                            x       y       z     vdW  Elec       q    Type
REMARK                         _______ _______ _______ _____ _____    ______ ____
ROOT
ATOM      1  C   UNK     1       3.685   5.440  18.155  0.00  0.00    +0.000 C 
ENDROOT
BRANCH   1   2
ATOM      2  C   UNK     1       2.826   6.747  18.447  0.00  0.00    +0.000 A 
ATOM      3  C   UNK     1       2.259   6.971  19.724  0.00  0.00    +0.000 A 
ATOM      4  C   UNK     1       1.632   8.181  20.061  0.00  0.00    +0.000 A 
ATOM      5  C   UNK     1       1.535   9.203  19.126  0.00  0.00    +0.000 A 
ATOM      6  C   UNK     1       1.969   8.972  17.831  0.00  0.00    +0.000 A 
ATOM      7  C   UNK     1       2.548   7.742  17.490  0.00  0.00    +0.000 A 
ENDBRANCH   1   2
BRANCH   1   8
ATOM      8  C   UNK     1       4.372   5.415  16.724  0.00  0.00    +0.000 A 
ATOM      9  C   UNK     1       4.645   4.177  16.082  0.00  0.00    +0.000 A 
ATOM     10  C   UNK     1       5.329   4.113  14.854  0.00  0.00    +0.000 A 
ATOM     11  C   UNK     1       5.782   5.272  14.245  0.00  0.00    +0.000 A 
ATOM     12  C   UNK     1       5.492   6.500  14.819  0.00  0.00    +0.000 A 
ATOM     13  C   UNK     1       4.773   6.567  16.031  0.00  0.00    +0.000 A 
ENDBRANCH   1   8
BRANCH   1  14
ATOM     14  C   UNK     1       2.984   4.052  18.429  0.00  0.00    +0.000 A 
ATOM     15  C   UNK     1       1.578   3.909  18.512  0.00  0.00    +0.000 A 
ATOM     16  C   UNK     1       0.960   2.662  18.665  0.00  0.00    +0.000 A 
ATOM     17  C   UNK     1       1.727   1.506  18.689  0.00  0.00    +0.000 A 
ATOM     18  C   UNK     1       3.107   1.626  18.665  0.00  0.00    +0.000 A 
ATOM     19  C   UNK     1       3.725   2.877  18.649  0.00  0.00    +0.000 A 
BRANCH  18  20
ATOM     20  O   UNK     1       3.905   0.523  18.606  0.00  0.00    +0.000 OA
ATOM     21  H   UNK     1       4.386   0.453  19.449  0.00  0.00    +0.000 HD
ENDBRANCH  18  20
ENDBRANCH   1  14
BRANCH   1  22
ATOM     22  S   UNK     1       5.213   5.621  19.455  0.00  0.00    +0.000 S 
BRANCH  22  23
ATOM     23  C   UNK     1       6.580   4.887  18.469  0.00  0.00    +0.000 C 
BRANCH  23  24
ATOM     24  C   UNK     1       7.924   5.512  18.869  0.00  0.00    +0.000 C 
BRANCH  24  25
ATOM     25  N   UNK     1       8.147   5.586  20.349  0.00  0.00    +0.000 NA
ATOM     26  H   UNK     1       8.684   4.744  20.594  0.00  0.00    +0.000 HD
ATOM     27  H   UNK     1       7.244   5.433  20.814  0.00  0.00    +0.000 HD
ENDBRANCH  24  25
BRANCH  24  28
ATOM     28  C   UNK     1       8.042   6.936  18.306  0.00  0.00    +0.000 C 
ATOM     29  O   UNK     1       7.637   7.312  17.220  0.00  0.00    +0.000 OA
BRANCH  28  30
ATOM     30  O   UNK     1       8.695   7.751  19.180  0.00  0.00    +0.000 OA
ATOM     31  H   UNK     1       8.153   7.775  20.006  0.00  0.00    +0.000 HD
ENDBRANCH  28  30
ENDBRANCH  24  28
ENDBRANCH  23  24
ENDBRANCH  22  23
ENDBRANCH   1  22
TORSDOF 10
ENDMDL
MODEL 7
REMARK VINA RESULT:      -7.8      1.033      1.769
REMARK  Name = 
REMARK  10 active torsions:
REMARK  status: ('A' for Active; 'I' for Inactive)
REMARK    1  A    between atoms: N_1  and  C_2
REMARK    2  A    between atoms: C_2  and  C_3
REMARK    3  A    between atoms: C_2  and  C_25
REMARK    4  A    between atoms: C_3  and  S_4
REMARK    5  A    between atoms: S_4  and  C_5
REMARK    6  A    between atoms: C_5  and  C_6
REMARK    7  A    between atoms: C_5  and  C_12
REMARK    8  A    between atoms: C_5  and  C_18
REMARK    9  A    between atoms: C_22  and  O_23
REMARK   10  A    between atoms: C_25  and  O_27
REMARK                            x       y       z     vdW  Elec       q    Type
REMARK                         _______ _______ _______ _____ _____    ______ ____
ROOT
ATOM      1  C   UNK     1       4.212   5.818  17.896  0.00  0.00    +0.000 C 
ENDROOT
BRANCH   1   2
ATOM      2  C   UNK     1       5.747   6.119  18.185  0.00  0.00    +0.000 A 
ATOM      3  C   UNK     1       6.419   7.167  17.512  0.00  0.00    +0.000 A 
ATOM      4  C   UNK     1       7.722   7.561  17.856  0.00  0.00    +0.000 A 
ATOM      5  C   UNK     1       8.405   6.907  18.872  0.00  0.00    +0.000 A 
ATOM      6  C   UNK     1       7.826   5.799  19.467  0.00  0.00    +0.000 A 
ATOM      7  C   UNK     1       6.544   5.382  19.083  0.00  0.00    +0.000 A 
ENDBRANCH   1   2
BRANCH   1   8
ATOM      8  C   UNK     1       3.223   6.976  18.347  0.00  0.00    +0.000 A 
ATOM      9  C   UNK     1       2.630   6.950  19.638  0.00  0.00    +0.000 A 
ATOM     10  C   UNK     1       1.685   7.911  20.040  0.00  0.00    +0.000 A 
ATOM     11  C   UNK     1       1.284   8.906  19.164  0.00  0.00    +0.000 A 
ATOM     12  C   UNK     1       1.875   8.990  17.913  0.00  0.00    +0.000 A 
ATOM     13  C   UNK     1       2.852   8.049  17.524  0.00  0.00    +0.000 A 
ENDBRANCH   1   8
BRANCH   1  14
ATOM     14  C   UNK     1       3.655   4.425  18.391  0.00  0.00    +0.000 A 
ATOM     15  C   UNK     1       4.393   3.564  19.237  0.00  0.00    +0.000 A 
ATOM     16  C   UNK     1       3.858   2.373  19.745  0.00  0.00    +0.000 A 
ATOM     17  C   UNK     1       2.544   2.028  19.462  0.00  0.00    +0.000 A 
ATOM     18  C   UNK     1       1.821   2.827  18.592  0.00  0.00    +0.000 A 
ATOM     19  C   UNK     1       2.400   3.941  17.981  0.00  0.00    +0.000 A 
BRANCH  18  20
ATOM     20  O   UNK     1       0.504   2.580  18.343  0.00  0.00    +0.000 OA
ATOM     21  H   UNK     1       0.269   3.011  17.503  0.00  0.00    +0.000 HD
ENDBRANCH  18  20
ENDBRANCH   1  14
BRANCH   1  22
ATOM     22  S   UNK     1       4.133   5.829  15.884  0.00  0.00    +0.000 S 
BRANCH  22  23
ATOM     23  C   UNK     1       5.038   4.275  15.505  0.00  0.00    +0.000 C 
BRANCH  23  24
ATOM     24  C   UNK     1       6.025   4.499  14.350  0.00  0.00    +0.000 C 
BRANCH  24  25
ATOM     25  N   UNK     1       6.180   3.317  13.442  0.00  0.00    +0.000 NA
ATOM     26  H   UNK     1       5.916   2.496  14.002  0.00  0.00    +0.000 HD
ATOM     27  H   UNK     1       7.183   3.175  13.273  0.00  0.00    +0.000 HD
ENDBRANCH  24  25
BRANCH  24  28
ATOM     28  C   UNK     1       7.415   4.856  14.895  0.00  0.00    +0.000 C 
ATOM     29  O   UNK     1       7.870   4.517  15.973  0.00  0.00    +0.000 OA
BRANCH  28  30
ATOM     30  O   UNK     1       8.095   5.643  14.014  0.00  0.00    +0.000 OA
ATOM     31  H   UNK     1       7.570   6.473  13.912  0.00  0.00    +0.000 HD
ENDBRANCH  28  30
ENDBRANCH  24  28
ENDBRANCH  23  24
ENDBRANCH  22  23
ENDBRANCH   1  22
TORSDOF 10
ENDMDL
MODEL 8
REMARK VINA RESULT:      -7.8      1.038      1.273
REMARK  Name = 
REMARK  10 active torsions:
REMARK  status: ('A' for Active; 'I' for Inactive)
REMARK    1  A    between atoms: N_1  and  C_2
REMARK    2  A    between atoms: C_2  and  C_3
REMARK    3  A    between atoms: C_2  and  C_25
REMARK    4  A    between atoms: C_3  and  S_4
REMARK    5  A    between atoms: S_4  and  C_5
REMARK    6  A    between atoms: C_5  and  C_6
REMARK    7  A    between atoms: C_5  and  C_12
REMARK    8  A    between atoms: C_5  and  C_18
REMARK    9  A    between atoms: C_22  and  O_23
REMARK   10  A    between atoms: C_25  and  O_27
REMARK                            x       y       z     vdW  Elec       q    Type
REMARK                         _______ _______ _______ _____ _____    ______ ____
ROOT
ATOM      1  C   UNK     1       4.051   5.653  18.483  0.00  0.00    +0.000 C 
ENDROOT
BRANCH   1   2
ATOM      2  C   UNK     1       5.564   6.132  18.366  0.00  0.00    +0.000 A 
ATOM      3  C   UNK     1       5.929   7.163  17.467  0.00  0.00    +0.000 A 
ATOM      4  C   UNK     1       7.219   7.718  17.452  0.00  0.00    +0.000 A 
ATOM      5  C   UNK     1       8.193   7.249  18.323  0.00  0.00    +0.000 A 
ATOM      6  C   UNK     1       7.905   6.159  19.129  0.00  0.00    +0.000 A 
ATOM      7  C   UNK     1       6.630   5.579  19.102  0.00  0.00    +0.000 A 
ENDBRANCH   1   2
BRANCH   1   8
ATOM      8  C   UNK     1       3.010   6.827  18.729  0.00  0.00    +0.000 A 
ATOM      9  C   UNK     1       2.693   7.734  17.683  0.00  0.00    +0.000 A 
ATOM     10  C   UNK     1       1.843   8.836  17.888  0.00  0.00    +0.000 A 
ATOM     11  C   UNK     1       1.306   9.080  19.142  0.00  0.00    +0.000 A 
ATOM     12  C   UNK     1       1.556   8.189  20.174  0.00  0.00    +0.000 A 
ATOM     13  C   UNK     1       2.378   7.063  19.958  0.00  0.00    +0.000 A 
ENDBRANCH   1   8
BRANCH   1  14
ATOM     14  C   UNK     1       3.757   4.467  19.483  0.00  0.00    +0.000 A 
ATOM     15  C   UNK     1       2.573   4.395  20.256  0.00  0.00    +0.000 A 
ATOM     16  C   UNK     1       2.277   3.296  21.072  0.00  0.00    +0.000 A 
ATOM     17  C   UNK     1       3.135   2.206  21.104  0.00  0.00    +0.000 A 
ATOM     18  C   UNK     1       4.325   2.277  20.399  0.00  0.00    +0.000 A 
ATOM     19  C   UNK     1       4.681   3.428  19.694  0.00  0.00    +0.000 A 
BRANCH  18  20
ATOM     20  O   UNK     1       5.165   1.206  20.331  0.00  0.00    +0.000 OA
ATOM     21  H   UNK     1       6.030   1.478  20.684  0.00  0.00    +0.000 HD
ENDBRANCH  18  20
ENDBRANCH   1  14
BRANCH   1  22
ATOM     22  S   UNK     1       3.654   4.997  16.621  0.00  0.00    +0.000 S 
BRANCH  22  23
ATOM     23  C   UNK     1       5.134   3.953  16.310  0.00  0.00    +0.000 C 
BRANCH  23  24
ATOM     24  C   UNK     1       5.832   4.385  15.013  0.00  0.00    +0.000 C 
BRANCH  24  25
ATOM     25  N   UNK     1       5.821   3.342  13.937  0.00  0.00    +0.000 NA
ATOM     26  H   UNK     1       5.438   2.493  14.373  0.00  0.00    +0.000 HD
ATOM     27  H   UNK     1       6.795   3.085  13.733  0.00  0.00    +0.000 HD
ENDBRANCH  24  25
BRANCH  24  28
ATOM     28  C   UNK     1       7.296   4.757  15.291  0.00  0.00    +0.000 C 
ATOM     29  O   UNK     1       7.950   4.415  16.260  0.00  0.00    +0.000 OA
BRANCH  28  30
ATOM     30  O   UNK     1       7.789   5.560  14.307  0.00  0.00    +0.000 OA
ATOM     31  H   UNK     1       8.558   6.044  14.694  0.00  0.00    +0.000 HD
ENDBRANCH  28  30
ENDBRANCH  24  28
ENDBRANCH  23  24
ENDBRANCH  22  23
ENDBRANCH   1  22
TORSDOF 10
ENDMDL
MODEL 9
REMARK VINA RESULT:      -7.8      2.625      5.191
REMARK  Name = 
REMARK  10 active torsions:
REMARK  status: ('A' for Active; 'I' for Inactive)
REMARK    1  A    between atoms: N_1  and  C_2
REMARK    2  A    between atoms: C_2  and  C_3
REMARK    3  A    between atoms: C_2  and  C_25
REMARK    4  A    between atoms: C_3  and  S_4
REMARK    5  A    between atoms: S_4  and  C_5
REMARK    6  A    between atoms: C_5  and  C_6
REMARK    7  A    between atoms: C_5  and  C_12
REMARK    8  A    between atoms: C_5  and  C_18
REMARK    9  A    between atoms: C_22  and  O_23
REMARK   10  A    between atoms: C_25  and  O_27
REMARK                            x       y       z     vdW  Elec       q    Type
REMARK                         _______ _______ _______ _____ _____    ______ ____
ROOT
ATOM      1  C   UNK     1       3.376   5.529  18.418  0.00  0.00    +0.000 C 
ENDROOT
BRANCH   1   2
ATOM      2  C   UNK     1       4.137   5.512  17.021  0.00  0.00    +0.000 A 
ATOM      3  C   UNK     1       4.692   6.698  16.483  0.00  0.00    +0.000 A 
ATOM      4  C   UNK     1       5.503   6.690  15.337  0.00  0.00    +0.000 A 
ATOM      5  C   UNK     1       5.773   5.498  14.679  0.00  0.00    +0.000 A 
ATOM      6  C   UNK     1       5.146   4.338  15.105  0.00  0.00    +0.000 A 
ATOM      7  C   UNK     1       4.298   4.364  16.220  0.00  0.00    +0.000 A 
ENDBRANCH   1   2
BRANCH   1   8
ATOM      8  C   UNK     1       2.450   4.265  18.673  0.00  0.00    +0.000 A 
ATOM      9  C   UNK     1       1.457   4.297  19.690  0.00  0.00    +0.000 A 
ATOM     10  C   UNK     1       0.677   3.169  20.002  0.00  0.00    +0.000 A 
ATOM     11  C   UNK     1       0.878   1.973  19.332  0.00  0.00    +0.000 A 
ATOM     12  C   UNK     1       1.805   1.918  18.303  0.00  0.00    +0.000 A 
ATOM     13  C   UNK     1       2.561   3.060  17.964  0.00  0.00    +0.000 A 
ENDBRANCH   1   8
BRANCH   1  14
ATOM     14  C   UNK     1       2.584   6.846  18.779  0.00  0.00    +0.000 A 
ATOM     15  C   UNK     1       2.069   7.097  20.074  0.00  0.00    +0.000 A 
ATOM     16  C   UNK     1       1.446   8.306  20.411  0.00  0.00    +0.000 A 
ATOM     17  C   UNK     1       1.363   9.327  19.475  0.00  0.00    +0.000 A 
ATOM     18  C   UNK     1       1.810   9.084  18.187  0.00  0.00    +0.000 A 
ATOM     19  C   UNK     1       2.306   7.833  17.816  0.00  0.00    +0.000 A 
BRANCH  18  20
ATOM     20  O   UNK     1       1.825  10.075  17.251  0.00  0.00    +0.000 OA
ATOM     21  H   UNK     1       0.973  10.061  16.782  0.00  0.00    +0.000 HD
ENDBRANCH  18  20
ENDBRANCH   1  14
BRANCH   1  22
ATOM     22  S   UNK     1       4.882   5.337  19.741  0.00  0.00    +0.000 S 
BRANCH  22  23
ATOM     23  C   UNK     1       5.993   4.198  18.821  0.00  0.00    +0.000 C 
BRANCH  23  24
ATOM     24  C   UNK     1       7.226   4.954  18.305  0.00  0.00    +0.000 C 
BRANCH  24  25
ATOM     25  N   UNK     1       8.231   4.083  17.613  0.00  0.00    +0.000 NA
ATOM     26  H   UNK     1       8.393   4.517  16.695  0.00  0.00    +0.000 HD
ATOM     27  H   UNK     1       7.772   3.195  17.377  0.00  0.00    +0.000 HD
ENDBRANCH  24  25
BRANCH  24  28
ATOM     28  C   UNK     1       7.942   5.664  19.464  0.00  0.00    +0.000 C 
ATOM     29  O   UNK     1       8.112   5.215  20.583  0.00  0.00    +0.000 OA
BRANCH  28  30
ATOM     30  O   UNK     1       8.357   6.907  19.089  0.00  0.00    +0.000 OA
ATOM     31  H   UNK     1       8.737   7.334  19.895  0.00  0.00    +0.000 HD
ENDBRANCH  28  30
ENDBRANCH  24  28
ENDBRANCH  23  24
ENDBRANCH  22  23
ENDBRANCH   1  22
TORSDOF 10
ENDMDL
