MODEL 1
REMARK VINA RESULT:      -7.6      0.000      0.000
REMARK  Name = 
REMARK  4 active torsions:
REMARK  status: ('A' for Active; 'I' for Inactive)
REMARK    1  A    between atoms: C_1  and  C_2
REMARK    2  A    between atoms: C_3  and  C_4
REMARK    3  A    between atoms: C_4  and  N_5
REMARK    4  A    between atoms: N_11  and  C_12
REMARK                            x       y       z     vdW  Elec       q    Type
REMARK                         _______ _______ _______ _____ _____    ______ ____
ROOT
ATOM      1  N   UNL     1       0.830   9.546  19.652  0.00  0.00    +0.000 NA
ATOM      2  C   UNL     1       1.391   8.609  20.636  0.00  0.00    +0.000 C 
ATOM      3  C   UNL     1       1.874   7.313  19.948  0.00  0.00    +0.000 C 
ATOM      4  N   UNL     1       2.745   7.559  18.790  0.00  0.00    +0.000 N 
ATOM      5  C   UNL     1       3.464   6.460  18.303  0.00  0.00    +0.000 C 
ATOM      6  O   UNL     1       3.364   5.337  18.797  0.00  0.00    +0.000 OA
ATOM      7  N   UNL     1       4.327   6.798  17.283  0.00  0.00    +0.000 N 
ATOM      8  C   UNL     1       2.272   8.633  17.901  0.00  0.00    +0.000 C 
ATOM      9  C   UNL     1       1.857   9.898  18.671  0.00  0.00    +0.000 C 
ATOM     10  H   UNL     1       4.568   7.776  17.258  0.00  0.00    +0.000 HD
ENDROOT
BRANCH   7  11
ATOM     11  C   UNL     1       5.168   5.950  16.539  0.00  0.00    +0.000 A 
ATOM     12  C   UNL     1       4.749   4.811  15.861  0.00  0.00    +0.000 A 
ATOM     13  C   UNL     1       5.690   4.025  15.193  0.00  0.00    +0.000 A 
ATOM     14  C   UNL     1       7.019   4.417  15.213  0.00  0.00    +0.000 A 
ATOM     15  N   UNL     1       7.461   5.534  15.827  0.00  0.00    +0.000 NA
ATOM     16  C   UNL     1       6.524   6.270  16.469  0.00  0.00    +0.000 A 
ENDBRANCH   7  11
BRANCH   1  17
ATOM     17  C   UNL     1       0.081  10.678  20.202  0.00  0.00    +0.000 C 
BRANCH  17  20
ATOM     18  C   UNL     1      -2.222  12.771  21.105  0.00  0.00    +0.000 C 
ATOM     19  C   UNL     1      -2.221  11.895  19.892  0.00  0.00    +0.000 A 
ATOM     20  C   UNL     1      -1.206  11.031  19.505  0.00  0.00    +0.000 A 
ATOM     21  S   UNL     1      -1.494  10.383  17.945  0.00  0.00    +0.000 S 
ATOM     22  C   UNL     1      -3.063  11.063  17.854  0.00  0.00    +0.000 A 
ATOM     23  C   UNL     1      -3.996  10.898  16.812  0.00  0.00    +0.000 A 
ATOM     24  C   UNL     1      -5.250  11.498  16.927  0.00  0.00    +0.000 A 
ATOM     25  C   UNL     1      -5.566  12.258  18.043  0.00  0.00    +0.000 A 
ATOM     26  C   UNL     1      -4.623  12.445  19.057  0.00  0.00    +0.000 A 
ATOM     27  C   UNL     1      -3.343  11.839  18.977  0.00  0.00    +0.000 A 
ENDBRANCH  17  20
ENDBRANCH   1  17
TORSDOF 3
ENDMDL
MODEL 2
REMARK VINA RESULT:      -7.5      1.253      1.576
REMARK  Name = 
REMARK  4 active torsions:
REMARK  status: ('A' for Active; 'I' for Inactive)
REMARK    1  A    between atoms: C_1  and  C_2
REMARK    2  A    between atoms: C_3  and  C_4
REMARK    3  A    between atoms: C_4  and  N_5
REMARK    4  A    between atoms: N_11  and  C_12
REMARK                            x       y       z     vdW  Elec       q    Type
REMARK                         _______ _______ _______ _____ _____    ______ ____
ROOT
ATOM      1  N   UNL     1       0.009  10.784  19.596  0.00  0.00    +0.000 NA
ATOM      2  C   UNL     1       0.610  10.160  20.784  0.00  0.00    +0.000 C 
ATOM      3  C   UNL     1       1.025   8.702  20.489  0.00  0.00    +0.000 C 
ATOM      4  N   UNL     1       1.829   8.562  19.267  0.00  0.00    +0.000 N 
ATOM      5  C   UNL     1       2.495   7.342  19.092  0.00  0.00    +0.000 C 
ATOM      6  O   UNL     1       2.403   6.420  19.903  0.00  0.00    +0.000 OA
ATOM      7  N   UNL     1       3.301   7.331  17.975  0.00  0.00    +0.000 N 
ATOM      8  C   UNL     1       1.324   9.341  18.124  0.00  0.00    +0.000 C 
ATOM      9  C   UNL     1       0.982  10.791  18.503  0.00  0.00    +0.000 C 
ATOM     10  H   UNL     1       3.559   8.248  17.647  0.00  0.00    +0.000 HD
ENDROOT
BRANCH   7  11
ATOM     11  C   UNL     1       4.078   6.270  17.474  0.00  0.00    +0.000 A 
ATOM     12  C   UNL     1       3.660   4.947  17.393  0.00  0.00    +0.000 A 
ATOM     13  C   UNL     1       4.542   3.976  16.917  0.00  0.00    +0.000 A 
ATOM     14  C   UNL     1       5.812   4.366  16.522  0.00  0.00    +0.000 A 
ATOM     15  N   UNL     1       6.244   5.644  16.549  0.00  0.00    +0.000 NA
ATOM     16  C   UNL     1       5.366   6.559  17.020  0.00  0.00    +0.000 A 
ENDBRANCH   7  11
BRANCH   1  17
ATOM     17  C   UNL     1      -0.683  12.054  19.822  0.00  0.00    +0.000 C 
BRANCH  17  20
ATOM     18  C   UNL     1      -3.088  13.485  21.456  0.00  0.00    +0.000 C 
ATOM     19  C   UNL     1      -3.205  12.654  20.218  0.00  0.00    +0.000 A 
ATOM     20  C   UNL     1      -2.156  12.079  19.513  0.00  0.00    +0.000 A 
ATOM     21  S   UNL     1      -2.692  11.399  18.034  0.00  0.00    +0.000 S 
ATOM     22  C   UNL     1      -4.342  11.661  18.407  0.00  0.00    +0.000 A 
ATOM     23  C   UNL     1      -5.454  11.278  17.633  0.00  0.00    +0.000 A 
ATOM     24  C   UNL     1      -6.736  11.540  18.117  0.00  0.00    +0.000 A 
ATOM     25  C   UNL     1      -6.911  12.181  19.334  0.00  0.00    +0.000 A 
ATOM     26  C   UNL     1      -5.803  12.588  20.080  0.00  0.00    +0.000 A 
ATOM     27  C   UNL     1      -4.486  12.326  19.624  0.00  0.00    +0.000 A 
ENDBRANCH  17  20
ENDBRANCH   1  17
TORSDOF 3
ENDMDL
MODEL 3
REMARK VINA RESULT:      -7.4      2.311      3.427
REMARK  Name = 
REMARK  4 active torsions:
REMARK  status: ('A' for Active; 'I' for Inactive)
REMARK    1  A    between atoms: C_1  and  C_2
REMARK    2  A    between atoms: C_3  and  C_4
REMARK    3  A    between atoms: C_4  and  N_5
REMARK    4  A    between atoms: N_11  and  C_12
REMARK                            x       y       z     vdW  Elec       q    Type
REMARK                         _______ _______ _______ _____ _____    ______ ____
ROOT
ATOM      1  N   UNL     1       0.195  10.933  20.572  0.00  0.00    +0.000 NA
ATOM      2  C   UNL     1       0.813  10.183  21.675  0.00  0.00    +0.000 C 
ATOM      3  C   UNL     1       0.980   8.693  21.302  0.00  0.00    +0.000 C 
ATOM      4  N   UNL     1       1.630   8.489  20.000  0.00  0.00    +0.000 N 
ATOM      5  C   UNL     1       2.090   7.194  19.727  0.00  0.00    +0.000 C 
ATOM      6  O   UNL     1       1.944   6.263  20.519  0.00  0.00    +0.000 OA
ATOM      7  N   UNL     1       2.772   7.113  18.532  0.00  0.00    +0.000 N 
ATOM      8  C   UNL     1       1.134   9.377  18.936  0.00  0.00    +0.000 C 
ATOM      9  C   UNL     1       1.046  10.845  19.384  0.00  0.00    +0.000 C 
ATOM     10  H   UNL     1       3.127   7.996  18.202  0.00  0.00    +0.000 HD
ENDROOT
BRANCH   7  11
ATOM     11  C   UNL     1       3.332   5.973  17.927  0.00  0.00    +0.000 A 
ATOM     12  C   UNL     1       2.676   4.759  17.757  0.00  0.00    +0.000 A 
ATOM     13  C   UNL     1       3.356   3.685  17.180  0.00  0.00    +0.000 A 
ATOM     14  C   UNL     1       4.670   3.869  16.777  0.00  0.00    +0.000 A 
ATOM     15  N   UNL     1       5.330   5.040  16.890  0.00  0.00    +0.000 NA
ATOM     16  C   UNL     1       4.643   6.058  17.457  0.00  0.00    +0.000 A 
ENDBRANCH   7  11
BRANCH   1  17
ATOM     17  C   UNL     1      -0.278  12.279  20.900  0.00  0.00    +0.000 C 
BRANCH  17  20
ATOM     18  C   UNL     1      -3.162  12.305  19.424  0.00  0.00    +0.000 C 
ATOM     19  C   UNL     1      -2.896  12.427  20.891  0.00  0.00    +0.000 A 
ATOM     20  C   UNL     1      -1.652  12.377  21.505  0.00  0.00    +0.000 A 
ATOM     21  S   UNL     1      -1.797  12.328  23.213  0.00  0.00    +0.000 S 
ATOM     22  C   UNL     1      -3.488  12.592  23.166  0.00  0.00    +0.000 A 
ATOM     23  C   UNL     1      -4.350  12.741  24.270  0.00  0.00    +0.000 A 
ATOM     24  C   UNL     1      -5.703  12.992  24.040  0.00  0.00    +0.000 A 
ATOM     25  C   UNL     1      -6.194  13.076  22.746  0.00  0.00    +0.000 A 
ATOM     26  C   UNL     1      -5.338  12.892  21.657  0.00  0.00    +0.000 A 
ATOM     27  C   UNL     1      -3.955  12.649  21.855  0.00  0.00    +0.000 A 
ENDBRANCH  17  20
ENDBRANCH   1  17
TORSDOF 3
ENDMDL
MODEL 4
REMARK VINA RESULT:      -7.4      2.480      3.406
REMARK  Name = 
REMARK  4 active torsions:
REMARK  status: ('A' for Active; 'I' for Inactive)
REMARK    1  A    between atoms: C_1  and  C_2
REMARK    2  A    between atoms: C_3  and  C_4
REMARK    3  A    between atoms: C_4  and  N_5
REMARK    4  A    between atoms: N_11  and  C_12
REMARK                            x       y       z     vdW  Elec       q    Type
REMARK                         _______ _______ _______ _____ _____    ______ ____
ROOT
ATOM      1  N   UNL     1      -0.258  11.382  20.116  0.00  0.00    +0.000 NA
ATOM      2  C   UNL     1       0.532  10.887  21.253  0.00  0.00    +0.000 C 
ATOM      3  C   UNL     1       0.799   9.372  21.120  0.00  0.00    +0.000 C 
ATOM      4  N   UNL     1       1.334   8.989  19.806  0.00  0.00    +0.000 N 
ATOM      5  C   UNL     1       1.884   7.704  19.705  0.00  0.00    +0.000 C 
ATOM      6  O   UNL     1       1.904   6.920  20.654  0.00  0.00    +0.000 OA
ATOM      7  N   UNL     1       2.450   7.463  18.472  0.00  0.00    +0.000 N 
ATOM      8  C   UNL     1       0.656   9.635  18.671  0.00  0.00    +0.000 C 
ATOM      9  C   UNL     1       0.477  11.149  18.873  0.00  0.00    +0.000 C 
ATOM     10  H   UNL     1       2.687   8.298  17.960  0.00  0.00    +0.000 HD
ENDROOT
BRANCH   7  11
ATOM     11  C   UNL     1       3.051   6.279  18.008  0.00  0.00    +0.000 A 
ATOM     12  C   UNL     1       2.404   5.056  17.878  0.00  0.00    +0.000 A 
ATOM     13  C   UNL     1       3.123   3.940  17.448  0.00  0.00    +0.000 A 
ATOM     14  C   UNL     1       4.468   4.091  17.146  0.00  0.00    +0.000 A 
ATOM     15  N   UNL     1       5.124   5.267  17.222  0.00  0.00    +0.000 NA
ATOM     16  C   UNL     1       4.399   6.327  17.647  0.00  0.00    +0.000 A 
ENDBRANCH   7  11
BRANCH   1  17
ATOM     17  C   UNL     1      -0.820  12.726  20.265  0.00  0.00    +0.000 C 
BRANCH  17  20
ATOM     18  C   UNL     1      -1.363  13.459  23.374  0.00  0.00    +0.000 C 
ATOM     19  C   UNL     1      -2.381  13.104  22.337  0.00  0.00    +0.000 A 
ATOM     20  C   UNL     1      -2.128  12.828  21.000  0.00  0.00    +0.000 A 
ATOM     21  S   UNL     1      -3.582  12.690  20.103  0.00  0.00    +0.000 S 
ATOM     22  C   UNL     1      -4.561  12.775  21.504  0.00  0.00    +0.000 A 
ATOM     23  C   UNL     1      -5.964  12.662  21.563  0.00  0.00    +0.000 A 
ATOM     24  C   UNL     1      -6.594  12.717  22.806  0.00  0.00    +0.000 A 
ATOM     25  C   UNL     1      -5.852  12.895  23.964  0.00  0.00    +0.000 A 
ATOM     26  C   UNL     1      -4.465  13.040  23.894  0.00  0.00    +0.000 A 
ATOM     27  C   UNL     1      -3.791  12.977  22.648  0.00  0.00    +0.000 A 
ENDBRANCH  17  20
ENDBRANCH   1  17
TORSDOF 3
ENDMDL
MODEL 5
REMARK VINA RESULT:      -7.3      1.828      2.162
REMARK  Name = 
REMARK  4 active torsions:
REMARK  status: ('A' for Active; 'I' for Inactive)
REMARK    1  A    between atoms: C_1  and  C_2
REMARK    2  A    between atoms: C_3  and  C_4
REMARK    3  A    between atoms: C_4  and  N_5
REMARK    4  A    between atoms: N_11  and  C_12
REMARK                            x       y       z     vdW  Elec       q    Type
REMARK                         _______ _______ _______ _____ _____    ______ ____
ROOT
ATOM      1  N   UNL     1      -0.228  10.707  20.092  0.00  0.00    +0.000 NA
ATOM      2  C   UNL     1       0.186  10.085  21.358  0.00  0.00    +0.000 C 
ATOM      3  C   UNL     1       0.537   8.594  21.150  0.00  0.00    +0.000 C 
ATOM      4  N   UNL     1       1.470   8.368  20.037  0.00  0.00    +0.000 N 
ATOM      5  C   UNL     1       2.071   7.104  19.973  0.00  0.00    +0.000 C 
ATOM      6  O   UNL     1       1.822   6.215  20.788  0.00  0.00    +0.000 OA
ATOM      7  N   UNL     1       3.002   7.008  18.962  0.00  0.00    +0.000 N 
ATOM      8  C   UNL     1       1.156   9.140  18.824  0.00  0.00    +0.000 C 
ATOM      9  C   UNL     1       0.867  10.621  19.125  0.00  0.00    +0.000 C 
ATOM     10  H   UNL     1       3.356   7.897  18.646  0.00  0.00    +0.000 HD
ENDROOT
BRANCH   7  11
ATOM     11  C   UNL     1       3.762   5.886  18.584  0.00  0.00    +0.000 A 
ATOM     12  C   UNL     1       3.458   5.041  17.522  0.00  0.00    +0.000 A 
ATOM     13  C   UNL     1       4.269   3.932  17.274  0.00  0.00    +0.000 A 
ATOM     14  C   UNL     1       5.368   3.715  18.091  0.00  0.00    +0.000 A 
ATOM     15  N   UNL     1       5.718   4.530  19.106  0.00  0.00    +0.000 NA
ATOM     16  C   UNL     1       4.909   5.593  19.322  0.00  0.00    +0.000 A 
ENDBRANCH   7  11
BRANCH   1  17
ATOM     17  C   UNL     1      -0.857  12.025  20.203  0.00  0.00    +0.000 C 
BRANCH  17  20
ATOM     18  C   UNL     1      -3.337  13.498  21.680  0.00  0.00    +0.000 C 
ATOM     19  C   UNL     1      -3.380  12.711  20.409  0.00  0.00    +0.000 A 
ATOM     20  C   UNL     1      -2.297  12.117  19.774  0.00  0.00    +0.000 A 
ATOM     21  S   UNL     1      -2.730  11.506  18.233  0.00  0.00    +0.000 S 
ATOM     22  C   UNL     1      -4.395  11.821  18.477  0.00  0.00    +0.000 A 
ATOM     23  C   UNL     1      -5.452  11.508  17.600  0.00  0.00    +0.000 A 
ATOM     24  C   UNL     1      -6.759  11.805  17.984  0.00  0.00    +0.000 A 
ATOM     25  C   UNL     1      -7.013  12.414  19.204  0.00  0.00    +0.000 A 
ATOM     26  C   UNL     1      -5.957  12.753  20.053  0.00  0.00    +0.000 A 
ATOM     27  C   UNL     1      -4.617  12.453  19.699  0.00  0.00    +0.000 A 
ENDBRANCH  17  20
ENDBRANCH   1  17
TORSDOF 3
ENDMDL
MODEL 6
REMARK VINA RESULT:      -7.2      2.002      2.666
REMARK  Name = 
REMARK  4 active torsions:
REMARK  status: ('A' for Active; 'I' for Inactive)
REMARK    1  A    between atoms: C_1  and  C_2
REMARK    2  A    between atoms: C_3  and  C_4
REMARK    3  A    between atoms: C_4  and  N_5
REMARK    4  A    between atoms: N_11  and  C_12
REMARK                            x       y       z     vdW  Elec       q    Type
REMARK                         _______ _______ _______ _____ _____    ______ ____
ROOT
ATOM      1  N   UNL     1       0.104  10.824  20.815  0.00  0.00    +0.000 NA
ATOM      2  C   UNL     1       0.687  10.052  21.923  0.00  0.00    +0.000 C 
ATOM      3  C   UNL     1       0.845   8.565  21.534  0.00  0.00    +0.000 C 
ATOM      4  N   UNL     1       1.524   8.371  20.245  0.00  0.00    +0.000 N 
ATOM      5  C   UNL     1       1.975   7.074  19.966  0.00  0.00    +0.000 C 
ATOM      6  O   UNL     1       1.801   6.135  20.742  0.00  0.00    +0.000 OA
ATOM      7  N   UNL     1       2.685   7.000  18.787  0.00  0.00    +0.000 N 
ATOM      8  C   UNL     1       1.064   9.278  19.182  0.00  0.00    +0.000 C 
ATOM      9  C   UNL     1       0.982  10.741  19.648  0.00  0.00    +0.000 C 
ATOM     10  H   UNL     1       3.058   7.884  18.478  0.00  0.00    +0.000 HD
ENDROOT
BRANCH   7  11
ATOM     11  C   UNL     1       3.246   5.862  18.180  0.00  0.00    +0.000 A 
ATOM     12  C   UNL     1       2.528   4.747  17.764  0.00  0.00    +0.000 A 
ATOM     13  C   UNL     1       3.208   3.658  17.214  0.00  0.00    +0.000 A 
ATOM     14  C   UNL     1       4.586   3.731  17.085  0.00  0.00    +0.000 A 
ATOM     15  N   UNL     1       5.316   4.808  17.442  0.00  0.00    +0.000 NA
ATOM     16  C   UNL     1       4.627   5.843  17.975  0.00  0.00    +0.000 A 
ENDBRANCH   7  11
BRANCH   1  17
ATOM     17  C   UNL     1      -0.362  12.171  21.150  0.00  0.00    +0.000 C 
BRANCH  17  20
ATOM     18  C   UNL     1      -2.399  13.135  23.478  0.00  0.00    +0.000 C 
ATOM     19  C   UNL     1      -2.742  12.782  22.065  0.00  0.00    +0.000 A 
ATOM     20  C   UNL     1      -1.846  12.405  21.074  0.00  0.00    +0.000 A 
ATOM     21  S   UNL     1      -2.611  12.305  19.543  0.00  0.00    +0.000 S 
ATOM     22  C   UNL     1      -4.171  12.544  20.206  0.00  0.00    +0.000 A 
ATOM     23  C   UNL     1      -5.396  12.527  19.511  0.00  0.00    +0.000 A 
ATOM     24  C   UNL     1      -6.580  12.702  20.227  0.00  0.00    +0.000 A 
ATOM     25  C   UNL     1      -6.550  12.905  21.598  0.00  0.00    +0.000 A 
ATOM     26  C   UNL     1      -5.329  12.954  22.275  0.00  0.00    +0.000 A 
ATOM     27  C   UNL     1      -4.107  12.768  21.580  0.00  0.00    +0.000 A 
ENDBRANCH  17  20
ENDBRANCH   1  17
TORSDOF 3
ENDMDL
MODEL 7
REMARK VINA RESULT:      -7.2      1.640      2.582
REMARK  Name = 
REMARK  4 active torsions:
REMARK  status: ('A' for Active; 'I' for Inactive)
REMARK    1  A    between atoms: C_1  and  C_2
REMARK    2  A    between atoms: C_3  and  C_4
REMARK    3  A    between atoms: C_4  and  N_5
REMARK    4  A    between atoms: N_11  and  C_12
REMARK                            x       y       z     vdW  Elec       q    Type
REMARK                         _______ _______ _______ _____ _____    ______ ____
ROOT
ATOM      1  N   UNL     1      -0.288  10.956  19.485  0.00  0.00    +0.000 NA
ATOM      2  C   UNL     1       0.339  10.444  20.712  0.00  0.00    +0.000 C 
ATOM      3  C   UNL     1       0.795   8.980  20.529  0.00  0.00    +0.000 C 
ATOM      4  N   UNL     1       1.596   8.769  19.314  0.00  0.00    +0.000 N 
ATOM      5  C   UNL     1       2.296   7.558  19.230  0.00  0.00    +0.000 C 
ATOM      6  O   UNL     1       2.237   6.700  20.110  0.00  0.00    +0.000 OA
ATOM      7  N   UNL     1       3.096   7.484  18.110  0.00  0.00    +0.000 N 
ATOM      8  C   UNL     1       1.061   9.441  18.119  0.00  0.00    +0.000 C 
ATOM      9  C   UNL     1       0.678  10.906  18.387  0.00  0.00    +0.000 C 
ATOM     10  H   UNL     1       3.324   8.380  17.709  0.00  0.00    +0.000 HD
ENDROOT
BRANCH   7  11
ATOM     11  C   UNL     1       3.901   6.410  17.686  0.00  0.00    +0.000 A 
ATOM     12  C   UNL     1       5.245   6.510  17.346  0.00  0.00    +0.000 A 
ATOM     13  C   UNL     1       5.925   5.377  16.897  0.00  0.00    +0.000 A 
ATOM     14  C   UNL     1       5.238   4.175  16.819  0.00  0.00    +0.000 A 
ATOM     15  N   UNL     1       3.946   4.028  17.175  0.00  0.00    +0.000 NA
ATOM     16  C   UNL     1       3.315   5.146  17.601  0.00  0.00    +0.000 A 
ENDBRANCH   7  11
BRANCH   1  17
ATOM     17  C   UNL     1      -1.015  12.219  19.617  0.00  0.00    +0.000 C 
BRANCH  17  20
ATOM     18  C   UNL     1      -2.692  10.954  17.151  0.00  0.00    +0.000 C 
ATOM     19  C   UNL     1      -3.242  11.654  18.352  0.00  0.00    +0.000 A 
ATOM     20  C   UNL     1      -2.506  12.158  19.416  0.00  0.00    +0.000 A 
ATOM     21  S   UNL     1      -3.524  12.682  20.691  0.00  0.00    +0.000 S 
ATOM     22  C   UNL     1      -4.948  12.455  19.768  0.00  0.00    +0.000 A 
ATOM     23  C   UNL     1      -6.266  12.752  20.163  0.00  0.00    +0.000 A 
ATOM     24  C   UNL     1      -7.307  12.537  19.258  0.00  0.00    +0.000 A 
ATOM     25  C   UNL     1      -7.047  12.022  17.997  0.00  0.00    +0.000 A 
ATOM     26  C   UNL     1      -5.740  11.697  17.626  0.00  0.00    +0.000 A 
ATOM     27  C   UNL     1      -4.658  11.916  18.516  0.00  0.00    +0.000 A 
ENDBRANCH  17  20
ENDBRANCH   1  17
TORSDOF 3
ENDMDL
MODEL 8
REMARK VINA RESULT:      -7.2      2.077      2.996
REMARK  Name = 
REMARK  4 active torsions:
REMARK  status: ('A' for Active; 'I' for Inactive)
REMARK    1  A    between atoms: C_1  and  C_2
REMARK    2  A    between atoms: C_3  and  C_4
REMARK    3  A    between atoms: C_4  and  N_5
REMARK    4  A    between atoms: N_11  and  C_12
REMARK                            x       y       z     vdW  Elec       q    Type
REMARK                         _______ _______ _______ _____ _____    ______ ____
ROOT
ATOM      1  N   UNL     1       0.041  10.813  20.832  0.00  0.00    +0.000 NA
ATOM      2  C   UNL     1       0.640  10.060  21.944  0.00  0.00    +0.000 C 
ATOM      3  C   UNL     1       0.827   8.574  21.566  0.00  0.00    +0.000 C 
ATOM      4  N   UNL     1       1.509   8.384  20.278  0.00  0.00    +0.000 N 
ATOM      5  C   UNL     1       1.986   7.095  20.006  0.00  0.00    +0.000 C 
ATOM      6  O   UNL     1       1.830   6.158  20.789  0.00  0.00    +0.000 OA
ATOM      7  N   UNL     1       2.695   7.027  18.827  0.00  0.00    +0.000 N 
ATOM      8  C   UNL     1       1.030   9.275  19.208  0.00  0.00    +0.000 C 
ATOM      9  C   UNL     1       0.920  10.740  19.665  0.00  0.00    +0.000 C 
ATOM     10  H   UNL     1       3.051   7.916  18.512  0.00  0.00    +0.000 HD
ENDROOT
BRANCH   7  11
ATOM     11  C   UNL     1       3.279   5.896  18.228  0.00  0.00    +0.000 A 
ATOM     12  C   UNL     1       2.575   4.794  17.755  0.00  0.00    +0.000 A 
ATOM     13  C   UNL     1       3.274   3.711  17.219  0.00  0.00    +0.000 A 
ATOM     14  C   UNL     1       4.657   3.775  17.160  0.00  0.00    +0.000 A 
ATOM     15  N   UNL     1       5.375   4.840  17.573  0.00  0.00    +0.000 NA
ATOM     16  C   UNL     1       4.668   5.870  18.091  0.00  0.00    +0.000 A 
ENDBRANCH   7  11
BRANCH   1  17
ATOM     17  C   UNL     1      -0.450  12.153  21.159  0.00  0.00    +0.000 C 
BRANCH  17  20
ATOM     18  C   UNL     1      -2.485  11.982  18.643  0.00  0.00    +0.000 C 
ATOM     19  C   UNL     1      -2.827  12.311  20.061  0.00  0.00    +0.000 A 
ATOM     20  C   UNL     1      -1.943  12.344  21.131  0.00  0.00    +0.000 A 
ATOM     21  S   UNL     1      -2.768  12.541  22.620  0.00  0.00    +0.000 S 
ATOM     22  C   UNL     1      -4.276  12.804  21.853  0.00  0.00    +0.000 A 
ATOM     23  C   UNL     1      -5.499  13.115  22.478  0.00  0.00    +0.000 A 
ATOM     24  C   UNL     1      -6.625  13.337  21.686  0.00  0.00    +0.000 A 
ATOM     25  C   UNL     1      -6.544  13.237  20.305  0.00  0.00    +0.000 A 
ATOM     26  C   UNL     1      -5.335  12.895  19.694  0.00  0.00    +0.000 A 
ATOM     27  C   UNL     1      -4.169  12.675  20.470  0.00  0.00    +0.000 A 
ENDBRANCH  17  20
ENDBRANCH   1  17
TORSDOF 3
ENDMDL
MODEL 9
REMARK VINA RESULT:      -7.2      2.612      3.960
REMARK  Name = 
REMARK  4 active torsions:
REMARK  status: ('A' for Active; 'I' for Inactive)
REMARK    1  A    between atoms: C_1  and  C_2
REMARK    2  A    between atoms: C_3  and  C_4
REMARK    3  A    between atoms: C_4  and  N_5
REMARK    4  A    between atoms: N_11  and  C_12
REMARK                            x       y       z     vdW  Elec       q    Type
REMARK                         _______ _______ _______ _____ _____    ______ ____
ROOT
ATOM      1  N   UNL     1      -1.143  11.702  20.269  0.00  0.00    +0.000 NA
ATOM      2  C   UNL     1      -0.202  11.389  21.353  0.00  0.00    +0.000 C 
ATOM      3  C   UNL     1       0.292   9.929  21.250  0.00  0.00    +0.000 C 
ATOM      4  N   UNL     1       0.782   9.575  19.910  0.00  0.00    +0.000 N 
ATOM      5  C   UNL     1       1.519   8.388  19.807  0.00  0.00    +0.000 C 
ATOM      6  O   UNL     1       1.734   7.661  20.777  0.00  0.00    +0.000 OA
ATOM      7  N   UNL     1       2.022   8.182  18.541  0.00  0.00    +0.000 N 
ATOM      8  C   UNL     1      -0.073  10.055  18.812  0.00  0.00    +0.000 C 
ATOM      9  C   UNL     1      -0.475  11.530  18.978  0.00  0.00    +0.000 C 
ATOM     10  H   UNL     1       2.086   9.020  17.985  0.00  0.00    +0.000 HD
ENDROOT
BRANCH   7  11
ATOM     11  C   UNL     1       2.768   7.087  18.070  0.00  0.00    +0.000 A 
ATOM     12  C   UNL     1       2.369   5.757  18.155  0.00  0.00    +0.000 A 
ATOM     13  C   UNL     1       3.221   4.754  17.689  0.00  0.00    +0.000 A 
ATOM     14  C   UNL     1       4.440   5.118  17.138  0.00  0.00    +0.000 A 
ATOM     15  N   UNL     1       4.848   6.396  17.004  0.00  0.00    +0.000 NA
ATOM     16  C   UNL     1       4.002   7.343  17.469  0.00  0.00    +0.000 A 
ENDBRANCH   7  11
BRANCH   1  17
ATOM     17  C   UNL     1      -1.898  12.948  20.417  0.00  0.00    +0.000 C 
BRANCH  17  20
ATOM     18  C   UNL     1      -4.743  12.127  19.102  0.00  0.00    +0.000 C 
ATOM     19  C   UNL     1      -4.484  12.524  20.521  0.00  0.00    +0.000 A 
ATOM     20  C   UNL     1      -3.249  12.838  21.072  0.00  0.00    +0.000 A 
ATOM     21  S   UNL     1      -3.348  13.019  22.773  0.00  0.00    +0.000 S 
ATOM     22  C   UNL     1      -5.056  12.902  22.776  0.00  0.00    +0.000 A 
ATOM     23  C   UNL     1      -5.910  13.028  23.889  0.00  0.00    +0.000 A 
ATOM     24  C   UNL     1      -7.289  12.943  23.695  0.00  0.00    +0.000 A 
ATOM     25  C   UNL     1      -7.809  12.722  22.429  0.00  0.00    +0.000 A 
ATOM     26  C   UNL     1      -6.954  12.563  21.335  0.00  0.00    +0.000 A 
ATOM     27  C   UNL     1      -5.548  12.657  21.495  0.00  0.00    +0.000 A 
ENDBRANCH  17  20
ENDBRANCH   1  17
TORSDOF 3
ENDMDL
