MODEL 1
REMARK VINA RESULT:      -7.4      0.000      0.000
REMARK  Name = 
REMARK  10 active torsions:
REMARK  status: ('A' for Active; 'I' for Inactive)
REMARK    1  A    between atoms: C_1  and  C_2
REMARK    2  A    between atoms: C_2  and  C_3
REMARK    3  A    between atoms: C_3  and  C_4
REMARK    4  A    between atoms: C_4  and  S_5
REMARK    5  A    between atoms: S_5  and  N_8
REMARK    6  A    between atoms: N_10  and  S_11
REMARK    7  A    between atoms: S_11  and  C_14
REMARK    8  A    between atoms: C_14  and  C_15
REMARK    9  A    between atoms: C_15  and  C_16
REMARK   10  A    between atoms: C_16  and  C_17
REMARK                            x       y       z     vdW  Elec       q    Type
REMARK                         _______ _______ _______ _____ _____    ______ ____
ROOT
ATOM      1  N   UNL     1       4.512   4.154  18.205  0.00  0.00    +0.000 NA
ATOM      2  C   UNL     1       4.501   4.343  16.741  0.00  0.00    +0.000 C 
ATOM      3  N   UNL     1       5.866   4.093  16.226  0.00  0.00    +0.000 NA
ATOM      4  C   UNL     1       6.782   4.185  17.382  0.00  0.00    +0.000 C 
ATOM      5  N   UNL     1       7.694   5.292  17.367  0.00  0.00    +0.000 N 
ATOM      6  C   UNL     1       7.127   6.379  18.013  0.00  0.00    +0.000 C 
ATOM      7  O   UNL     1       7.521   7.529  17.949  0.00  0.00    +0.000 OA
ATOM      8  N   UNL     1       6.029   5.932  18.722  0.00  0.00    +0.000 N 
ATOM      9  C   UNL     1       5.880   4.504  18.600  0.00  0.00    +0.000 C 
ATOM     10  H   UNL     1       8.358   5.501  16.638  0.00  0.00    +0.000 HD
ATOM     11  H   UNL     1       5.493   6.548  19.314  0.00  0.00    +0.000 HD
ENDROOT
BRANCH   1  12
ATOM     12  S   UNL     1       3.955   2.663  18.764  0.00  0.00    +0.000 S 
ATOM     13  O   UNL     1       4.706   2.369  19.971  0.00  0.00    +0.000 OA
ATOM     14  O   UNL     1       3.953   1.742  17.654  0.00  0.00    +0.000 OA
BRANCH  12  15
ATOM     15  C   UNL     1       2.250   3.001  19.232  0.00  0.00    +0.000 C 
BRANCH  15  16
ATOM     16  C   UNL     1       2.138   4.310  20.011  0.00  0.00    +0.000 C 
BRANCH  16  18
ATOM     17  C   UNL     1       1.617   2.616  21.799  0.00  0.00    +0.000 C 
ATOM     18  C   UNL     1       2.013   4.055  21.513  0.00  0.00    +0.000 C 
ENDBRANCH  16  18
ENDBRANCH  15  16
ENDBRANCH  12  15
ENDBRANCH   1  12
BRANCH   3  19
ATOM     19  S   UNL     1       6.252   4.944  14.841  0.00  0.00    +0.000 S 
ATOM     20  O   UNL     1       5.759   6.307  15.010  0.00  0.00    +0.000 OA
ATOM     21  O   UNL     1       7.643   4.709  14.572  0.00  0.00    +0.000 OA
BRANCH  19  22
ATOM     22  C   UNL     1       5.270   4.183  13.537  0.00  0.00    +0.000 C 
BRANCH  22  23
ATOM     23  C   UNL     1       6.239   3.510  12.569  0.00  0.00    +0.000 C 
BRANCH  23  24
ATOM     24  C   UNL     1       5.569   2.516  11.633  0.00  0.00    +0.000 C 
ATOM     25  C   UNL     1       4.192   3.025  11.232  0.00  0.00    +0.000 C 
ENDBRANCH  23  24
ENDBRANCH  22  23
ENDBRANCH  19  22
ENDBRANCH   3  19
TORSDOF 8
ENDMDL
MODEL 2
REMARK VINA RESULT:      -7.3      1.420      6.403
REMARK  Name = 
REMARK  10 active torsions:
REMARK  status: ('A' for Active; 'I' for Inactive)
REMARK    1  A    between atoms: C_1  and  C_2
REMARK    2  A    between atoms: C_2  and  C_3
REMARK    3  A    between atoms: C_3  and  C_4
REMARK    4  A    between atoms: C_4  and  S_5
REMARK    5  A    between atoms: S_5  and  N_8
REMARK    6  A    between atoms: N_10  and  S_11
REMARK    7  A    between atoms: S_11  and  C_14
REMARK    8  A    between atoms: C_14  and  C_15
REMARK    9  A    between atoms: C_15  and  C_16
REMARK   10  A    between atoms: C_16  and  C_17
REMARK                            x       y       z     vdW  Elec       q    Type
REMARK                         _______ _______ _______ _____ _____    ______ ____
ROOT
ATOM      1  N   UNL     1       6.805   4.506  16.257  0.00  0.00    +0.000 NA
ATOM      2  C   UNL     1       5.650   3.821  16.869  0.00  0.00    +0.000 C 
ATOM      3  N   UNL     1       4.897   4.805  17.680  0.00  0.00    +0.000 NA
ATOM      4  C   UNL     1       5.806   5.946  17.918  0.00  0.00    +0.000 C 
ATOM      5  N   UNL     1       6.222   6.136  19.278  0.00  0.00    +0.000 N 
ATOM      6  C   UNL     1       7.396   5.439  19.514  0.00  0.00    +0.000 C 
ATOM      7  O   UNL     1       7.863   5.182  20.608  0.00  0.00    +0.000 OA
ATOM      8  N   UNL     1       7.929   5.071  18.294  0.00  0.00    +0.000 N 
ATOM      9  C   UNL     1       7.130   5.576  17.206  0.00  0.00    +0.000 C 
ATOM     10  H   UNL     1       5.613   6.267  20.070  0.00  0.00    +0.000 HD
ATOM     11  H   UNL     1       8.817   4.597  18.224  0.00  0.00    +0.000 HD
ENDROOT
BRANCH   1  12
ATOM     12  S   UNL     1       6.613   4.994  14.653  0.00  0.00    +0.000 S 
ATOM     13  O   UNL     1       7.935   5.348  14.170  0.00  0.00    +0.000 OA
ATOM     14  O   UNL     1       5.530   5.944  14.602  0.00  0.00    +0.000 OA
BRANCH  12  15
ATOM     15  C   UNL     1       6.095   3.486  13.816  0.00  0.00    +0.000 C 
BRANCH  15  16
ATOM     16  C   UNL     1       6.317   3.585  12.308  0.00  0.00    +0.000 C 
BRANCH  16  18
ATOM     17  C   UNL     1       6.831   1.438  11.097  0.00  0.00    +0.000 C 
ATOM     18  C   UNL     1       5.735   2.374  11.579  0.00  0.00    +0.000 C 
ENDBRANCH  16  18
ENDBRANCH  15  16
ENDBRANCH  12  15
ENDBRANCH   1  12
BRANCH   3  19
ATOM     19  S   UNL     1       4.086   4.153  18.987  0.00  0.00    +0.000 S 
ATOM     20  O   UNL     1       4.959   3.151  19.591  0.00  0.00    +0.000 OA
ATOM     21  O   UNL     1       3.596   5.250  19.773  0.00  0.00    +0.000 OA
BRANCH  19  22
ATOM     22  C   UNL     1       2.685   3.274  18.274  0.00  0.00    +0.000 C 
BRANCH  22  23
ATOM     23  C   UNL     1       2.202   2.266  19.313  0.00  0.00    +0.000 C 
BRANCH  23  24
ATOM     24  C   UNL     1       1.120   2.811  20.232  0.00  0.00    +0.000 C 
ATOM     25  C   UNL     1       1.601   2.784  21.676  0.00  0.00    +0.000 C 
ENDBRANCH  23  24
ENDBRANCH  22  23
ENDBRANCH  19  22
ENDBRANCH   3  19
TORSDOF 8
ENDMDL
MODEL 3
REMARK VINA RESULT:      -7.2      3.091      6.658
REMARK  Name = 
REMARK  10 active torsions:
REMARK  status: ('A' for Active; 'I' for Inactive)
REMARK    1  A    between atoms: C_1  and  C_2
REMARK    2  A    between atoms: C_2  and  C_3
REMARK    3  A    between atoms: C_3  and  C_4
REMARK    4  A    between atoms: C_4  and  S_5
REMARK    5  A    between atoms: S_5  and  N_8
REMARK    6  A    between atoms: N_10  and  S_11
REMARK    7  A    between atoms: S_11  and  C_14
REMARK    8  A    between atoms: C_14  and  C_15
REMARK    9  A    between atoms: C_15  and  C_16
REMARK   10  A    between atoms: C_16  and  C_17
REMARK                            x       y       z     vdW  Elec       q    Type
REMARK                         _______ _______ _______ _____ _____    ______ ____
ROOT
ATOM      1  N   UNL     1       5.514   4.662  16.674  0.00  0.00    +0.000 NA
ATOM      2  C   UNL     1       4.467   5.697  16.776  0.00  0.00    +0.000 C 
ATOM      3  N   UNL     1       4.271   6.025  18.206  0.00  0.00    +0.000 NA
ATOM      4  C   UNL     1       4.858   4.913  18.984  0.00  0.00    +0.000 C 
ATOM      5  N   UNL     1       3.926   4.110  19.723  0.00  0.00    +0.000 N 
ATOM      6  C   UNL     1       3.499   3.046  18.945  0.00  0.00    +0.000 C 
ATOM      7  O   UNL     1       2.533   2.342  19.172  0.00  0.00    +0.000 OA
ATOM      8  N   UNL     1       4.348   2.940  17.860  0.00  0.00    +0.000 N 
ATOM      9  C   UNL     1       5.405   3.917  17.933  0.00  0.00    +0.000 C 
ATOM     10  H   UNL     1       3.277   4.447  20.417  0.00  0.00    +0.000 HD
ATOM     11  H   UNL     1       4.257   2.196  17.186  0.00  0.00    +0.000 HD
ENDROOT
BRANCH   1  12
ATOM     12  S   UNL     1       7.062   5.210  16.288  0.00  0.00    +0.000 S 
ATOM     13  O   UNL     1       7.991   4.370  17.021  0.00  0.00    +0.000 OA
ATOM     14  O   UNL     1       7.081   6.643  16.446  0.00  0.00    +0.000 OA
BRANCH  12  15
ATOM     15  C   UNL     1       7.218   4.824  14.536  0.00  0.00    +0.000 C 
BRANCH  15  16
ATOM     16  C   UNL     1       5.999   4.057  14.027  0.00  0.00    +0.000 C 
BRANCH  16  18
ATOM     17  C   UNL     1       4.933   3.290  11.879  0.00  0.00    +0.000 C 
ATOM     18  C   UNL     1       6.240   3.495  12.625  0.00  0.00    +0.000 C 
ENDBRANCH  16  18
ENDBRANCH  15  16
ENDBRANCH  12  15
ENDBRANCH   1  12
BRANCH   3  19
ATOM     19  S   UNL     1       2.728   6.535  18.598  0.00  0.00    +0.000 S 
ATOM     20  O   UNL     1       1.787   5.665  17.899  0.00  0.00    +0.000 OA
ATOM     21  O   UNL     1       2.671   6.659  20.027  0.00  0.00    +0.000 OA
BRANCH  19  22
ATOM     22  C   UNL     1       2.580   8.173  17.864  0.00  0.00    +0.000 C 
BRANCH  22  23
ATOM     23  C   UNL     1       1.649   8.991  18.755  0.00  0.00    +0.000 C 
BRANCH  23  24
ATOM     24  C   UNL     1       0.480   9.610  18.005  0.00  0.00    +0.000 C 
ATOM     25  C   UNL     1      -0.423  10.359  18.976  0.00  0.00    +0.000 C 
ENDBRANCH  23  24
ENDBRANCH  22  23
ENDBRANCH  19  22
ENDBRANCH   3  19
TORSDOF 8
ENDMDL
MODEL 4
REMARK VINA RESULT:      -7.1      0.831      1.021
REMARK  Name = 
REMARK  10 active torsions:
REMARK  status: ('A' for Active; 'I' for Inactive)
REMARK    1  A    between atoms: C_1  and  C_2
REMARK    2  A    between atoms: C_2  and  C_3
REMARK    3  A    between atoms: C_3  and  C_4
REMARK    4  A    between atoms: C_4  and  S_5
REMARK    5  A    between atoms: S_5  and  N_8
REMARK    6  A    between atoms: N_10  and  S_11
REMARK    7  A    between atoms: S_11  and  C_14
REMARK    8  A    between atoms: C_14  and  C_15
REMARK    9  A    between atoms: C_15  and  C_16
REMARK   10  A    between atoms: C_16  and  C_17
REMARK                            x       y       z     vdW  Elec       q    Type
REMARK                         _______ _______ _______ _____ _____    ______ ____
ROOT
ATOM      1  N   UNL     1       4.595   4.895  18.198  0.00  0.00    +0.000 NA
ATOM      2  C   UNL     1       4.548   4.771  16.728  0.00  0.00    +0.000 C 
ATOM      3  N   UNL     1       5.876   4.319  16.254  0.00  0.00    +0.000 NA
ATOM      4  C   UNL     1       6.834   4.586  17.348  0.00  0.00    +0.000 C 
ATOM      5  N   UNL     1       7.817   5.596  17.082  0.00  0.00    +0.000 N 
ATOM      6  C   UNL     1       7.346   6.833  17.491  0.00  0.00    +0.000 C 
ATOM      7  O   UNL     1       7.814   7.912  17.177  0.00  0.00    +0.000 OA
ATOM      8  N   UNL     1       6.244   6.627  18.298  0.00  0.00    +0.000 N 
ATOM      9  C   UNL     1       5.996   5.220  18.486  0.00  0.00    +0.000 C 
ATOM     10  H   UNL     1       8.470   5.598  16.313  0.00  0.00    +0.000 HD
ATOM     11  H   UNL     1       5.770   7.391  18.755  0.00  0.00    +0.000 HD
ENDROOT
BRANCH   1  12
ATOM     12  S   UNL     1       3.957   3.600  19.072  0.00  0.00    +0.000 S 
ATOM     13  O   UNL     1       5.063   3.017  19.810  0.00  0.00    +0.000 OA
ATOM     14  O   UNL     1       3.169   2.798  18.170  0.00  0.00    +0.000 OA
BRANCH  12  15
ATOM     15  C   UNL     1       2.852   4.394  20.251  0.00  0.00    +0.000 C 
BRANCH  15  16
ATOM     16  C   UNL     1       1.389   4.175  19.873  0.00  0.00    +0.000 C 
BRANCH  16  18
ATOM     17  C   UNL     1       1.758   2.468  21.687  0.00  0.00    +0.000 C 
ATOM     18  C   UNL     1       0.770   3.033  20.679  0.00  0.00    +0.000 C 
ENDBRANCH  16  18
ENDBRANCH  15  16
ENDBRANCH  12  15
ENDBRANCH   1  12
BRANCH   3  19
ATOM     19  S   UNL     1       6.274   4.828  14.713  0.00  0.00    +0.000 S 
ATOM     20  O   UNL     1       5.780   6.193  14.560  0.00  0.00    +0.000 OA
ATOM     21  O   UNL     1       7.667   4.540  14.516  0.00  0.00    +0.000 OA
BRANCH  19  22
ATOM     22  C   UNL     1       5.301   3.786  13.613  0.00  0.00    +0.000 C 
BRANCH  22  23
ATOM     23  C   UNL     1       6.195   3.404  12.436  0.00  0.00    +0.000 C 
BRANCH  23  24
ATOM     24  C   UNL     1       5.589   2.342  11.532  0.00  0.00    +0.000 C 
ATOM     25  C   UNL     1       6.672   1.384  11.056  0.00  0.00    +0.000 C 
ENDBRANCH  23  24
ENDBRANCH  22  23
ENDBRANCH  19  22
ENDBRANCH   3  19
TORSDOF 8
ENDMDL
MODEL 5
REMARK VINA RESULT:      -7.1      3.440      6.592
REMARK  Name = 
REMARK  10 active torsions:
REMARK  status: ('A' for Active; 'I' for Inactive)
REMARK    1  A    between atoms: C_1  and  C_2
REMARK    2  A    between atoms: C_2  and  C_3
REMARK    3  A    between atoms: C_3  and  C_4
REMARK    4  A    between atoms: C_4  and  S_5
REMARK    5  A    between atoms: S_5  and  N_8
REMARK    6  A    between atoms: N_10  and  S_11
REMARK    7  A    between atoms: S_11  and  C_14
REMARK    8  A    between atoms: C_14  and  C_15
REMARK    9  A    between atoms: C_15  and  C_16
REMARK   10  A    between atoms: C_16  and  C_17
REMARK                            x       y       z     vdW  Elec       q    Type
REMARK                         _______ _______ _______ _____ _____    ______ ____
ROOT
ATOM      1  N   UNL     1       5.664   4.679  17.655  0.00  0.00    +0.000 NA
ATOM      2  C   UNL     1       4.591   5.668  17.875  0.00  0.00    +0.000 C 
ATOM      3  N   UNL     1       3.929   5.363  19.163  0.00  0.00    +0.000 NA
ATOM      4  C   UNL     1       4.287   3.970  19.508  0.00  0.00    +0.000 C 
ATOM      5  N   UNL     1       3.207   3.027  19.487  0.00  0.00    +0.000 N 
ATOM      6  C   UNL     1       3.105   2.454  18.230  0.00  0.00    +0.000 C 
ATOM      7  O   UNL     1       2.152   1.823  17.810  0.00  0.00    +0.000 OA
ATOM      8  N   UNL     1       4.262   2.742  17.532  0.00  0.00    +0.000 N 
ATOM      9  C   UNL     1       5.191   3.477  18.352  0.00  0.00    +0.000 C 
ATOM     10  H   UNL     1       2.353   3.094  20.019  0.00  0.00    +0.000 HD
ATOM     11  H   UNL     1       4.429   2.376  16.607  0.00  0.00    +0.000 HD
ENDROOT
BRANCH   1  12
ATOM     12  S   UNL     1       7.226   5.179  18.052  0.00  0.00    +0.000 S 
ATOM     13  O   UNL     1       8.128   4.420  17.205  0.00  0.00    +0.000 OA
ATOM     14  O   UNL     1       7.355   5.142  19.487  0.00  0.00    +0.000 OA
BRANCH  12  15
ATOM     15  C   UNL     1       7.264   6.897  17.515  0.00  0.00    +0.000 C 
BRANCH  15  16
ATOM     16  C   UNL     1       8.255   7.714  18.341  0.00  0.00    +0.000 C 
BRANCH  16  18
ATOM     17  C   UNL     1       9.058  10.038  18.883  0.00  0.00    +0.000 C 
ATOM     18  C   UNL     1       8.258   9.182  17.915  0.00  0.00    +0.000 C 
ENDBRANCH  16  18
ENDBRANCH  15  16
ENDBRANCH  12  15
ENDBRANCH   1  12
BRANCH   3  19
ATOM     19  S   UNL     1       2.320   5.808  19.241  0.00  0.00    +0.000 S 
ATOM     20  O   UNL     1       1.710   5.475  17.958  0.00  0.00    +0.000 OA
ATOM     21  O   UNL     1       1.786   5.261  20.457  0.00  0.00    +0.000 OA
BRANCH  19  22
ATOM     22  C   UNL     1       2.340   7.604  19.368  0.00  0.00    +0.000 C 
BRANCH  22  23
ATOM     23  C   UNL     1       2.083   8.164  17.972  0.00  0.00    +0.000 C 
BRANCH  23  24
ATOM     24  C   UNL     1       1.154   9.368  17.963  0.00  0.00    +0.000 C 
ATOM     25  C   UNL     1       1.956  10.646  18.165  0.00  0.00    +0.000 C 
ENDBRANCH  23  24
ENDBRANCH  22  23
ENDBRANCH  19  22
ENDBRANCH   3  19
TORSDOF 8
ENDMDL
MODEL 6
REMARK VINA RESULT:      -7.0      1.455      1.847
REMARK  Name = 
REMARK  10 active torsions:
REMARK  status: ('A' for Active; 'I' for Inactive)
REMARK    1  A    between atoms: C_1  and  C_2
REMARK    2  A    between atoms: C_2  and  C_3
REMARK    3  A    between atoms: C_3  and  C_4
REMARK    4  A    between atoms: C_4  and  S_5
REMARK    5  A    between atoms: S_5  and  N_8
REMARK    6  A    between atoms: N_10  and  S_11
REMARK    7  A    between atoms: S_11  and  C_14
REMARK    8  A    between atoms: C_14  and  C_15
REMARK    9  A    between atoms: C_15  and  C_16
REMARK   10  A    between atoms: C_16  and  C_17
REMARK                            x       y       z     vdW  Elec       q    Type
REMARK                         _______ _______ _______ _____ _____    ______ ____
ROOT
ATOM      1  N   UNL     1       3.660   3.613  17.919  0.00  0.00    +0.000 NA
ATOM      2  C   UNL     1       4.488   3.657  16.698  0.00  0.00    +0.000 C 
ATOM      3  N   UNL     1       5.657   4.527  16.955  0.00  0.00    +0.000 NA
ATOM      4  C   UNL     1       5.328   5.346  18.142  0.00  0.00    +0.000 C 
ATOM      5  N   UNL     1       5.170   6.751  17.903  0.00  0.00    +0.000 N 
ATOM      6  C   UNL     1       3.844   7.034  17.616  0.00  0.00    +0.000 C 
ATOM      7  O   UNL     1       3.428   8.065  17.119  0.00  0.00    +0.000 OA
ATOM      8  N   UNL     1       3.084   5.937  17.970  0.00  0.00    +0.000 N 
ATOM      9  C   UNL     1       3.903   4.909  18.562  0.00  0.00    +0.000 C 
ATOM     10  H   UNL     1       5.857   7.362  17.491  0.00  0.00    +0.000 HD
ATOM     11  H   UNL     1       2.078   5.942  17.898  0.00  0.00    +0.000 HD
ENDROOT
BRANCH   1  12
ATOM     12  S   UNL     1       3.869   2.263  18.909  0.00  0.00    +0.000 S 
ATOM     13  O   UNL     1       4.939   2.592  19.833  0.00  0.00    +0.000 OA
ATOM     14  O   UNL     1       3.956   1.099  18.063  0.00  0.00    +0.000 OA
BRANCH  12  15
ATOM     15  C   UNL     1       2.329   2.184  19.839  0.00  0.00    +0.000 C 
BRANCH  15  16
ATOM     16  C   UNL     1       2.521   2.679  21.272  0.00  0.00    +0.000 C 
BRANCH  16  18
ATOM     17  C   UNL     1       0.857   4.349  20.388  0.00  0.00    +0.000 C 
ATOM     18  C   UNL     1       1.868   4.045  21.481  0.00  0.00    +0.000 C 
ENDBRANCH  16  18
ENDBRANCH  15  16
ENDBRANCH  12  15
ENDBRANCH   1  12
BRANCH   3  19
ATOM     19  S   UNL     1       6.259   5.301  15.603  0.00  0.00    +0.000 S 
ATOM     20  O   UNL     1       5.200   6.159  15.080  0.00  0.00    +0.000 OA
ATOM     21  O   UNL     1       7.529   5.865  15.965  0.00  0.00    +0.000 OA
BRANCH  19  22
ATOM     22  C   UNL     1       6.525   3.991  14.396  0.00  0.00    +0.000 C 
BRANCH  22  23
ATOM     23  C   UNL     1       5.458   4.142  13.315  0.00  0.00    +0.000 C 
BRANCH  23  24
ATOM     24  C   UNL     1       5.593   3.135  12.184  0.00  0.00    +0.000 C 
ATOM     25  C   UNL     1       4.337   3.146  11.324  0.00  0.00    +0.000 C 
ENDBRANCH  23  24
ENDBRANCH  22  23
ENDBRANCH  19  22
ENDBRANCH   3  19
TORSDOF 8
ENDMDL
MODEL 7
REMARK VINA RESULT:      -7.0      1.168      6.368
REMARK  Name = 
REMARK  10 active torsions:
REMARK  status: ('A' for Active; 'I' for Inactive)
REMARK    1  A    between atoms: C_1  and  C_2
REMARK    2  A    between atoms: C_2  and  C_3
REMARK    3  A    between atoms: C_3  and  C_4
REMARK    4  A    between atoms: C_4  and  S_5
REMARK    5  A    between atoms: S_5  and  N_8
REMARK    6  A    between atoms: N_10  and  S_11
REMARK    7  A    between atoms: S_11  and  C_14
REMARK    8  A    between atoms: C_14  and  C_15
REMARK    9  A    between atoms: C_15  and  C_16
REMARK   10  A    between atoms: C_16  and  C_17
REMARK                            x       y       z     vdW  Elec       q    Type
REMARK                         _______ _______ _______ _____ _____    ______ ____
ROOT
ATOM      1  N   UNL     1       6.908   4.646  16.144  0.00  0.00    +0.000 NA
ATOM      2  C   UNL     1       5.934   3.677  16.682  0.00  0.00    +0.000 C 
ATOM      3  N   UNL     1       4.964   4.408  17.528  0.00  0.00    +0.000 NA
ATOM      4  C   UNL     1       5.581   5.710  17.859  0.00  0.00    +0.000 C 
ATOM      5  N   UNL     1       5.924   5.903  19.238  0.00  0.00    +0.000 N 
ATOM      6  C   UNL     1       7.223   5.481  19.466  0.00  0.00    +0.000 C 
ATOM      7  O   UNL     1       7.722   5.269  20.556  0.00  0.00    +0.000 OA
ATOM      8  N   UNL     1       7.843   5.323  18.241  0.00  0.00    +0.000 N 
ATOM      9  C   UNL     1       6.965   5.699  17.163  0.00  0.00    +0.000 C 
ATOM     10  H   UNL     1       5.289   5.840  20.019  0.00  0.00    +0.000 HD
ATOM     11  H   UNL     1       8.817   5.071  18.169  0.00  0.00    +0.000 HD
ENDROOT
BRANCH   1  12
ATOM     12  S   UNL     1       6.630   5.178  14.567  0.00  0.00    +0.000 S 
ATOM     13  O   UNL     1       7.935   5.385  13.967  0.00  0.00    +0.000 OA
ATOM     14  O   UNL     1       5.665   6.247  14.620  0.00  0.00    +0.000 OA
BRANCH  12  15
ATOM     15  C   UNL     1       5.867   3.753  13.774  0.00  0.00    +0.000 C 
BRANCH  15  16
ATOM     16  C   UNL     1       6.371   3.580  12.342  0.00  0.00    +0.000 C 
BRANCH  16  18
ATOM     17  C   UNL     1       4.134   3.190  11.253  0.00  0.00    +0.000 C 
ATOM     18  C   UNL     1       5.500   2.597  11.560  0.00  0.00    +0.000 C 
ENDBRANCH  16  18
ENDBRANCH  15  16
ENDBRANCH  12  15
ENDBRANCH   1  12
BRANCH   3  19
ATOM     19  S   UNL     1       4.307   3.505  18.772  0.00  0.00    +0.000 S 
ATOM     20  O   UNL     1       3.523   2.432  18.169  0.00  0.00    +0.000 OA
ATOM     21  O   UNL     1       5.374   3.195  19.682  0.00  0.00    +0.000 OA
BRANCH  19  22
ATOM     22  C   UNL     1       3.147   4.614  19.589  0.00  0.00    +0.000 C 
BRANCH  22  23
ATOM     23  C   UNL     1       1.755   4.006  19.445  0.00  0.00    +0.000 C 
BRANCH  23  24
ATOM     24  C   UNL     1       1.048   3.785  20.773  0.00  0.00    +0.000 C 
ATOM     25  C   UNL     1       1.707   2.640  21.529  0.00  0.00    +0.000 C 
ENDBRANCH  23  24
ENDBRANCH  22  23
ENDBRANCH  19  22
ENDBRANCH   3  19
TORSDOF 8
ENDMDL
MODEL 8
REMARK VINA RESULT:      -6.9      3.258      6.590
REMARK  Name = 
REMARK  10 active torsions:
REMARK  status: ('A' for Active; 'I' for Inactive)
REMARK    1  A    between atoms: C_1  and  C_2
REMARK    2  A    between atoms: C_2  and  C_3
REMARK    3  A    between atoms: C_3  and  C_4
REMARK    4  A    between atoms: C_4  and  S_5
REMARK    5  A    between atoms: S_5  and  N_8
REMARK    6  A    between atoms: N_10  and  S_11
REMARK    7  A    between atoms: S_11  and  C_14
REMARK    8  A    between atoms: C_14  and  C_15
REMARK    9  A    between atoms: C_15  and  C_16
REMARK   10  A    between atoms: C_16  and  C_17
REMARK                            x       y       z     vdW  Elec       q    Type
REMARK                         _______ _______ _______ _____ _____    ______ ____
ROOT
ATOM      1  N   UNL     1       5.685   4.666  17.094  0.00  0.00    +0.000 NA
ATOM      2  C   UNL     1       4.616   5.681  17.008  0.00  0.00    +0.000 C 
ATOM      3  N   UNL     1       4.200   6.039  18.383  0.00  0.00    +0.000 NA
ATOM      4  C   UNL     1       4.681   4.959  19.271  0.00  0.00    +0.000 C 
ATOM      5  N   UNL     1       3.662   4.156  19.881  0.00  0.00    +0.000 N 
ATOM      6  C   UNL     1       3.376   3.064  19.077  0.00  0.00    +0.000 C 
ATOM      7  O   UNL     1       2.399   2.345  19.174  0.00  0.00    +0.000 OA
ATOM      8  N   UNL     1       4.382   2.950  18.136  0.00  0.00    +0.000 N 
ATOM      9  C   UNL     1       5.399   3.950  18.341  0.00  0.00    +0.000 C 
ATOM     10  H   UNL     1       2.909   4.495  20.459  0.00  0.00    +0.000 HD
ATOM     11  H   UNL     1       4.407   2.187  17.477  0.00  0.00    +0.000 HD
ENDROOT
BRANCH   1  12
ATOM     12  S   UNL     1       7.264   5.237  16.932  0.00  0.00    +0.000 S 
ATOM     13  O   UNL     1       7.338   5.881  15.633  0.00  0.00    +0.000 OA
ATOM     14  O   UNL     1       8.164   4.165  17.275  0.00  0.00    +0.000 OA
BRANCH  12  15
ATOM     15  C   UNL     1       7.380   6.513  18.198  0.00  0.00    +0.000 C 
BRANCH  15  16
ATOM     16  C   UNL     1       7.742   7.866  17.590  0.00  0.00    +0.000 C 
BRANCH  16  18
ATOM     17  C   UNL     1       8.597  10.159  18.185  0.00  0.00    +0.000 C 
ATOM     18  C   UNL     1       8.630   8.679  18.532  0.00  0.00    +0.000 C 
ENDBRANCH  16  18
ENDBRANCH  15  16
ENDBRANCH  12  15
ENDBRANCH   1  12
BRANCH   3  19
ATOM     19  S   UNL     1       2.607   6.527  18.522  0.00  0.00    +0.000 S 
ATOM     20  O   UNL     1       1.788   5.564  17.791  0.00  0.00    +0.000 OA
ATOM     21  O   UNL     1       2.358   6.775  19.914  0.00  0.00    +0.000 OA
BRANCH  19  22
ATOM     22  C   UNL     1       2.518   8.086  17.626  0.00  0.00    +0.000 C 
BRANCH  22  23
ATOM     23  C   UNL     1       1.915   9.122  18.571  0.00  0.00    +0.000 C 
BRANCH  23  24
ATOM     24  C   UNL     1       0.611   9.720  18.065  0.00  0.00    +0.000 C 
ATOM     25  C   UNL     1      -0.278  10.101  19.240  0.00  0.00    +0.000 C 
ENDBRANCH  23  24
ENDBRANCH  22  23
ENDBRANCH  19  22
ENDBRANCH   3  19
TORSDOF 8
ENDMDL
MODEL 9
REMARK VINA RESULT:      -6.9      3.186      6.292
REMARK  Name = 
REMARK  10 active torsions:
REMARK  status: ('A' for Active; 'I' for Inactive)
REMARK    1  A    between atoms: C_1  and  C_2
REMARK    2  A    between atoms: C_2  and  C_3
REMARK    3  A    between atoms: C_3  and  C_4
REMARK    4  A    between atoms: C_4  and  S_5
REMARK    5  A    between atoms: S_5  and  N_8
REMARK    6  A    between atoms: N_10  and  S_11
REMARK    7  A    between atoms: S_11  and  C_14
REMARK    8  A    between atoms: C_14  and  C_15
REMARK    9  A    between atoms: C_15  and  C_16
REMARK   10  A    between atoms: C_16  and  C_17
REMARK                            x       y       z     vdW  Elec       q    Type
REMARK                         _______ _______ _______ _____ _____    ______ ____
ROOT
ATOM      1  N   UNL     1       5.642   4.693  18.568  0.00  0.00    +0.000 NA
ATOM      2  C   UNL     1       4.783   3.548  18.207  0.00  0.00    +0.000 C 
ATOM      3  N   UNL     1       3.665   4.044  17.374  0.00  0.00    +0.000 NA
ATOM      4  C   UNL     1       3.590   5.506  17.587  0.00  0.00    +0.000 C 
ATOM      5  N   UNL     1       2.419   5.976  18.268  0.00  0.00    +0.000 N 
ATOM      6  C   UNL     1       2.651   6.013  19.633  0.00  0.00    +0.000 C 
ATOM      7  O   UNL     1       1.798   6.113  20.497  0.00  0.00    +0.000 OA
ATOM      8  N   UNL     1       4.011   5.897  19.841  0.00  0.00    +0.000 N 
ATOM      9  C   UNL     1       4.723   5.836  18.590  0.00  0.00    +0.000 C 
ATOM     10  H   UNL     1       1.466   5.822  17.979  0.00  0.00    +0.000 HD
ATOM     11  H   UNL     1       4.414   5.954  20.764  0.00  0.00    +0.000 HD
ENDROOT
BRANCH   1  12
ATOM     12  S   UNL     1       7.033   4.899  17.635  0.00  0.00    +0.000 S 
ATOM     13  O   UNL     1       6.804   4.187  16.391  0.00  0.00    +0.000 OA
ATOM     14  O   UNL     1       8.174   4.592  18.461  0.00  0.00    +0.000 OA
BRANCH  12  15
ATOM     15  C   UNL     1       7.039   6.664  17.278  0.00  0.00    +0.000 C 
BRANCH  15  16
ATOM     16  C   UNL     1       8.007   7.411  18.194  0.00  0.00    +0.000 C 
BRANCH  16  18
ATOM     17  C   UNL     1       8.930   9.666  18.831  0.00  0.00    +0.000 C 
ATOM     18  C   UNL     1       8.088   8.893  17.829  0.00  0.00    +0.000 C 
ENDBRANCH  16  18
ENDBRANCH  15  16
ENDBRANCH  12  15
ENDBRANCH   1  12
BRANCH   3  19
ATOM     19  S   UNL     1       2.257   3.154  17.498  0.00  0.00    +0.000 S 
ATOM     20  O   UNL     1       1.140   4.093  17.470  0.00  0.00    +0.000 OA
ATOM     21  O   UNL     1       2.334   2.097  16.530  0.00  0.00    +0.000 OA
BRANCH  19  22
ATOM     22  C   UNL     1       2.304   2.437  19.149  0.00  0.00    +0.000 C 
BRANCH  22  23
ATOM     23  C   UNL     1       0.966   2.739  19.818  0.00  0.00    +0.000 C 
BRANCH  23  24
ATOM     24  C   UNL     1       1.065   2.911  21.326  0.00  0.00    +0.000 C 
ATOM     25  C   UNL     1       2.515   2.780  21.770  0.00  0.00    +0.000 C 
ENDBRANCH  23  24
ENDBRANCH  22  23
ENDBRANCH  19  22
ENDBRANCH   3  19
TORSDOF 8
ENDMDL
