MODEL 1
REMARK VINA RESULT:      -8.1      0.000      0.000
REMARK  Name = 
REMARK  9 active torsions:
REMARK  status: ('A' for Active; 'I' for Inactive)
REMARK    1  A    between atoms: C_1  and  O_2
REMARK    2  A    between atoms: O_2  and  C_3
REMARK    3  A    between atoms: C_6  and  C_7
REMARK    4  A    between atoms: C_13  and  C_14
REMARK    5  A    between atoms: C_17  and  C_18
REMARK    6  A    between atoms: C_18  and  O_20
REMARK    7  A    between atoms: C_22  and  O_23
REMARK    8  A    between atoms: O_23  and  C_24
REMARK    9  A    between atoms: C_24  and  C_25
REMARK                            x       y       z     vdW  Elec       q    Type
REMARK                         _______ _______ _______ _____ _____    ______ ____
ROOT
ATOM      1  C   UNL     1       3.893   6.097  17.842  0.00  0.00    +0.000 A 
ATOM      2  C   UNL     1       5.099   6.808  17.626  0.00  0.00    +0.000 A 
ATOM      3  C   UNL     1       6.062   6.408  16.692  0.00  0.00    +0.000 A 
ATOM      4  C   UNL     1       5.839   5.291  15.904  0.00  0.00    +0.000 A 
ATOM      5  C   UNL     1       4.637   4.606  16.033  0.00  0.00    +0.000 A 
ATOM      6  C   UNL     1       3.696   4.945  17.034  0.00  0.00    +0.000 A 
ENDROOT
BRANCH   1  13
ATOM      7  C   UNL     1       0.824   9.884  21.341  0.00  0.00    +0.000 C 
ATOM      8  O   UNL     1       1.991  10.015  21.704  0.00  0.00    +0.000 OA
ATOM      9  N   UNL     1       0.383   8.833  20.562  0.00  0.00    +0.000 N 
ATOM     10  C   UNL     1       1.297   7.879  20.180  0.00  0.00    +0.000 A 
ATOM     11  N   UNL     1       1.586   6.786  20.831  0.00  0.00    +0.000 NA
ATOM     12  C   UNL     1       2.537   6.066  20.108  0.00  0.00    +0.000 A 
ATOM     13  C   UNL     1       2.927   6.584  18.877  0.00  0.00    +0.000 A 
ATOM     14  S   UNL     1       2.001   8.052  18.647  0.00  0.00    +0.000 S 
ATOM     15  H   UNL     1      -0.513   8.816  20.108  0.00  0.00    +0.000 HD
BRANCH   7  19
ATOM     16  C   UNL     1      -2.113  12.784  22.658  0.00  0.00    +0.000 A 
ATOM     17  C   UNL     1      -1.894  11.590  23.346  0.00  0.00    +0.000 A 
ATOM     18  C   UNL     1      -0.931  10.685  22.907  0.00  0.00    +0.000 A 
ATOM     19  C   UNL     1      -0.170  10.936  21.752  0.00  0.00    +0.000 A 
ATOM     20  C   UNL     1      -0.403  12.129  21.052  0.00  0.00    +0.000 A 
ATOM     21  C   UNL     1      -1.368  13.046  21.506  0.00  0.00    +0.000 A 
BRANCH  16  23
ATOM     22  C   UNL     1      -4.360  13.507  22.505  0.00  0.00    +0.000 C 
ATOM     23  O   UNL     1      -3.102  13.578  23.164  0.00  0.00    +0.000 OA
ENDBRANCH  16  23
ENDBRANCH   7  19
ENDBRANCH   1  13
BRANCH   4  24
ATOM     24  C   UNL     1       6.866   4.870  14.924  0.00  0.00    +0.000 C 
ATOM     25  O   UNL     1       7.867   5.533  14.694  0.00  0.00    +0.000 OA
BRANCH  24  26
ATOM     26  O   UNL     1       6.625   3.681  14.338  0.00  0.00    +0.000 OA
ATOM     27  H   UNL     1       6.998   2.898  14.787  0.00  0.00    +0.000 HD
ENDBRANCH  24  26
ENDBRANCH   4  24
BRANCH   6  28
ATOM     28  O   UNL     1       2.590   4.146  17.228  0.00  0.00    +0.000 OA
BRANCH  28  29
ATOM     29  C   UNL     1       2.874   2.837  17.757  0.00  0.00    +0.000 C 
BRANCH  29  30
ATOM     30  C   UNL     1       2.436   2.740  19.188  0.00  0.00    +0.000 A 
ATOM     31  C   UNL     1       1.101   2.967  19.538  0.00  0.00    +0.000 A 
ATOM     32  C   UNL     1       0.716   2.930  20.876  0.00  0.00    +0.000 A 
ATOM     33  C   UNL     1       1.658   2.657  21.868  0.00  0.00    +0.000 A 
ATOM     34  C   UNL     1       2.982   2.392  21.523  0.00  0.00    +0.000 A 
ATOM     35  C   UNL     1       3.370   2.429  20.187  0.00  0.00    +0.000 A 
ENDBRANCH  29  30
ENDBRANCH  28  29
ENDBRANCH   6  28
TORSDOF 8
ENDMDL
MODEL 2
REMARK VINA RESULT:      -8.0      0.920      1.211
REMARK  Name = 
REMARK  9 active torsions:
REMARK  status: ('A' for Active; 'I' for Inactive)
REMARK    1  A    between atoms: C_1  and  O_2
REMARK    2  A    between atoms: O_2  and  C_3
REMARK    3  A    between atoms: C_6  and  C_7
REMARK    4  A    between atoms: C_13  and  C_14
REMARK    5  A    between atoms: C_17  and  C_18
REMARK    6  A    between atoms: C_18  and  O_20
REMARK    7  A    between atoms: C_22  and  O_23
REMARK    8  A    between atoms: O_23  and  C_24
REMARK    9  A    between atoms: C_24  and  C_25
REMARK                            x       y       z     vdW  Elec       q    Type
REMARK                         _______ _______ _______ _____ _____    ______ ____
ROOT
ATOM      1  C   UNL     1       3.950   6.325  17.971  0.00  0.00    +0.000 A 
ATOM      2  C   UNL     1       4.032   6.905  16.682  0.00  0.00    +0.000 A 
ATOM      3  C   UNL     1       4.971   6.501  15.723  0.00  0.00    +0.000 A 
ATOM      4  C   UNL     1       5.848   5.468  16.007  0.00  0.00    +0.000 A 
ATOM      5  C   UNL     1       5.754   4.824  17.234  0.00  0.00    +0.000 A 
ATOM      6  C   UNL     1       4.874   5.279  18.244  0.00  0.00    +0.000 A 
ENDROOT
BRANCH   1  13
ATOM      7  C   UNL     1       0.846  10.160  21.385  0.00  0.00    +0.000 C 
ATOM      8  O   UNL     1       1.982  10.187  21.855  0.00  0.00    +0.000 OA
ATOM      9  N   UNL     1       0.406   9.181  20.516  0.00  0.00    +0.000 N 
ATOM     10  C   UNL     1       1.283   8.183  20.165  0.00  0.00    +0.000 A 
ATOM     11  N   UNL     1       1.435   7.042  20.780  0.00  0.00    +0.000 NA
ATOM     12  C   UNL     1       2.395   6.288  20.106  0.00  0.00    +0.000 A 
ATOM     13  C   UNL     1       2.930   6.833  18.943  0.00  0.00    +0.000 A 
ATOM     14  S   UNL     1       2.133   8.374  18.711  0.00  0.00    +0.000 S 
ATOM     15  H   UNL     1      -0.444   9.252  19.985  0.00  0.00    +0.000 HD
BRANCH   7  19
ATOM     16  C   UNL     1      -1.999  13.201  22.582  0.00  0.00    +0.000 A 
ATOM     17  C   UNL     1      -1.980  11.935  23.168  0.00  0.00    +0.000 A 
ATOM     18  C   UNL     1      -1.042  10.984  22.774  0.00  0.00    +0.000 A 
ATOM     19  C   UNL     1      -0.106  11.262  21.762  0.00  0.00    +0.000 A 
ATOM     20  C   UNL     1      -0.137  12.530  21.162  0.00  0.00    +0.000 A 
ATOM     21  C   UNL     1      -1.078  13.491  21.573  0.00  0.00    +0.000 A 
BRANCH  16  23
ATOM     22  C   UNL     1      -4.280  13.819  22.493  0.00  0.00    +0.000 C 
ATOM     23  O   UNL     1      -2.981  14.038  23.028  0.00  0.00    +0.000 OA
ENDBRANCH  16  23
ENDBRANCH   7  19
ENDBRANCH   1  13
BRANCH   4  24
ATOM     24  C   UNL     1       6.842   5.052  14.991  0.00  0.00    +0.000 C 
ATOM     25  O   UNL     1       7.863   5.688  14.772  0.00  0.00    +0.000 OA
BRANCH  24  26
ATOM     26  O   UNL     1       6.545   3.899  14.360  0.00  0.00    +0.000 OA
ATOM     27  H   UNL     1       7.202   3.586  13.708  0.00  0.00    +0.000 HD
ENDBRANCH  24  26
ENDBRANCH   4  24
BRANCH   6  28
ATOM     28  O   UNL     1       4.921   4.710  19.498  0.00  0.00    +0.000 OA
BRANCH  28  29
ATOM     29  C   UNL     1       4.678   3.291  19.528  0.00  0.00    +0.000 C 
BRANCH  29  30
ATOM     30  C   UNL     1       3.212   3.010  19.671  0.00  0.00    +0.000 A 
ATOM     31  C   UNL     1       2.419   2.786  18.541  0.00  0.00    +0.000 A 
ATOM     32  C   UNL     1       1.048   2.581  18.680  0.00  0.00    +0.000 A 
ATOM     33  C   UNL     1       0.466   2.591  19.948  0.00  0.00    +0.000 A 
ATOM     34  C   UNL     1       1.255   2.774  21.081  0.00  0.00    +0.000 A 
ATOM     35  C   UNL     1       2.625   2.979  20.945  0.00  0.00    +0.000 A 
ENDBRANCH  29  30
ENDBRANCH  28  29
ENDBRANCH   6  28
TORSDOF 8
ENDMDL
MODEL 3
REMARK VINA RESULT:      -7.9      0.829      1.187
REMARK  Name = 
REMARK  9 active torsions:
REMARK  status: ('A' for Active; 'I' for Inactive)
REMARK    1  A    between atoms: C_1  and  O_2
REMARK    2  A    between atoms: O_2  and  C_3
REMARK    3  A    between atoms: C_6  and  C_7
REMARK    4  A    between atoms: C_13  and  C_14
REMARK    5  A    between atoms: C_17  and  C_18
REMARK    6  A    between atoms: C_18  and  O_20
REMARK    7  A    between atoms: C_22  and  O_23
REMARK    8  A    between atoms: O_23  and  C_24
REMARK    9  A    between atoms: C_24  and  C_25
REMARK                            x       y       z     vdW  Elec       q    Type
REMARK                         _______ _______ _______ _____ _____    ______ ____
ROOT
ATOM      1  C   UNL     1       3.738   6.437  18.226  0.00  0.00    +0.000 A 
ATOM      2  C   UNL     1       5.023   7.031  18.228  0.00  0.00    +0.000 A 
ATOM      3  C   UNL     1       6.070   6.583  17.412  0.00  0.00    +0.000 A 
ATOM      4  C   UNL     1       5.859   5.537  16.529  0.00  0.00    +0.000 A 
ATOM      5  C   UNL     1       4.592   4.973  16.445  0.00  0.00    +0.000 A 
ATOM      6  C   UNL     1       3.553   5.354  17.325  0.00  0.00    +0.000 A 
ENDROOT
BRANCH   1  13
ATOM      7  C   UNL     1       0.425  10.360  21.332  0.00  0.00    +0.000 C 
ATOM      8  O   UNL     1       1.551  10.465  21.815  0.00  0.00    +0.000 OA
ATOM      9  N   UNL     1       0.040   9.309  20.524  0.00  0.00    +0.000 N 
ATOM     10  C   UNL     1       0.961   8.325  20.254  0.00  0.00    +0.000 A 
ATOM     11  N   UNL     1       1.149   7.235  20.945  0.00  0.00    +0.000 NA
ATOM     12  C   UNL     1       2.150   6.478  20.337  0.00  0.00    +0.000 A 
ATOM     13  C   UNL     1       2.682   6.966  19.148  0.00  0.00    +0.000 A 
ATOM     14  S   UNL     1       1.827   8.454  18.802  0.00  0.00    +0.000 S 
ATOM     15  H   UNL     1      -0.804   9.309  19.978  0.00  0.00    +0.000 HD
BRANCH   7  19
ATOM     16  C   UNL     1      -2.433  13.553  21.974  0.00  0.00    +0.000 A 
ATOM     17  C   UNL     1      -1.935  13.251  20.706  0.00  0.00    +0.000 A 
ATOM     18  C   UNL     1      -1.030  12.207  20.529  0.00  0.00    +0.000 A 
ATOM     19  C   UNL     1      -0.576  11.445  21.621  0.00  0.00    +0.000 A 
ATOM     20  C   UNL     1      -1.065  11.761  22.897  0.00  0.00    +0.000 A 
ATOM     21  C   UNL     1      -1.988  12.807  23.069  0.00  0.00    +0.000 A 
BRANCH  16  23
ATOM     22  C   UNL     1      -4.198  14.742  20.942  0.00  0.00    +0.000 C 
ATOM     23  O   UNL     1      -3.290  14.614  22.029  0.00  0.00    +0.000 OA
ENDBRANCH  16  23
ENDBRANCH   7  19
ENDBRANCH   1  13
BRANCH   4  24
ATOM     24  C   UNL     1       6.973   5.065  15.675  0.00  0.00    +0.000 C 
ATOM     25  O   UNL     1       7.886   4.376  16.108  0.00  0.00    +0.000 OA
BRANCH  24  26
ATOM     26  O   UNL     1       6.875   5.424  14.380  0.00  0.00    +0.000 OA
ATOM     27  H   UNL     1       7.709   5.680  13.942  0.00  0.00    +0.000 HD
ENDBRANCH  24  26
ENDBRANCH   4  24
BRANCH   6  28
ATOM     28  O   UNL     1       2.360   4.664  17.311  0.00  0.00    +0.000 OA
BRANCH  28  29
ATOM     29  C   UNL     1       2.473   3.253  17.580  0.00  0.00    +0.000 C 
BRANCH  29  30
ATOM     30  C   UNL     1       2.365   2.987  19.052  0.00  0.00    +0.000 A 
ATOM     31  C   UNL     1       1.133   3.098  19.705  0.00  0.00    +0.000 A 
ATOM     32  C   UNL     1       1.054   2.903  21.082  0.00  0.00    +0.000 A 
ATOM     33  C   UNL     1       2.201   2.589  21.810  0.00  0.00    +0.000 A 
ATOM     34  C   UNL     1       3.424   2.438  21.161  0.00  0.00    +0.000 A 
ATOM     35  C   UNL     1       3.507   2.632  19.786  0.00  0.00    +0.000 A 
ENDBRANCH  29  30
ENDBRANCH  28  29
ENDBRANCH   6  28
TORSDOF 8
ENDMDL
MODEL 4
REMARK VINA RESULT:      -7.8      1.138      1.629
REMARK  Name = 
REMARK  9 active torsions:
REMARK  status: ('A' for Active; 'I' for Inactive)
REMARK    1  A    between atoms: C_1  and  O_2
REMARK    2  A    between atoms: O_2  and  C_3
REMARK    3  A    between atoms: C_6  and  C_7
REMARK    4  A    between atoms: C_13  and  C_14
REMARK    5  A    between atoms: C_17  and  C_18
REMARK    6  A    between atoms: C_18  and  O_20
REMARK    7  A    between atoms: C_22  and  O_23
REMARK    8  A    between atoms: O_23  and  C_24
REMARK    9  A    between atoms: C_24  and  C_25
REMARK                            x       y       z     vdW  Elec       q    Type
REMARK                         _______ _______ _______ _____ _____    ______ ____
ROOT
ATOM      1  C   UNL     1       3.950   6.470  17.918  0.00  0.00    +0.000 A 
ATOM      2  C   UNL     1       4.083   7.018  16.619  0.00  0.00    +0.000 A 
ATOM      3  C   UNL     1       5.027   6.558  15.692  0.00  0.00    +0.000 A 
ATOM      4  C   UNL     1       5.858   5.499  16.019  0.00  0.00    +0.000 A 
ATOM      5  C   UNL     1       5.711   4.887  17.257  0.00  0.00    +0.000 A 
ATOM      6  C   UNL     1       4.826   5.398  18.235  0.00  0.00    +0.000 A 
ENDROOT
BRANCH   1  13
ATOM      7  C   UNL     1       0.716  10.522  20.942  0.00  0.00    +0.000 C 
ATOM      8  O   UNL     1       1.861  10.669  21.366  0.00  0.00    +0.000 OA
ATOM      9  N   UNL     1       0.312   9.420  20.213  0.00  0.00    +0.000 N 
ATOM     10  C   UNL     1       1.236   8.435  19.958  0.00  0.00    +0.000 A 
ATOM     11  N   UNL     1       1.472   7.389  20.701  0.00  0.00    +0.000 NA
ATOM     12  C   UNL     1       2.456   6.612  20.093  0.00  0.00    +0.000 A 
ATOM     13  C   UNL     1       2.927   7.037  18.855  0.00  0.00    +0.000 A 
ATOM     14  S   UNL     1       2.035   8.492  18.464  0.00  0.00    +0.000 S 
ATOM     15  H   UNL     1      -0.554   9.378  19.707  0.00  0.00    +0.000 HD
BRANCH   7  19
ATOM     16  C   UNL     1      -2.151  13.716  21.533  0.00  0.00    +0.000 A 
ATOM     17  C   UNL     1      -1.652  13.395  20.270  0.00  0.00    +0.000 A 
ATOM     18  C   UNL     1      -0.743  12.351  20.110  0.00  0.00    +0.000 A 
ATOM     19  C   UNL     1      -0.288  11.608  21.213  0.00  0.00    +0.000 A 
ATOM     20  C   UNL     1      -0.777  11.943  22.484  0.00  0.00    +0.000 A 
ATOM     21  C   UNL     1      -1.704  12.989  22.639  0.00  0.00    +0.000 A 
BRANCH  16  23
ATOM     22  C   UNL     1      -4.256  14.594  20.910  0.00  0.00    +0.000 C 
ATOM     23  O   UNL     1      -3.010  14.775  21.570  0.00  0.00    +0.000 OA
ENDBRANCH  16  23
ENDBRANCH   7  19
ENDBRANCH   1  13
BRANCH   4  24
ATOM     24  C   UNL     1       6.859   5.024  15.036  0.00  0.00    +0.000 C 
ATOM     25  O   UNL     1       7.849   5.676  14.740  0.00  0.00    +0.000 OA
BRANCH  24  26
ATOM     26  O   UNL     1       6.605   3.803  14.528  0.00  0.00    +0.000 OA
ATOM     27  H   UNL     1       6.573   3.069  15.171  0.00  0.00    +0.000 HD
ENDBRANCH  24  26
ENDBRANCH   4  24
BRANCH   6  28
ATOM     28  O   UNL     1       4.823   4.855  19.502  0.00  0.00    +0.000 OA
BRANCH  28  29
ATOM     29  C   UNL     1       4.619   3.430  19.551  0.00  0.00    +0.000 C 
BRANCH  29  30
ATOM     30  C   UNL     1       3.159   3.112  19.677  0.00  0.00    +0.000 A 
ATOM     31  C   UNL     1       2.393   2.833  18.540  0.00  0.00    +0.000 A 
ATOM     32  C   UNL     1       1.026   2.593  18.662  0.00  0.00    +0.000 A 
ATOM     33  C   UNL     1       0.421   2.621  19.918  0.00  0.00    +0.000 A 
ATOM     34  C   UNL     1       1.185   2.859  21.059  0.00  0.00    +0.000 A 
ATOM     35  C   UNL     1       2.550   3.100  20.940  0.00  0.00    +0.000 A 
ENDBRANCH  29  30
ENDBRANCH  28  29
ENDBRANCH   6  28
TORSDOF 8
ENDMDL
MODEL 5
REMARK VINA RESULT:      -7.7      4.830      8.481
REMARK  Name = 
REMARK  9 active torsions:
REMARK  status: ('A' for Active; 'I' for Inactive)
REMARK    1  A    between atoms: C_1  and  O_2
REMARK    2  A    between atoms: O_2  and  C_3
REMARK    3  A    between atoms: C_6  and  C_7
REMARK    4  A    between atoms: C_13  and  C_14
REMARK    5  A    between atoms: C_17  and  C_18
REMARK    6  A    between atoms: C_18  and  O_20
REMARK    7  A    between atoms: C_22  and  O_23
REMARK    8  A    between atoms: O_23  and  C_24
REMARK    9  A    between atoms: C_24  and  C_25
REMARK                            x       y       z     vdW  Elec       q    Type
REMARK                         _______ _______ _______ _____ _____    ______ ____
ROOT
ATOM      1  C   UNL     1       4.551   4.791  17.957  0.00  0.00    +0.000 A 
ATOM      2  C   UNL     1       4.459   3.499  17.384  0.00  0.00    +0.000 A 
ATOM      3  C   UNL     1       3.381   2.636  17.620  0.00  0.00    +0.000 A 
ATOM      4  C   UNL     1       2.326   3.050  18.416  0.00  0.00    +0.000 A 
ATOM      5  C   UNL     1       2.343   4.336  18.940  0.00  0.00    +0.000 A 
ATOM      6  C   UNL     1       3.464   5.184  18.786  0.00  0.00    +0.000 A 
ENDROOT
BRANCH   1  13
ATOM      7  C   UNL     1       8.316   9.460  18.129  0.00  0.00    +0.000 C 
ATOM      8  O   UNL     1       7.297   9.911  17.608  0.00  0.00    +0.000 OA
ATOM      9  N   UNL     1       8.562   8.108  18.272  0.00  0.00    +0.000 N 
ATOM     10  C   UNL     1       7.623   7.224  17.798  0.00  0.00    +0.000 A 
ATOM     11  N   UNL     1       7.585   6.709  16.600  0.00  0.00    +0.000 NA
ATOM     12  C   UNL     1       6.502   5.835  16.515  0.00  0.00    +0.000 A 
ATOM     13  C   UNL     1       5.750   5.640  17.669  0.00  0.00    +0.000 A 
ATOM     14  S   UNL     1       6.501   6.616  18.914  0.00  0.00    +0.000 S 
ATOM     15  H   UNL     1       9.290   7.736  18.856  0.00  0.00    +0.000 HD
BRANCH   7  19
ATOM     16  C   UNL     1      11.324  12.280  19.459  0.00  0.00    +0.000 A 
ATOM     17  C   UNL     1      11.081  12.043  18.106  0.00  0.00    +0.000 A 
ATOM     18  C   UNL     1      10.095  11.142  17.709  0.00  0.00    +0.000 A 
ATOM     19  C   UNL     1       9.335  10.433  18.656  0.00  0.00    +0.000 A 
ATOM     20  C   UNL     1       9.592  10.660  20.016  0.00  0.00    +0.000 A 
ATOM     21  C   UNL     1      10.579  11.580  20.412  0.00  0.00    +0.000 A 
BRANCH  16  23
ATOM     22  C   UNL     1      12.080  14.520  19.399  0.00  0.00    +0.000 C 
ATOM     23  O   UNL     1      12.332  13.160  19.727  0.00  0.00    +0.000 OA
ENDBRANCH  16  23
ENDBRANCH   7  19
ENDBRANCH   1  13
BRANCH   4  24
ATOM     24  C   UNL     1       1.194   2.128  18.667  0.00  0.00    +0.000 C 
ATOM     25  O   UNL     1       0.060   2.357  18.271  0.00  0.00    +0.000 OA
BRANCH  24  26
ATOM     26  O   UNL     1       1.526   1.004  19.331  0.00  0.00    +0.000 OA
ATOM     27  H   UNL     1       2.387   0.607  19.097  0.00  0.00    +0.000 HD
ENDBRANCH  24  26
ENDBRANCH   4  24
BRANCH   6  28
ATOM     28  O   UNL     1       3.504   6.391  19.449  0.00  0.00    +0.000 OA
BRANCH  28  29
ATOM     29  C   UNL     1       2.285   6.750  20.126  0.00  0.00    +0.000 C 
BRANCH  29  30
ATOM     30  C   UNL     1       1.793   8.086  19.654  0.00  0.00    +0.000 A 
ATOM     31  C   UNL     1       2.084   8.532  18.361  0.00  0.00    +0.000 A 
ATOM     32  C   UNL     1       1.671   9.797  17.951  0.00  0.00    +0.000 A 
ATOM     33  C   UNL     1       0.958  10.617  18.825  0.00  0.00    +0.000 A 
ATOM     34  C   UNL     1       0.630  10.164  20.101  0.00  0.00    +0.000 A 
ATOM     35  C   UNL     1       1.042   8.900  20.514  0.00  0.00    +0.000 A 
ENDBRANCH  29  30
ENDBRANCH  28  29
ENDBRANCH   6  28
TORSDOF 8
ENDMDL
MODEL 6
REMARK VINA RESULT:      -7.7      2.612      5.417
REMARK  Name = 
REMARK  9 active torsions:
REMARK  status: ('A' for Active; 'I' for Inactive)
REMARK    1  A    between atoms: C_1  and  O_2
REMARK    2  A    between atoms: O_2  and  C_3
REMARK    3  A    between atoms: C_6  and  C_7
REMARK    4  A    between atoms: C_13  and  C_14
REMARK    5  A    between atoms: C_17  and  C_18
REMARK    6  A    between atoms: C_18  and  O_20
REMARK    7  A    between atoms: C_22  and  O_23
REMARK    8  A    between atoms: O_23  and  C_24
REMARK    9  A    between atoms: C_24  and  C_25
REMARK                            x       y       z     vdW  Elec       q    Type
REMARK                         _______ _______ _______ _____ _____    ______ ____
ROOT
ATOM      1  C   UNL     1       1.609   7.277  20.415  0.00  0.00    +0.000 A 
ATOM      2  C   UNL     1       1.515   5.893  20.699  0.00  0.00    +0.000 A 
ATOM      3  C   UNL     1       1.909   4.901  19.793  0.00  0.00    +0.000 A 
ATOM      4  C   UNL     1       2.451   5.258  18.569  0.00  0.00    +0.000 A 
ATOM      5  C   UNL     1       2.627   6.605  18.279  0.00  0.00    +0.000 A 
ATOM      6  C   UNL     1       2.151   7.617  19.145  0.00  0.00    +0.000 A 
ENDROOT
BRANCH   1  13
ATOM      7  C   UNL     1      -0.990  12.160  22.740  0.00  0.00    +0.000 C 
ATOM      8  O   UNL     1      -0.075  12.604  22.048  0.00  0.00    +0.000 OA
ATOM      9  N   UNL     1      -1.086  10.834  23.113  0.00  0.00    +0.000 N 
ATOM     10  C   UNL     1      -0.102   9.969  22.697  0.00  0.00    +0.000 A 
ATOM     11  N   UNL     1       0.995   9.683  23.341  0.00  0.00    +0.000 NA
ATOM     12  C   UNL     1       1.721   8.744  22.609  0.00  0.00    +0.000 A 
ATOM     13  C   UNL     1       1.145   8.272  21.434  0.00  0.00    +0.000 A 
ATOM     14  S   UNL     1      -0.409   9.066  21.295  0.00  0.00    +0.000 S 
ATOM     15  H   UNL     1      -1.914  10.429  23.512  0.00  0.00    +0.000 HD
BRANCH   7  19
ATOM     16  C   UNL     1      -4.237  14.745  23.985  0.00  0.00    +0.000 A 
ATOM     17  C   UNL     1      -4.418  13.376  23.781  0.00  0.00    +0.000 A 
ATOM     18  C   UNL     1      -3.351  12.568  23.397  0.00  0.00    +0.000 A 
ATOM     19  C   UNL     1      -2.070  13.109  23.183  0.00  0.00    +0.000 A 
ATOM     20  C   UNL     1      -1.893  14.487  23.373  0.00  0.00    +0.000 A 
ATOM     21  C   UNL     1      -2.971  15.297  23.773  0.00  0.00    +0.000 A 
BRANCH  16  23
ATOM     22  C   UNL     1      -5.169  16.803  24.681  0.00  0.00    +0.000 C 
ATOM     23  O   UNL     1      -5.360  15.439  24.330  0.00  0.00    +0.000 OA
ENDBRANCH  16  23
ENDBRANCH   7  19
ENDBRANCH   1  13
BRANCH   4  24
ATOM     24  C   UNL     1       2.858   4.202  17.613  0.00  0.00    +0.000 C 
ATOM     25  O   UNL     1       2.088   3.337  17.223  0.00  0.00    +0.000 OA
BRANCH  24  26
ATOM     26  O   UNL     1       4.131   4.300  17.183  0.00  0.00    +0.000 OA
ATOM     27  H   UNL     1       4.354   3.785  16.384  0.00  0.00    +0.000 HD
ENDBRANCH  24  26
ENDBRANCH   4  24
BRANCH   6  28
ATOM     28  O   UNL     1       2.207   8.936  18.749  0.00  0.00    +0.000 OA
BRANCH  28  29
ATOM     29  C   UNL     1       1.405   9.257  17.597  0.00  0.00    +0.000 C 
BRANCH  29  30
ATOM     30  C   UNL     1       0.291  10.187  17.972  0.00  0.00    +0.000 A 
ATOM     31  C   UNL     1      -1.036   9.862  17.672  0.00  0.00    +0.000 A 
ATOM     32  C   UNL     1      -2.059  10.758  17.974  0.00  0.00    +0.000 A 
ATOM     33  C   UNL     1      -1.762  11.976  18.585  0.00  0.00    +0.000 A 
ATOM     34  C   UNL     1      -0.448  12.290  18.922  0.00  0.00    +0.000 A 
ATOM     35  C   UNL     1       0.576  11.397  18.621  0.00  0.00    +0.000 A 
ENDBRANCH  29  30
ENDBRANCH  28  29
ENDBRANCH   6  28
TORSDOF 8
ENDMDL
MODEL 7
REMARK VINA RESULT:      -7.7      1.011      1.583
REMARK  Name = 
REMARK  9 active torsions:
REMARK  status: ('A' for Active; 'I' for Inactive)
REMARK    1  A    between atoms: C_1  and  O_2
REMARK    2  A    between atoms: O_2  and  C_3
REMARK    3  A    between atoms: C_6  and  C_7
REMARK    4  A    between atoms: C_13  and  C_14
REMARK    5  A    between atoms: C_17  and  C_18
REMARK    6  A    between atoms: C_18  and  O_20
REMARK    7  A    between atoms: C_22  and  O_23
REMARK    8  A    between atoms: O_23  and  C_24
REMARK    9  A    between atoms: C_24  and  C_25
REMARK                            x       y       z     vdW  Elec       q    Type
REMARK                         _______ _______ _______ _____ _____    ______ ____
ROOT
ATOM      1  C   UNL     1       3.695   6.348  18.230  0.00  0.00    +0.000 A 
ATOM      2  C   UNL     1       5.011   6.869  18.236  0.00  0.00    +0.000 A 
ATOM      3  C   UNL     1       6.042   6.345  17.445  0.00  0.00    +0.000 A 
ATOM      4  C   UNL     1       5.783   5.292  16.583  0.00  0.00    +0.000 A 
ATOM      5  C   UNL     1       4.488   4.798  16.493  0.00  0.00    +0.000 A 
ATOM      6  C   UNL     1       3.461   5.256  17.350  0.00  0.00    +0.000 A 
ENDROOT
BRANCH   1  13
ATOM      7  C   UNL     1       0.506  10.527  21.125  0.00  0.00    +0.000 C 
ATOM      8  O   UNL     1       1.637  10.627  21.597  0.00  0.00    +0.000 OA
ATOM      9  N   UNL     1       0.089   9.443  20.378  0.00  0.00    +0.000 N 
ATOM     10  C   UNL     1       0.981   8.421  20.159  0.00  0.00    +0.000 A 
ATOM     11  N   UNL     1       1.143   7.366  20.910  0.00  0.00    +0.000 NA
ATOM     12  C   UNL     1       2.119   6.550  20.341  0.00  0.00    +0.000 A 
ATOM     13  C   UNL     1       2.658   6.956  19.124  0.00  0.00    +0.000 A 
ATOM     14  S   UNL     1       1.843   8.446  18.699  0.00  0.00    +0.000 S 
ATOM     15  H   UNL     1      -0.757   9.436  19.836  0.00  0.00    +0.000 HD
BRANCH   7  19
ATOM     16  C   UNL     1      -2.269  13.820  21.596  0.00  0.00    +0.000 A 
ATOM     17  C   UNL     1      -1.840  13.389  20.340  0.00  0.00    +0.000 A 
ATOM     18  C   UNL     1      -0.960  12.316  20.220  0.00  0.00    +0.000 A 
ATOM     19  C   UNL     1      -0.463  11.653  21.357  0.00  0.00    +0.000 A 
ATOM     20  C   UNL     1      -0.882  12.099  22.619  0.00  0.00    +0.000 A 
ATOM     21  C   UNL     1      -1.780  13.174  22.734  0.00  0.00    +0.000 A 
BRANCH  16  23
ATOM     22  C   UNL     1      -2.694  16.015  22.367  0.00  0.00    +0.000 C 
ATOM     23  O   UNL     1      -3.107  14.897  21.591  0.00  0.00    +0.000 OA
ENDBRANCH  16  23
ENDBRANCH   7  19
ENDBRANCH   1  13
BRANCH   4  24
ATOM     24  C   UNL     1       6.881   4.738  15.756  0.00  0.00    +0.000 C 
ATOM     25  O   UNL     1       6.791   4.613  14.543  0.00  0.00    +0.000 OA
BRANCH  24  26
ATOM     26  O   UNL     1       7.994   4.423  16.445  0.00  0.00    +0.000 OA
ATOM     27  H   UNL     1       8.768   4.159  15.912  0.00  0.00    +0.000 HD
ENDBRANCH  24  26
ENDBRANCH   4  24
BRANCH   6  28
ATOM     28  O   UNL     1       2.232   4.634  17.335  0.00  0.00    +0.000 OA
BRANCH  28  29
ATOM     29  C   UNL     1       2.261   3.227  17.645  0.00  0.00    +0.000 C 
BRANCH  29  30
ATOM     30  C   UNL     1       2.261   3.014  19.130  0.00  0.00    +0.000 A 
ATOM     31  C   UNL     1       3.438   2.659  19.795  0.00  0.00    +0.000 A 
ATOM     32  C   UNL     1       3.416   2.409  21.165  0.00  0.00    +0.000 A 
ATOM     33  C   UNL     1       2.222   2.522  21.877  0.00  0.00    +0.000 A 
ATOM     34  C   UNL     1       1.053   2.914  21.228  0.00  0.00    +0.000 A 
ATOM     35  C   UNL     1       1.072   3.164  19.859  0.00  0.00    +0.000 A 
ENDBRANCH  29  30
ENDBRANCH  28  29
ENDBRANCH   6  28
TORSDOF 8
ENDMDL
MODEL 8
REMARK VINA RESULT:      -7.7      2.029      2.603
REMARK  Name = 
REMARK  9 active torsions:
REMARK  status: ('A' for Active; 'I' for Inactive)
REMARK    1  A    between atoms: C_1  and  O_2
REMARK    2  A    between atoms: O_2  and  C_3
REMARK    3  A    between atoms: C_6  and  C_7
REMARK    4  A    between atoms: C_13  and  C_14
REMARK    5  A    between atoms: C_17  and  C_18
REMARK    6  A    between atoms: C_18  and  O_20
REMARK    7  A    between atoms: C_22  and  O_23
REMARK    8  A    between atoms: O_23  and  C_24
REMARK    9  A    between atoms: C_24  and  C_25
REMARK                            x       y       z     vdW  Elec       q    Type
REMARK                         _______ _______ _______ _____ _____    ______ ____
ROOT
ATOM      1  C   UNL     1       3.591   6.865  17.903  0.00  0.00    +0.000 A 
ATOM      2  C   UNL     1       4.923   7.301  17.701  0.00  0.00    +0.000 A 
ATOM      3  C   UNL     1       5.892   6.515  17.065  0.00  0.00    +0.000 A 
ATOM      4  C   UNL     1       5.554   5.266  16.569  0.00  0.00    +0.000 A 
ATOM      5  C   UNL     1       4.240   4.831  16.684  0.00  0.00    +0.000 A 
ATOM      6  C   UNL     1       3.274   5.573  17.403  0.00  0.00    +0.000 A 
ENDROOT
BRANCH   1  13
ATOM      7  C   UNL     1       0.956  11.897  19.839  0.00  0.00    +0.000 C 
ATOM      8  O   UNL     1       2.070  11.919  20.359  0.00  0.00    +0.000 OA
ATOM      9  N   UNL     1       0.409  10.768  19.261  0.00  0.00    +0.000 N 
ATOM     10  C   UNL     1       1.147   9.609  19.276  0.00  0.00    +0.000 A 
ATOM     11  N   UNL     1       1.119   8.691  20.203  0.00  0.00    +0.000 NA
ATOM     12  C   UNL     1       1.983   7.657  19.844  0.00  0.00    +0.000 A 
ATOM     13  C   UNL     1       2.623   7.762  18.614  0.00  0.00    +0.000 A 
ATOM     14  S   UNL     1       2.058   9.253  17.891  0.00  0.00    +0.000 S 
ATOM     15  H   UNL     1      -0.406  10.786  18.674  0.00  0.00    +0.000 HD
BRANCH   7  19
ATOM     16  C   UNL     1      -1.194  15.654  19.655  0.00  0.00    +0.000 A 
ATOM     17  C   UNL     1      -0.068  15.408  18.869  0.00  0.00    +0.000 A 
ATOM     18  C   UNL     1       0.592  14.183  18.938  0.00  0.00    +0.000 A 
ATOM     19  C   UNL     1       0.158  13.172  19.814  0.00  0.00    +0.000 A 
ATOM     20  C   UNL     1      -0.964  13.428  20.616  0.00  0.00    +0.000 A 
ATOM     21  C   UNL     1      -1.635  14.660  20.533  0.00  0.00    +0.000 A 
BRANCH  16  23
ATOM     22  C   UNL     1      -1.267  17.676  18.432  0.00  0.00    +0.000 C 
ATOM     23  O   UNL     1      -1.739  16.898  19.524  0.00  0.00    +0.000 OA
ENDBRANCH  16  23
ENDBRANCH   7  19
ENDBRANCH   1  13
BRANCH   4  24
ATOM     24  C   UNL     1       6.587   4.439  15.905  0.00  0.00    +0.000 C 
ATOM     25  O   UNL     1       6.378   3.841  14.860  0.00  0.00    +0.000 OA
BRANCH  24  26
ATOM     26  O   UNL     1       7.782   4.434  16.527  0.00  0.00    +0.000 OA
ATOM     27  H   UNL     1       7.841   3.892  17.337  0.00  0.00    +0.000 HD
ENDBRANCH  24  26
ENDBRANCH   4  24
BRANCH   6  28
ATOM     28  O   UNL     1       2.026   5.034  17.624  0.00  0.00    +0.000 OA
BRANCH  28  29
ATOM     29  C   UNL     1       1.997   3.598  17.737  0.00  0.00    +0.000 C 
BRANCH  29  30
ATOM     30  C   UNL     1       2.118   3.180  19.172  0.00  0.00    +0.000 A 
ATOM     31  C   UNL     1       1.020   3.276  20.034  0.00  0.00    +0.000 A 
ATOM     32  C   UNL     1       1.157   2.937  21.378  0.00  0.00    +0.000 A 
ATOM     33  C   UNL     1       2.387   2.493  21.865  0.00  0.00    +0.000 A 
ATOM     34  C   UNL     1       3.474   2.357  21.004  0.00  0.00    +0.000 A 
ATOM     35  C   UNL     1       3.340   2.695  19.661  0.00  0.00    +0.000 A 
ENDBRANCH  29  30
ENDBRANCH  28  29
ENDBRANCH   6  28
TORSDOF 8
ENDMDL
MODEL 9
REMARK VINA RESULT:      -7.7      2.154      4.527
REMARK  Name = 
REMARK  9 active torsions:
REMARK  status: ('A' for Active; 'I' for Inactive)
REMARK    1  A    between atoms: C_1  and  O_2
REMARK    2  A    between atoms: O_2  and  C_3
REMARK    3  A    between atoms: C_6  and  C_7
REMARK    4  A    between atoms: C_13  and  C_14
REMARK    5  A    between atoms: C_17  and  C_18
REMARK    6  A    between atoms: C_18  and  O_20
REMARK    7  A    between atoms: C_22  and  O_23
REMARK    8  A    between atoms: O_23  and  C_24
REMARK    9  A    between atoms: C_24  and  C_25
REMARK                            x       y       z     vdW  Elec       q    Type
REMARK                         _______ _______ _______ _____ _____    ______ ____
ROOT
ATOM      1  C   UNL     1       2.798   6.101  18.934  0.00  0.00    +0.000 A 
ATOM      2  C   UNL     1       2.359   5.238  19.967  0.00  0.00    +0.000 A 
ATOM      3  C   UNL     1       2.759   3.899  20.062  0.00  0.00    +0.000 A 
ATOM      4  C   UNL     1       3.650   3.377  19.139  0.00  0.00    +0.000 A 
ATOM      5  C   UNL     1       4.160   4.209  18.151  0.00  0.00    +0.000 A 
ATOM      6  C   UNL     1       3.696   5.536  17.989  0.00  0.00    +0.000 A 
ENDROOT
BRANCH   1  13
ATOM      7  C   UNL     1      -0.697  10.873  19.949  0.00  0.00    +0.000 C 
ATOM      8  O   UNL     1      -1.398  10.121  19.274  0.00  0.00    +0.000 OA
ATOM      9  N   UNL     1       0.670  10.722  20.080  0.00  0.00    +0.000 N 
ATOM     10  C   UNL     1       1.276   9.684  19.415  0.00  0.00    +0.000 A 
ATOM     11  N   UNL     1       1.774   9.728  18.209  0.00  0.00    +0.000 NA
ATOM     12  C   UNL     1       2.328   8.487  17.901  0.00  0.00    +0.000 A 
ATOM     13  C   UNL     1       2.303   7.514  18.896  0.00  0.00    +0.000 A 
ATOM     14  S   UNL     1       1.551   8.258  20.290  0.00  0.00    +0.000 S 
ATOM     15  H   UNL     1       1.217  11.207  20.769  0.00  0.00    +0.000 HD
BRANCH   7  19
ATOM     16  C   UNL     1      -2.633  14.002  22.235  0.00  0.00    +0.000 A 
ATOM     17  C   UNL     1      -2.132  12.848  22.838  0.00  0.00    +0.000 A 
ATOM     18  C   UNL     1      -1.500  11.867  22.079  0.00  0.00    +0.000 A 
ATOM     19  C   UNL     1      -1.367  12.000  20.685  0.00  0.00    +0.000 A 
ATOM     20  C   UNL     1      -1.887  13.152  20.078  0.00  0.00    +0.000 A 
ATOM     21  C   UNL     1      -2.513  14.146  20.850  0.00  0.00    +0.000 A 
BRANCH  16  23
ATOM     22  C   UNL     1      -2.410  15.683  23.884  0.00  0.00    +0.000 C 
ATOM     23  O   UNL     1      -3.258  14.878  23.075  0.00  0.00    +0.000 OA
ENDBRANCH  16  23
ENDBRANCH   7  19
ENDBRANCH   1  13
BRANCH   4  24
ATOM     24  C   UNL     1       4.062   1.958  19.242  0.00  0.00    +0.000 C 
ATOM     25  O   UNL     1       3.580   1.081  18.540  0.00  0.00    +0.000 OA
BRANCH  24  26
ATOM     26  O   UNL     1       5.035   1.724  20.144  0.00  0.00    +0.000 OA
ATOM     27  H   UNL     1       5.233   0.785  20.327  0.00  0.00    +0.000 HD
ENDBRANCH  24  26
ENDBRANCH   4  24
BRANCH   6  28
ATOM     28  O   UNL     1       4.113   6.276  16.904  0.00  0.00    +0.000 OA
BRANCH  28  29
ATOM     29  C   UNL     1       5.404   5.909  16.380  0.00  0.00    +0.000 C 
BRANCH  29  30
ATOM     30  C   UNL     1       6.500   6.538  17.186  0.00  0.00    +0.000 A 
ATOM     31  C   UNL     1       7.186   5.796  18.152  0.00  0.00    +0.000 A 
ATOM     32  C   UNL     1       8.164   6.404  18.935  0.00  0.00    +0.000 A 
ATOM     33  C   UNL     1       8.467   7.753  18.750  0.00  0.00    +0.000 A 
ATOM     34  C   UNL     1       7.816   8.489  17.763  0.00  0.00    +0.000 A 
ATOM     35  C   UNL     1       6.838   7.884  16.980  0.00  0.00    +0.000 A 
ENDBRANCH  29  30
ENDBRANCH  28  29
ENDBRANCH   6  28
TORSDOF 8
ENDMDL
