MODEL 1
REMARK VINA RESULT:      -7.2      0.000      0.000
REMARK  Name = 
REMARK  13 active torsions:
REMARK  status: ('A' for Active; 'I' for Inactive)
REMARK    1  A    between atoms: C_1  and  C_2
REMARK    2  A    between atoms: C_2  and  C_3
REMARK    3  A    between atoms: C_3  and  C_4
REMARK    4  A    between atoms: C_3  and  O_6
REMARK    5  A    between atoms: C_4  and  C_5
REMARK    6  A    between atoms: O_6  and  C_7
REMARK    7  A    between atoms: C_9  and  C_10
REMARK    8  A    between atoms: C_10  and  O_12
REMARK    9  A    between atoms: C_14  and  N_15
REMARK   10  A    between atoms: N_15  and  C_16
REMARK   11  A    between atoms: C_22  and  N_23
REMARK   12  A    between atoms: C_26  and  N_27
REMARK   13  A    between atoms: C_28  and  C_29
REMARK                            x       y       z     vdW  Elec       q    Type
REMARK                         _______ _______ _______ _____ _____    ______ ____
ROOT
ATOM      1  C   UNL     1       5.241   4.262  17.122  0.00  0.00    +0.000 C 
ATOM      2  C   UNL     1       6.408   4.678  17.979  0.00  0.00    +0.000 C 
ATOM      3  C   UNL     1       6.672   5.961  18.295  0.00  0.00    +0.000 C 
ATOM      4  C   UNL     1       5.846   7.109  17.770  0.00  0.00    +0.000 C 
ATOM      5  C   UNL     1       4.529   6.726  17.053  0.00  0.00    +0.000 C 
ATOM      6  C   UNL     1       4.753   5.435  16.200  0.00  0.00    +0.000 C 
ENDROOT
BRANCH   6   7
ATOM      7  N   UNL     1       5.722   5.638  15.078  0.00  0.00    +0.000 N 
ATOM      8  C   UNL     1       6.289   4.593  14.388  0.00  0.00    +0.000 C 
ATOM      9  C   UNL     1       7.297   4.983  13.339  0.00  0.00    +0.000 C 
ATOM     10  O   UNL     1       6.009   3.418  14.593  0.00  0.00    +0.000 OA
ATOM     11  H   UNL     1       6.163   6.546  14.984  0.00  0.00    +0.000 HD
ENDBRANCH   6   7
BRANCH   3  12
ATOM     12  C   UNL     1       7.844   6.367  19.111  0.00  0.00    +0.000 C 
ATOM     13  O   UNL     1       8.517   7.349  18.846  0.00  0.00    +0.000 OA
BRANCH  12  14
ATOM     14  O   UNL     1       8.088   5.582  20.175  0.00  0.00    +0.000 OA
ATOM     15  H   UNL     1       8.710   4.853  20.006  0.00  0.00    +0.000 HD
ENDBRANCH  12  14
ENDBRANCH   3  12
BRANCH   5  16
ATOM     16  N   UNL     1       3.382   6.562  18.011  0.00  0.00    +0.000 N 
ATOM     17  H   UNL     1       3.644   6.075  18.871  0.00  0.00    +0.000 HD
BRANCH  16  18
ATOM     18  C   UNL     1       2.658   7.726  18.315  0.00  0.00    +0.000 A 
ATOM     19  N   UNL     1       2.631   8.691  17.371  0.00  0.00    +0.000 NA
ATOM     20  C   UNL     1       1.999   9.864  17.611  0.00  0.00    +0.000 A 
ATOM     21  C   UNL     1       1.342  10.148  18.789  0.00  0.00    +0.000 A 
ATOM     22 BR   UNL     1       0.541  11.825  19.083  0.00  0.00    +0.000 Br
ATOM     23  C   UNL     1       1.280   9.156  19.748  0.00  0.00    +0.000 A 
ATOM     24  C   UNL     1       1.920   7.933  19.490  0.00  0.00    +0.000 A 
BRANCH  24  25
ATOM     25  N   UNL     1       1.728   6.894  20.474  0.00  0.00    +0.000 N 
ATOM     26  O   UNL     1       2.170   5.767  20.216  0.00  0.00    +0.000 OA
ATOM     27  O   UNL     1       1.173   7.222  21.537  0.00  0.00    +0.000 OA
ENDBRANCH  24  25
ENDBRANCH  16  18
ENDBRANCH   5  16
BRANCH   1  28
ATOM     28  O   UNL     1       4.322   3.726  18.072  0.00  0.00    +0.000 OA
BRANCH  28  29
ATOM     29  C   UNL     1       3.531   2.604  17.683  0.00  0.00    +0.000 C 
BRANCH  29  31
ATOM     30  C   UNL     1       4.468   1.806  19.907  0.00  0.00    +0.000 C 
ATOM     31  C   UNL     1       3.711   1.425  18.644  0.00  0.00    +0.000 C 
ENDBRANCH  29  31
BRANCH  29  32
ATOM     32  C   UNL     1       2.082   3.096  17.548  0.00  0.00    +0.000 C 
ATOM     33  C   UNL     1       1.120   2.687  18.650  0.00  0.00    +0.000 C 
ENDBRANCH  29  32
ENDBRANCH  28  29
ENDBRANCH   1  28
TORSDOF 10
ENDMDL
MODEL 2
REMARK VINA RESULT:      -6.9      6.089      8.861
REMARK  Name = 
REMARK  13 active torsions:
REMARK  status: ('A' for Active; 'I' for Inactive)
REMARK    1  A    between atoms: C_1  and  C_2
REMARK    2  A    between atoms: C_2  and  C_3
REMARK    3  A    between atoms: C_3  and  C_4
REMARK    4  A    between atoms: C_3  and  O_6
REMARK    5  A    between atoms: C_4  and  C_5
REMARK    6  A    between atoms: O_6  and  C_7
REMARK    7  A    between atoms: C_9  and  C_10
REMARK    8  A    between atoms: C_10  and  O_12
REMARK    9  A    between atoms: C_14  and  N_15
REMARK   10  A    between atoms: N_15  and  C_16
REMARK   11  A    between atoms: C_22  and  N_23
REMARK   12  A    between atoms: C_26  and  N_27
REMARK   13  A    between atoms: C_28  and  C_29
REMARK                            x       y       z     vdW  Elec       q    Type
REMARK                         _______ _______ _______ _____ _____    ______ ____
ROOT
ATOM      1  C   UNL     1      -0.570  10.026  19.030  0.00  0.00    +0.000 C 
ATOM      2  C   UNL     1       0.641  10.888  18.787  0.00  0.00    +0.000 C 
ATOM      3  C   UNL     1       0.568  12.213  18.552  0.00  0.00    +0.000 C 
ATOM      4  C   UNL     1      -0.747  12.947  18.458  0.00  0.00    +0.000 C 
ATOM      5  C   UNL     1      -2.001  12.151  18.894  0.00  0.00    +0.000 C 
ATOM      6  C   UNL     1      -1.868  10.665  18.424  0.00  0.00    +0.000 C 
ENDROOT
BRANCH   6   7
ATOM      7  N   UNL     1      -1.858  10.525  16.934  0.00  0.00    +0.000 N 
ATOM      8  C   UNL     1      -3.009  10.467  16.186  0.00  0.00    +0.000 C 
ATOM      9  C   UNL     1      -2.810  10.252  14.709  0.00  0.00    +0.000 C 
ATOM     10  O   UNL     1      -4.132  10.583  16.664  0.00  0.00    +0.000 OA
ATOM     11  H   UNL     1      -1.002  10.216  16.488  0.00  0.00    +0.000 HD
ENDBRANCH   6   7
BRANCH   3  12
ATOM     12  C   UNL     1       1.763  13.051  18.278  0.00  0.00    +0.000 C 
ATOM     13  O   UNL     1       1.911  14.158  18.766  0.00  0.00    +0.000 OA
BRANCH  12  14
ATOM     14  O   UNL     1       2.676  12.483  17.470  0.00  0.00    +0.000 OA
ATOM     15  H   UNL     1       2.343  11.731  16.950  0.00  0.00    +0.000 HD
ENDBRANCH  12  14
ENDBRANCH   3  12
BRANCH   5  16
ATOM     16  N   UNL     1      -2.250  12.240  20.374  0.00  0.00    +0.000 N 
ATOM     17  H   UNL     1      -1.564  12.819  20.863  0.00  0.00    +0.000 HD
BRANCH  16  18
ATOM     18  C   UNL     1      -3.551  12.599  20.762  0.00  0.00    +0.000 A 
ATOM     19  N   UNL     1      -4.461  12.750  19.776  0.00  0.00    +0.000 NA
ATOM     20  C   UNL     1      -5.723  13.147  20.066  0.00  0.00    +0.000 A 
ATOM     21  C   UNL     1      -6.166  13.402  21.346  0.00  0.00    +0.000 A 
ATOM     22 BR   UNL     1      -7.914  14.017  21.673  0.00  0.00    +0.000 Br
ATOM     23  C   UNL     1      -5.287  13.183  22.388  0.00  0.00    +0.000 A 
ATOM     24  C   UNL     1      -3.984  12.753  22.088  0.00  0.00    +0.000 A 
BRANCH  24  25
ATOM     25  N   UNL     1      -3.144  12.429  23.216  0.00  0.00    +0.000 N 
ATOM     26  O   UNL     1      -1.974  12.835  23.200  0.00  0.00    +0.000 OA
ATOM     27  O   UNL     1      -3.676  11.805  24.151  0.00  0.00    +0.000 OA
ENDBRANCH  24  25
ENDBRANCH  16  18
ENDBRANCH   5  16
BRANCH   1  28
ATOM     28  O   UNL     1      -0.524   9.802  20.439  0.00  0.00    +0.000 OA
BRANCH  28  29
ATOM     29  C   UNL     1       0.734   9.471  21.026  0.00  0.00    +0.000 C 
BRANCH  29  31
ATOM     30  C   UNL     1      -0.420   9.644  23.284  0.00  0.00    +0.000 C 
ATOM     31  C   UNL     1       0.827   9.960  22.474  0.00  0.00    +0.000 C 
ENDBRANCH  29  31
BRANCH  29  32
ATOM     32  C   UNL     1       0.929   7.956  20.855  0.00  0.00    +0.000 C 
ATOM     33  C   UNL     1       2.071   7.516  19.956  0.00  0.00    +0.000 C 
ENDBRANCH  29  32
ENDBRANCH  28  29
ENDBRANCH   1  28
TORSDOF 10
ENDMDL
MODEL 3
REMARK VINA RESULT:      -6.7      5.107      8.668
REMARK  Name = 
REMARK  13 active torsions:
REMARK  status: ('A' for Active; 'I' for Inactive)
REMARK    1  A    between atoms: C_1  and  C_2
REMARK    2  A    between atoms: C_2  and  C_3
REMARK    3  A    between atoms: C_3  and  C_4
REMARK    4  A    between atoms: C_3  and  O_6
REMARK    5  A    between atoms: C_4  and  C_5
REMARK    6  A    between atoms: O_6  and  C_7
REMARK    7  A    between atoms: C_9  and  C_10
REMARK    8  A    between atoms: C_10  and  O_12
REMARK    9  A    between atoms: C_14  and  N_15
REMARK   10  A    between atoms: N_15  and  C_16
REMARK   11  A    between atoms: C_22  and  N_23
REMARK   12  A    between atoms: C_26  and  N_27
REMARK   13  A    between atoms: C_28  and  C_29
REMARK                            x       y       z     vdW  Elec       q    Type
REMARK                         _______ _______ _______ _____ _____    ______ ____
ROOT
ATOM      1  C   UNL     1      -0.871  10.581  18.565  0.00  0.00    +0.000 C 
ATOM      2  C   UNL     1      -1.162  10.859  20.017  0.00  0.00    +0.000 C 
ATOM      3  C   UNL     1      -0.252  11.377  20.866  0.00  0.00    +0.000 C 
ATOM      4  C   UNL     1       1.165  11.679  20.446  0.00  0.00    +0.000 C 
ATOM      5  C   UNL     1       1.456  11.599  18.928  0.00  0.00    +0.000 C 
ATOM      6  C   UNL     1       0.666  10.402  18.306  0.00  0.00    +0.000 C 
ENDROOT
BRANCH   6   7
ATOM      7  N   UNL     1       1.118   9.073  18.824  0.00  0.00    +0.000 N 
ATOM      8  C   UNL     1       2.104   8.335  18.215  0.00  0.00    +0.000 C 
ATOM      9  C   UNL     1       2.380   6.990  18.833  0.00  0.00    +0.000 C 
ATOM     10  O   UNL     1       2.732   8.724  17.236  0.00  0.00    +0.000 OA
ATOM     11  H   UNL     1       0.523   8.589  19.487  0.00  0.00    +0.000 HD
ENDBRANCH   6   7
BRANCH   3  12
ATOM     12  C   UNL     1      -0.534  11.615  22.304  0.00  0.00    +0.000 C 
ATOM     13  O   UNL     1      -1.127  12.603  22.700  0.00  0.00    +0.000 OA
BRANCH  12  14
ATOM     14  O   UNL     1      -0.105  10.643  23.129  0.00  0.00    +0.000 OA
ATOM     15  H   UNL     1      -0.188   9.742  22.771  0.00  0.00    +0.000 HD
ENDBRANCH  12  14
ENDBRANCH   3  12
BRANCH   5  16
ATOM     16  N   UNL     1       1.151  12.889  18.218  0.00  0.00    +0.000 N 
ATOM     17  H   UNL     1       0.172  13.169  18.297  0.00  0.00    +0.000 HD
BRANCH  16  18
ATOM     18  C   UNL     1       1.991  13.974  18.519  0.00  0.00    +0.000 A 
ATOM     19  N   UNL     1       3.317  13.782  18.356  0.00  0.00    +0.000 NA
ATOM     20  C   UNL     1       4.194  14.762  18.677  0.00  0.00    +0.000 A 
ATOM     21  C   UNL     1       3.813  15.996  19.160  0.00  0.00    +0.000 A 
ATOM     22 BR   UNL     1       5.087  17.291  19.650  0.00  0.00    +0.000 Br
ATOM     23  C   UNL     1       2.461  16.258  19.265  0.00  0.00    +0.000 A 
ATOM     24  C   UNL     1       1.552  15.246  18.915  0.00  0.00    +0.000 A 
BRANCH  24  25
ATOM     25  N   UNL     1       0.156  15.611  18.934  0.00  0.00    +0.000 N 
ATOM     26  O   UNL     1      -0.187  16.614  18.295  0.00  0.00    +0.000 OA
ATOM     27  O   UNL     1      -0.614  14.855  19.553  0.00  0.00    +0.000 OA
ENDBRANCH  24  25
ENDBRANCH  16  18
ENDBRANCH   5  16
BRANCH   1  28
ATOM     28  O   UNL     1      -1.547  11.645  17.896  0.00  0.00    +0.000 OA
BRANCH  28  29
ATOM     29  C   UNL     1      -2.665  11.319  17.071  0.00  0.00    +0.000 C 
BRANCH  29  31
ATOM     30  C   UNL     1      -2.841   9.929  14.951  0.00  0.00    +0.000 C 
ATOM     31  C   UNL     1      -2.513   9.934  16.435  0.00  0.00    +0.000 C 
ENDBRANCH  29  31
BRANCH  29  32
ATOM     32  C   UNL     1      -3.927  11.486  17.932  0.00  0.00    +0.000 C 
ATOM     33  C   UNL     1      -5.211  11.824  17.196  0.00  0.00    +0.000 C 
ENDBRANCH  29  32
ENDBRANCH  28  29
ENDBRANCH   1  28
TORSDOF 10
ENDMDL
MODEL 4
REMARK VINA RESULT:      -6.6      4.940      8.585
REMARK  Name = 
REMARK  13 active torsions:
REMARK  status: ('A' for Active; 'I' for Inactive)
REMARK    1  A    between atoms: C_1  and  C_2
REMARK    2  A    between atoms: C_2  and  C_3
REMARK    3  A    between atoms: C_3  and  C_4
REMARK    4  A    between atoms: C_3  and  O_6
REMARK    5  A    between atoms: C_4  and  C_5
REMARK    6  A    between atoms: O_6  and  C_7
REMARK    7  A    between atoms: C_9  and  C_10
REMARK    8  A    between atoms: C_10  and  O_12
REMARK    9  A    between atoms: C_14  and  N_15
REMARK   10  A    between atoms: N_15  and  C_16
REMARK   11  A    between atoms: C_22  and  N_23
REMARK   12  A    between atoms: C_26  and  N_27
REMARK   13  A    between atoms: C_28  and  C_29
REMARK                            x       y       z     vdW  Elec       q    Type
REMARK                         _______ _______ _______ _____ _____    ______ ____
ROOT
ATOM      1  C   UNL     1      -0.811  10.523  18.797  0.00  0.00    +0.000 C 
ATOM      2  C   UNL     1      -1.223  10.528  20.247  0.00  0.00    +0.000 C 
ATOM      3  C   UNL     1      -0.422  10.964  21.239  0.00  0.00    +0.000 C 
ATOM      4  C   UNL     1       0.988  11.439  20.991  0.00  0.00    +0.000 C 
ATOM      5  C   UNL     1       1.387  11.639  19.509  0.00  0.00    +0.000 C 
ATOM      6  C   UNL     1       0.750  10.507  18.638  0.00  0.00    +0.000 C 
ENDROOT
BRANCH   6   7
ATOM      7  N   UNL     1       1.282   9.149  18.970  0.00  0.00    +0.000 N 
ATOM      8  C   UNL     1       2.141   8.465  18.142  0.00  0.00    +0.000 C 
ATOM      9  C   UNL     1       2.516   7.082  18.601  0.00  0.00    +0.000 C 
ATOM     10  O   UNL     1       2.585   8.930  17.098  0.00  0.00    +0.000 OA
ATOM     11  H   UNL     1       0.813   8.613  19.691  0.00  0.00    +0.000 HD
ENDBRANCH   6   7
BRANCH   3  12
ATOM     12  C   UNL     1      -0.820  10.934  22.669  0.00  0.00    +0.000 C 
ATOM     13  O   UNL     1      -0.184  10.326  23.513  0.00  0.00    +0.000 OA
BRANCH  12  14
ATOM     14  O   UNL     1      -1.921  11.649  22.962  0.00  0.00    +0.000 OA
ATOM     15  H   UNL     1      -1.975  12.511  22.515  0.00  0.00    +0.000 HD
ENDBRANCH  12  14
ENDBRANCH   3  12
BRANCH   5  16
ATOM     16  N   UNL     1       1.017  13.003  18.996  0.00  0.00    +0.000 N 
ATOM     17  H   UNL     1       0.152  13.364  19.401  0.00  0.00    +0.000 HD
BRANCH  16  18
ATOM     18  C   UNL     1       2.025  13.980  19.056  0.00  0.00    +0.000 A 
ATOM     19  N   UNL     1       2.821  14.103  17.974  0.00  0.00    +0.000 NA
ATOM     20  C   UNL     1       3.848  14.985  17.977  0.00  0.00    +0.000 A 
ATOM     21  C   UNL     1       4.139  15.811  19.042  0.00  0.00    +0.000 A 
ATOM     22 BR   UNL     1       5.623  16.967  19.006  0.00  0.00    +0.000 Br
ATOM     23  C   UNL     1       3.298  15.771  20.136  0.00  0.00    +0.000 A 
ATOM     24  C   UNL     1       2.222  14.869  20.124  0.00  0.00    +0.000 A 
BRANCH  24  25
ATOM     25  N   UNL     1       1.311  14.949  21.240  0.00  0.00    +0.000 N 
ATOM     26  O   UNL     1       0.119  15.183  20.996  0.00  0.00    +0.000 OA
ATOM     27  O   UNL     1       1.782  14.725  22.368  0.00  0.00    +0.000 OA
ENDBRANCH  24  25
ENDBRANCH  16  18
ENDBRANCH   5  16
BRANCH   1  28
ATOM     28  O   UNL     1      -1.531  11.630  18.257  0.00  0.00    +0.000 OA
BRANCH  28  29
ATOM     29  C   UNL     1      -2.584  11.360  17.332  0.00  0.00    +0.000 C 
BRANCH  29  31
ATOM     30  C   UNL     1      -2.795  10.013  15.188  0.00  0.00    +0.000 C 
ATOM     31  C   UNL     1      -2.409   9.996  16.658  0.00  0.00    +0.000 C 
ENDBRANCH  29  31
BRANCH  29  32
ATOM     32  C   UNL     1      -3.909  11.525  18.094  0.00  0.00    +0.000 C 
ATOM     33  C   UNL     1      -5.130  11.881  17.264  0.00  0.00    +0.000 C 
ENDBRANCH  29  32
ENDBRANCH  28  29
ENDBRANCH   1  28
TORSDOF 10
ENDMDL
MODEL 5
REMARK VINA RESULT:      -6.5      4.985      8.612
REMARK  Name = 
REMARK  13 active torsions:
REMARK  status: ('A' for Active; 'I' for Inactive)
REMARK    1  A    between atoms: C_1  and  C_2
REMARK    2  A    between atoms: C_2  and  C_3
REMARK    3  A    between atoms: C_3  and  C_4
REMARK    4  A    between atoms: C_3  and  O_6
REMARK    5  A    between atoms: C_4  and  C_5
REMARK    6  A    between atoms: O_6  and  C_7
REMARK    7  A    between atoms: C_9  and  C_10
REMARK    8  A    between atoms: C_10  and  O_12
REMARK    9  A    between atoms: C_14  and  N_15
REMARK   10  A    between atoms: N_15  and  C_16
REMARK   11  A    between atoms: C_22  and  N_23
REMARK   12  A    between atoms: C_26  and  N_27
REMARK   13  A    between atoms: C_28  and  C_29
REMARK                            x       y       z     vdW  Elec       q    Type
REMARK                         _______ _______ _______ _____ _____    ______ ____
ROOT
ATOM      1  C   UNL     1      -0.806  10.179  18.452  0.00  0.00    +0.000 C 
ATOM      2  C   UNL     1      -1.193  10.423  19.888  0.00  0.00    +0.000 C 
ATOM      3  C   UNL     1      -0.370  10.999  20.786  0.00  0.00    +0.000 C 
ATOM      4  C   UNL     1       1.042  11.405  20.444  0.00  0.00    +0.000 C 
ATOM      5  C   UNL     1       1.418  11.359  18.943  0.00  0.00    +0.000 C 
ATOM      6  C   UNL     1       0.751  10.113  18.274  0.00  0.00    +0.000 C 
ENDROOT
BRANCH   6   7
ATOM      7  N   UNL     1       1.271   8.816  18.811  0.00  0.00    +0.000 N 
ATOM      8  C   UNL     1       2.260   8.097  18.184  0.00  0.00    +0.000 C 
ATOM      9  C   UNL     1       2.607   6.780  18.827  0.00  0.00    +0.000 C 
ATOM     10  O   UNL     1       2.837   8.480  17.172  0.00  0.00    +0.000 OA
ATOM     11  H   UNL     1       0.719   8.331  19.508  0.00  0.00    +0.000 HD
ENDBRANCH   6   7
BRANCH   3  12
ATOM     12  C   UNL     1      -0.743  11.203  22.208  0.00  0.00    +0.000 C 
ATOM     13  O   UNL     1      -0.132  10.685  23.126  0.00  0.00    +0.000 OA
BRANCH  12  14
ATOM     14  O   UNL     1      -1.791  12.024  22.402  0.00  0.00    +0.000 OA
ATOM     15  H   UNL     1      -1.574  12.972  22.373  0.00  0.00    +0.000 HD
ENDBRANCH  12  14
ENDBRANCH   3  12
BRANCH   5  16
ATOM     16  N   UNL     1       1.059  12.629  18.224  0.00  0.00    +0.000 N 
ATOM     17  H   UNL     1       0.065  12.857  18.284  0.00  0.00    +0.000 HD
BRANCH  16  18
ATOM     18  C   UNL     1       1.834  13.758  18.537  0.00  0.00    +0.000 A 
ATOM     19  N   UNL     1       3.169  13.644  18.377  0.00  0.00    +0.000 NA
ATOM     20  C   UNL     1       3.988  14.670  18.709  0.00  0.00    +0.000 A 
ATOM     21  C   UNL     1       3.536  15.876  19.201  0.00  0.00    +0.000 A 
ATOM     22 BR   UNL     1       4.733  17.237  19.705  0.00  0.00    +0.000 Br
ATOM     23  C   UNL     1       2.171  16.059  19.303  0.00  0.00    +0.000 A 
ATOM     24  C   UNL     1       1.322  15.000  18.942  0.00  0.00    +0.000 A 
BRANCH  24  25
ATOM     25  N   UNL     1      -0.093  15.284  18.959  0.00  0.00    +0.000 N 
ATOM     26  O   UNL     1      -0.481  16.313  18.391  0.00  0.00    +0.000 OA
ATOM     27  O   UNL     1      -0.828  14.441  19.501  0.00  0.00    +0.000 OA
ENDBRANCH  24  25
ENDBRANCH  16  18
ENDBRANCH   5  16
BRANCH   1  28
ATOM     28  O   UNL     1      -1.521  11.197  17.752  0.00  0.00    +0.000 OA
BRANCH  28  29
ATOM     29  C   UNL     1      -2.835  10.896  17.285  0.00  0.00    +0.000 C 
BRANCH  29  31
ATOM     30  C   UNL     1      -5.270  11.614  17.404  0.00  0.00    +0.000 C 
ATOM     31  C   UNL     1      -3.904  11.663  18.069  0.00  0.00    +0.000 C 
ENDBRANCH  29  31
BRANCH  29  32
ATOM     32  C   UNL     1      -2.849  11.158  15.771  0.00  0.00    +0.000 C 
ATOM     33  C   UNL     1      -2.887   9.936  14.870  0.00  0.00    +0.000 C 
ENDBRANCH  29  32
ENDBRANCH  28  29
ENDBRANCH   1  28
TORSDOF 10
ENDMDL
MODEL 6
REMARK VINA RESULT:      -6.5      7.872      9.986
REMARK  Name = 
REMARK  13 active torsions:
REMARK  status: ('A' for Active; 'I' for Inactive)
REMARK    1  A    between atoms: C_1  and  C_2
REMARK    2  A    between atoms: C_2  and  C_3
REMARK    3  A    between atoms: C_3  and  C_4
REMARK    4  A    between atoms: C_3  and  O_6
REMARK    5  A    between atoms: C_4  and  C_5
REMARK    6  A    between atoms: O_6  and  C_7
REMARK    7  A    between atoms: C_9  and  C_10
REMARK    8  A    between atoms: C_10  and  O_12
REMARK    9  A    between atoms: C_14  and  N_15
REMARK   10  A    between atoms: N_15  and  C_16
REMARK   11  A    between atoms: C_22  and  N_23
REMARK   12  A    between atoms: C_26  and  N_27
REMARK   13  A    between atoms: C_28  and  C_29
REMARK                            x       y       z     vdW  Elec       q    Type
REMARK                         _______ _______ _______ _____ _____    ______ ____
ROOT
ATOM      1  C   UNL     1      -1.237  11.501  18.744  0.00  0.00    +0.000 C 
ATOM      2  C   UNL     1      -0.928  10.476  19.804  0.00  0.00    +0.000 C 
ATOM      3  C   UNL     1      -0.630  10.799  21.078  0.00  0.00    +0.000 C 
ATOM      4  C   UNL     1      -0.526  12.230  21.546  0.00  0.00    +0.000 C 
ATOM      5  C   UNL     1      -1.024  13.308  20.553  0.00  0.00    +0.000 C 
ATOM      6  C   UNL     1      -0.625  12.902  19.097  0.00  0.00    +0.000 C 
ENDROOT
BRANCH   6   7
ATOM      7  N   UNL     1       0.856  12.879  18.883  0.00  0.00    +0.000 N 
ATOM      8  C   UNL     1       1.590  14.018  18.651  0.00  0.00    +0.000 C 
ATOM      9  C   UNL     1       3.056  13.799  18.387  0.00  0.00    +0.000 C 
ATOM     10  O   UNL     1       1.108  15.145  18.655  0.00  0.00    +0.000 OA
ATOM     11  H   UNL     1       1.295  11.994  18.657  0.00  0.00    +0.000 HD
ENDBRANCH   6   7
BRANCH   3  12
ATOM     12  C   UNL     1      -0.292   9.787  22.110  0.00  0.00    +0.000 C 
ATOM     13  O   UNL     1      -0.242   8.594  21.864  0.00  0.00    +0.000 OA
BRANCH  12  14
ATOM     14  O   UNL     1      -0.023  10.292  23.327  0.00  0.00    +0.000 OA
ATOM     15  H   UNL     1       0.833  10.018  23.699  0.00  0.00    +0.000 HD
ENDBRANCH  12  14
ENDBRANCH   3  12
BRANCH   5  16
ATOM     16  N   UNL     1      -2.502  13.555  20.670  0.00  0.00    +0.000 N 
ATOM     17  H   UNL     1      -3.054  12.695  20.682  0.00  0.00    +0.000 HD
BRANCH  16  18
ATOM     18  C   UNL     1      -2.906  14.403  21.715  0.00  0.00    +0.000 A 
ATOM     19  N   UNL     1      -2.612  15.714  21.583  0.00  0.00    +0.000 NA
ATOM     20  C   UNL     1      -2.921  16.586  22.572  0.00  0.00    +0.000 A 
ATOM     21  C   UNL     1      -3.554  16.219  23.741  0.00  0.00    +0.000 A 
ATOM     22 BR   UNL     1      -3.894  17.471  25.104  0.00  0.00    +0.000 Br
ATOM     23  C   UNL     1      -3.942  14.901  23.877  0.00  0.00    +0.000 A 
ATOM     24  C   UNL     1      -3.637  14.001  22.843  0.00  0.00    +0.000 A 
BRANCH  24  25
ATOM     25  N   UNL     1      -4.165  12.665  22.985  0.00  0.00    +0.000 N 
ATOM     26  O   UNL     1      -4.979  12.274  22.138  0.00  0.00    +0.000 OA
ATOM     27  O   UNL     1      -3.722  11.983  23.924  0.00  0.00    +0.000 OA
ENDBRANCH  24  25
ENDBRANCH  16  18
ENDBRANCH   5  16
BRANCH   1  28
ATOM     28  O   UNL     1      -2.654  11.400  18.606  0.00  0.00    +0.000 OA
BRANCH  28  29
ATOM     29  C   UNL     1      -3.195  11.302  17.289  0.00  0.00    +0.000 C 
BRANCH  29  31
ATOM     30  C   UNL     1      -2.901  10.233  15.003  0.00  0.00    +0.000 C 
ATOM     31  C   UNL     1      -2.486  10.224  16.465  0.00  0.00    +0.000 C 
ENDBRANCH  29  31
BRANCH  29  32
ATOM     32  C   UNL     1      -4.710  11.093  17.438  0.00  0.00    +0.000 C 
ATOM     33  C   UNL     1      -5.597  12.280  17.102  0.00  0.00    +0.000 C 
ENDBRANCH  29  32
ENDBRANCH  28  29
ENDBRANCH   1  28
TORSDOF 10
ENDMDL
MODEL 7
REMARK VINA RESULT:      -6.5      5.538     10.548
REMARK  Name = 
REMARK  13 active torsions:
REMARK  status: ('A' for Active; 'I' for Inactive)
REMARK    1  A    between atoms: C_1  and  C_2
REMARK    2  A    between atoms: C_2  and  C_3
REMARK    3  A    between atoms: C_3  and  C_4
REMARK    4  A    between atoms: C_3  and  O_6
REMARK    5  A    between atoms: C_4  and  C_5
REMARK    6  A    between atoms: O_6  and  C_7
REMARK    7  A    between atoms: C_9  and  C_10
REMARK    8  A    between atoms: C_10  and  O_12
REMARK    9  A    between atoms: C_14  and  N_15
REMARK   10  A    between atoms: N_15  and  C_16
REMARK   11  A    between atoms: C_22  and  N_23
REMARK   12  A    between atoms: C_26  and  N_27
REMARK   13  A    between atoms: C_28  and  C_29
REMARK                            x       y       z     vdW  Elec       q    Type
REMARK                         _______ _______ _______ _____ _____    ______ ____
ROOT
ATOM      1  C   UNL     1      -2.381  13.211  20.835  0.00  0.00    +0.000 C 
ATOM      2  C   UNL     1      -3.575  12.807  20.007  0.00  0.00    +0.000 C 
ATOM      3  C   UNL     1      -3.476  12.096  18.867  0.00  0.00    +0.000 C 
ATOM      4  C   UNL     1      -2.147  11.682  18.285  0.00  0.00    +0.000 C 
ATOM      5  C   UNL     1      -0.911  11.898  19.193  0.00  0.00    +0.000 C 
ATOM      6  C   UNL     1      -1.067  13.240  19.979  0.00  0.00    +0.000 C 
ENDROOT
BRANCH   6   7
ATOM      7  N   UNL     1      -1.067  14.441  19.087  0.00  0.00    +0.000 N 
ATOM      8  C   UNL     1      -0.474  15.630  19.442  0.00  0.00    +0.000 C 
ATOM      9  C   UNL     1      -0.634  16.752  18.451  0.00  0.00    +0.000 C 
ATOM     10  O   UNL     1       0.150  15.789  20.485  0.00  0.00    +0.000 OA
ATOM     11  H   UNL     1      -1.725  14.467  18.317  0.00  0.00    +0.000 HD
ENDBRANCH   6   7
BRANCH   3  12
ATOM     12  C   UNL     1      -4.652  11.732  18.038  0.00  0.00    +0.000 C 
ATOM     13  O   UNL     1      -5.557  11.032  18.457  0.00  0.00    +0.000 OA
BRANCH  12  14
ATOM     14  O   UNL     1      -4.651  12.257  16.799  0.00  0.00    +0.000 OA
ATOM     15  H   UNL     1      -3.830  12.110  16.298  0.00  0.00    +0.000 HD
ENDBRANCH  12  14
ENDBRANCH   3  12
BRANCH   5  16
ATOM     16  N   UNL     1      -0.673  10.740  20.121  0.00  0.00    +0.000 N 
ATOM     17  H   UNL     1      -1.531  10.245  20.374  0.00  0.00    +0.000 HD
BRANCH  16  18
ATOM     18  C   UNL     1       0.316   9.823  19.726  0.00  0.00    +0.000 A 
ATOM     19  N   UNL     1       0.685   9.847  18.429  0.00  0.00    +0.000 NA
ATOM     20  C   UNL     1       1.593   8.959  17.960  0.00  0.00    +0.000 A 
ATOM     21  C   UNL     1       2.203   8.006  18.749  0.00  0.00    +0.000 A 
ATOM     22 BR   UNL     1       3.407   6.757  18.020  0.00  0.00    +0.000 Br
ATOM     23  C   UNL     1       1.909   8.002  20.098  0.00  0.00    +0.000 A 
ATOM     24  C   UNL     1       0.981   8.936  20.586  0.00  0.00    +0.000 A 
BRANCH  24  25
ATOM     25  N   UNL     1       0.798   8.964  22.017  0.00  0.00    +0.000 N 
ATOM     26  O   UNL     1      -0.312   8.644  22.463  0.00  0.00    +0.000 OA
ATOM     27  O   UNL     1       1.791   9.260  22.705  0.00  0.00    +0.000 OA
ENDBRANCH  24  25
ENDBRANCH  16  18
ENDBRANCH   5  16
BRANCH   1  28
ATOM     28  O   UNL     1      -2.444  12.313  21.943  0.00  0.00    +0.000 OA
BRANCH  28  29
ATOM     29  C   UNL     1      -2.369  12.862  23.258  0.00  0.00    +0.000 C 
BRANCH  29  31
ATOM     30  C   UNL     1      -1.309  14.905  24.335  0.00  0.00    +0.000 C 
ATOM     31  C   UNL     1      -2.210  14.385  23.226  0.00  0.00    +0.000 C 
ENDBRANCH  29  31
BRANCH  29  32
ATOM     32  C   UNL     1      -3.606  12.370  24.025  0.00  0.00    +0.000 C 
ATOM     33  C   UNL     1      -4.908  13.105  23.759  0.00  0.00    +0.000 C 
ENDBRANCH  29  32
ENDBRANCH  28  29
ENDBRANCH   1  28
TORSDOF 10
ENDMDL
MODEL 8
REMARK VINA RESULT:      -6.5      5.960      8.777
REMARK  Name = 
REMARK  13 active torsions:
REMARK  status: ('A' for Active; 'I' for Inactive)
REMARK    1  A    between atoms: C_1  and  C_2
REMARK    2  A    between atoms: C_2  and  C_3
REMARK    3  A    between atoms: C_3  and  C_4
REMARK    4  A    between atoms: C_3  and  O_6
REMARK    5  A    between atoms: C_4  and  C_5
REMARK    6  A    between atoms: O_6  and  C_7
REMARK    7  A    between atoms: C_9  and  C_10
REMARK    8  A    between atoms: C_10  and  O_12
REMARK    9  A    between atoms: C_14  and  N_15
REMARK   10  A    between atoms: N_15  and  C_16
REMARK   11  A    between atoms: C_22  and  N_23
REMARK   12  A    between atoms: C_26  and  N_27
REMARK   13  A    between atoms: C_28  and  C_29
REMARK                            x       y       z     vdW  Elec       q    Type
REMARK                         _______ _______ _______ _____ _____    ______ ____
ROOT
ATOM      1  C   UNL     1       0.112  10.328  19.172  0.00  0.00    +0.000 C 
ATOM      2  C   UNL     1       1.136  11.364  18.785  0.00  0.00    +0.000 C 
ATOM      3  C   UNL     1       0.866  12.683  18.729  0.00  0.00    +0.000 C 
ATOM      4  C   UNL     1      -0.511  13.239  18.999  0.00  0.00    +0.000 C 
ATOM      5  C   UNL     1      -1.540  12.245  19.590  0.00  0.00    +0.000 C 
ATOM      6  C   UNL     1      -1.351  10.841  18.930  0.00  0.00    +0.000 C 
ENDROOT
BRANCH   6   7
ATOM      7  N   UNL     1      -1.656  10.840  17.466  0.00  0.00    +0.000 N 
ATOM      8  C   UNL     1      -2.666  10.084  16.918  0.00  0.00    +0.000 C 
ATOM      9  C   UNL     1      -2.782  10.151  15.418  0.00  0.00    +0.000 C 
ATOM     10  O   UNL     1      -3.432   9.397  17.584  0.00  0.00    +0.000 OA
ATOM     11  H   UNL     1      -0.956  11.203  16.830  0.00  0.00    +0.000 HD
ENDBRANCH   6   7
BRANCH   3  12
ATOM     12  C   UNL     1       1.869  13.695  18.312  0.00  0.00    +0.000 C 
ATOM     13  O   UNL     1       1.922  14.807  18.809  0.00  0.00    +0.000 OA
BRANCH  12  14
ATOM     14  O   UNL     1       2.726  13.280  17.363  0.00  0.00    +0.000 OA
ATOM     15  H   UNL     1       2.814  12.313  17.291  0.00  0.00    +0.000 HD
ENDBRANCH  12  14
ENDBRANCH   3  12
BRANCH   5  16
ATOM     16  N   UNL     1      -1.463  12.165  21.089  0.00  0.00    +0.000 N 
ATOM     17  H   UNL     1      -0.506  12.206  21.445  0.00  0.00    +0.000 HD
BRANCH  16  18
ATOM     18  C   UNL     1      -2.282  13.058  21.800  0.00  0.00    +0.000 A 
ATOM     19  N   UNL     1      -3.561  12.679  22.008  0.00  0.00    +0.000 NA
ATOM     20  C   UNL     1      -4.426  13.508  22.637  0.00  0.00    +0.000 A 
ATOM     21  C   UNL     1      -4.076  14.754  23.114  0.00  0.00    +0.000 A 
ATOM     22 BR   UNL     1      -5.346  15.885  23.921  0.00  0.00    +0.000 Br
ATOM     23  C   UNL     1      -2.758  15.144  22.991  0.00  0.00    +0.000 A 
ATOM     24  C   UNL     1      -1.857  14.275  22.354  0.00  0.00    +0.000 A 
BRANCH  24  25
ATOM     25  N   UNL     1      -0.472  14.681  22.354  0.00  0.00    +0.000 N 
ATOM     26  O   UNL     1       0.389  13.794  22.422  0.00  0.00    +0.000 OA
ATOM     27  O   UNL     1      -0.243  15.897  22.232  0.00  0.00    +0.000 OA
ENDBRANCH  24  25
ENDBRANCH  16  18
ENDBRANCH   5  16
BRANCH   1  28
ATOM     28  O   UNL     1       0.494   9.984  20.503  0.00  0.00    +0.000 OA
BRANCH  28  29
ATOM     29  C   UNL     1       0.306   8.636  20.930  0.00  0.00    +0.000 C 
BRANCH  29  31
ATOM     30  C   UNL     1       2.139   7.290  19.795  0.00  0.00    +0.000 C 
ATOM     31  C   UNL     1       1.641   7.904  21.094  0.00  0.00    +0.000 C 
ENDBRANCH  29  31
BRANCH  29  32
ATOM     32  C   UNL     1      -0.554   8.678  22.202  0.00  0.00    +0.000 C 
ATOM     33  C   UNL     1      -0.088   9.612  23.306  0.00  0.00    +0.000 C 
ENDBRANCH  29  32
ENDBRANCH  28  29
ENDBRANCH   1  28
TORSDOF 10
ENDMDL
MODEL 9
REMARK VINA RESULT:      -6.4      6.069      8.835
REMARK  Name = 
REMARK  13 active torsions:
REMARK  status: ('A' for Active; 'I' for Inactive)
REMARK    1  A    between atoms: C_1  and  C_2
REMARK    2  A    between atoms: C_2  and  C_3
REMARK    3  A    between atoms: C_3  and  C_4
REMARK    4  A    between atoms: C_3  and  O_6
REMARK    5  A    between atoms: C_4  and  C_5
REMARK    6  A    between atoms: O_6  and  C_7
REMARK    7  A    between atoms: C_9  and  C_10
REMARK    8  A    between atoms: C_10  and  O_12
REMARK    9  A    between atoms: C_14  and  N_15
REMARK   10  A    between atoms: N_15  and  C_16
REMARK   11  A    between atoms: C_22  and  N_23
REMARK   12  A    between atoms: C_26  and  N_27
REMARK   13  A    between atoms: C_28  and  C_29
REMARK                            x       y       z     vdW  Elec       q    Type
REMARK                         _______ _______ _______ _____ _____    ______ ____
ROOT
ATOM      1  C   UNL     1      -0.268  10.264  19.101  0.00  0.00    +0.000 C 
ATOM      2  C   UNL     1       0.859  11.210  18.774  0.00  0.00    +0.000 C 
ATOM      3  C   UNL     1       0.674  12.522  18.530  0.00  0.00    +0.000 C 
ATOM      4  C   UNL     1      -0.696  13.155  18.508  0.00  0.00    +0.000 C 
ATOM      5  C   UNL     1      -1.859  12.275  19.029  0.00  0.00    +0.000 C 
ATOM      6  C   UNL     1      -1.643  10.797  18.568  0.00  0.00    +0.000 C 
ENDROOT
BRANCH   6   7
ATOM      7  N   UNL     1      -1.712  10.634  17.082  0.00  0.00    +0.000 N 
ATOM      8  C   UNL     1      -2.901  10.505  16.404  0.00  0.00    +0.000 C 
ATOM      9  C   UNL     1      -2.776  10.278  14.921  0.00  0.00    +0.000 C 
ATOM     10  O   UNL     1      -3.999  10.570  16.946  0.00  0.00    +0.000 OA
ATOM     11  H   UNL     1      -0.869  10.362  16.590  0.00  0.00    +0.000 HD
ENDBRANCH   6   7
BRANCH   3  12
ATOM     12  C   UNL     1       1.784  13.441  18.173  0.00  0.00    +0.000 C 
ATOM     13  O   UNL     1       1.851  14.582  18.599  0.00  0.00    +0.000 OA
BRANCH  12  14
ATOM     14  O   UNL     1       2.718  12.909  17.366  0.00  0.00    +0.000 OA
ATOM     15  H   UNL     1       3.348  13.552  16.996  0.00  0.00    +0.000 HD
ENDBRANCH  12  14
ENDBRANCH   3  12
BRANCH   5  16
ATOM     16  N   UNL     1      -2.024  12.369  20.520  0.00  0.00    +0.000 N 
ATOM     17  H   UNL     1      -1.336  12.981  20.963  0.00  0.00    +0.000 HD
BRANCH  16  18
ATOM     18  C   UNL     1      -3.315  12.679  20.981  0.00  0.00    +0.000 A 
ATOM     19  N   UNL     1      -4.338  12.434  20.136  0.00  0.00    +0.000 NA
ATOM     20  C   UNL     1      -5.606  12.756  20.487  0.00  0.00    +0.000 A 
ATOM     21  C   UNL     1      -5.940  13.322  21.699  0.00  0.00    +0.000 A 
ATOM     22 BR   UNL     1      -7.714  13.806  22.097  0.00  0.00    +0.000 Br
ATOM     23  C   UNL     1      -4.930  13.513  22.621  0.00  0.00    +0.000 A 
ATOM     24  C   UNL     1      -3.618  13.162  22.262  0.00  0.00    +0.000 A 
BRANCH  24  25
ATOM     25  N   UNL     1      -2.622  13.275  23.301  0.00  0.00    +0.000 N 
ATOM     26  O   UNL     1      -1.781  12.372  23.395  0.00  0.00    +0.000 OA
ATOM     27  O   UNL     1      -2.651  14.305  23.997  0.00  0.00    +0.000 OA
ENDBRANCH  24  25
ENDBRANCH  16  18
ENDBRANCH   5  16
BRANCH   1  28
ATOM     28  O   UNL     1      -0.121  10.066  20.507  0.00  0.00    +0.000 OA
BRANCH  28  29
ATOM     29  C   UNL     1       0.492   8.858  20.955  0.00  0.00    +0.000 C 
BRANCH  29  31
ATOM     30  C   UNL     1       1.995   6.934  20.251  0.00  0.00    +0.000 C 
ATOM     31  C   UNL     1       1.550   8.360  19.967  0.00  0.00    +0.000 C 
ENDBRANCH  29  31
BRANCH  29  32
ATOM     32  C   UNL     1       1.022   9.119  22.374  0.00  0.00    +0.000 C 
ATOM     33  C   UNL     1      -0.008   9.482  23.428  0.00  0.00    +0.000 C 
ENDBRANCH  29  32
ENDBRANCH  28  29
ENDBRANCH   1  28
TORSDOF 10
ENDMDL
