MODEL 1
REMARK VINA RESULT:      -6.0      0.000      0.000
REMARK  Name = 
REMARK  8 active torsions:
REMARK  status: ('A' for Active; 'I' for Inactive)
REMARK    1  A    between atoms: C_1  and  C_2
REMARK    2  A    between atoms: C_2  and  C_3
REMARK    3  A    between atoms: C_6  and  N_7
REMARK    4  A    between atoms: N_7  and  C_8
REMARK    5  A    between atoms: C_8  and  C_9
REMARK    6  A    between atoms: C_9  and  C_10
REMARK    7  A    between atoms: C_10  and  N_11
REMARK    8  A    between atoms: C_12  and  N_13
REMARK                            x       y       z     vdW  Elec       q    Type
REMARK                         _______ _______ _______ _____ _____    ______ ____
ROOT
ATOM      1  C   UNL     1       5.823   4.833  16.474  0.00  0.00    +0.000 A 
ATOM      2  C   UNL     1       6.047   5.608  17.613  0.00  0.00    +0.000 A 
ATOM      3  C   UNL     1       5.289   5.412  18.773  0.00  0.00    +0.000 A 
ATOM      4  C   UNL     1       4.283   4.439  18.846  0.00  0.00    +0.000 A 
ATOM      5  C   UNL     1       4.095   3.652  17.693  0.00  0.00    +0.000 A 
ATOM      6  C   UNL     1       4.836   3.843  16.516  0.00  0.00    +0.000 A 
ENDROOT
BRANCH   5   7
ATOM      7  N   UNL     1       3.107   2.587  17.676  0.00  0.00    +0.000 N 
ATOM      8  O   UNL     1       1.984   2.867  17.220  0.00  0.00    +0.000 OA
ATOM      9  O   UNL     1       3.425   1.507  18.189  0.00  0.00    +0.000 OA
ENDBRANCH   5   7
BRANCH   1  11
ATOM     10  C   UNL     1       6.258   4.048  14.158  0.00  0.00    +0.000 C 
ATOM     11  C   UNL     1       6.686   5.009  15.255  0.00  0.00    +0.000 C 
ENDBRANCH   1  11
BRANCH   4  12
ATOM     12  N   UNL     1       3.504   4.267  20.005  0.00  0.00    +0.000 N 
ATOM     13  H   UNL     1       4.105   4.239  20.832  0.00  0.00    +0.000 HD
BRANCH  12  14
ATOM     14  C   UNL     1       2.307   5.092  20.169  0.00  0.00    +0.000 C 
BRANCH  14  15
ATOM     15  C   UNL     1       1.054   4.248  20.388  0.00  0.00    +0.000 C 
BRANCH  15  16
ATOM     16  C   UNL     1       1.380   2.820  20.811  0.00  0.00    +0.000 C 
BRANCH  16  17
ATOM     17  N   UNL     1       1.952   2.804  22.151  0.00  0.00    +0.000 NA
ATOM     18  H   UNL     1       1.661   3.633  22.669  0.00  0.00    +0.000 HD
ATOM     19  H   UNL     1       2.968   2.845  22.087  0.00  0.00    +0.000 HD
ENDBRANCH  16  17
ENDBRANCH  15  16
ENDBRANCH  14  15
ENDBRANCH  12  14
ENDBRANCH   4  12
TORSDOF 7
ENDMDL
MODEL 2
REMARK VINA RESULT:      -5.9      1.180      1.481
REMARK  Name = 
REMARK  8 active torsions:
REMARK  status: ('A' for Active; 'I' for Inactive)
REMARK    1  A    between atoms: C_1  and  C_2
REMARK    2  A    between atoms: C_2  and  C_3
REMARK    3  A    between atoms: C_6  and  N_7
REMARK    4  A    between atoms: N_7  and  C_8
REMARK    5  A    between atoms: C_8  and  C_9
REMARK    6  A    between atoms: C_9  and  C_10
REMARK    7  A    between atoms: C_10  and  N_11
REMARK    8  A    between atoms: C_12  and  N_13
REMARK                            x       y       z     vdW  Elec       q    Type
REMARK                         _______ _______ _______ _____ _____    ______ ____
ROOT
ATOM      1  C   UNL     1       5.195   4.724  15.748  0.00  0.00    +0.000 A 
ATOM      2  C   UNL     1       5.054   6.039  16.194  0.00  0.00    +0.000 A 
ATOM      3  C   UNL     1       4.613   6.311  17.493  0.00  0.00    +0.000 A 
ATOM      4  C   UNL     1       4.298   5.290  18.399  0.00  0.00    +0.000 A 
ATOM      5  C   UNL     1       4.474   3.971  17.934  0.00  0.00    +0.000 A 
ATOM      6  C   UNL     1       4.902   3.679  16.630  0.00  0.00    +0.000 A 
ENDROOT
BRANCH   5   7
ATOM      7  N   UNL     1       4.217   2.838  18.806  0.00  0.00    +0.000 N 
ATOM      8  O   UNL     1       4.858   2.789  19.871  0.00  0.00    +0.000 OA
ATOM      9  O   UNL     1       3.444   1.964  18.392  0.00  0.00    +0.000 OA
ENDBRANCH   5   7
BRANCH   1  11
ATOM     10  C   UNL     1       7.184   4.875  14.269  0.00  0.00    +0.000 C 
ATOM     11  C   UNL     1       5.730   4.443  14.371  0.00  0.00    +0.000 C 
ENDBRANCH   1  11
BRANCH   4  12
ATOM     12  N   UNL     1       3.826   5.570  19.695  0.00  0.00    +0.000 N 
ATOM     13  H   UNL     1       4.365   6.334  20.108  0.00  0.00    +0.000 HD
BRANCH  12  14
ATOM     14  C   UNL     1       2.382   5.683  19.902  0.00  0.00    +0.000 C 
BRANCH  14  15
ATOM     15  C   UNL     1       1.932   4.996  21.189  0.00  0.00    +0.000 C 
BRANCH  15  16
ATOM     16  C   UNL     1       1.546   3.539  20.967  0.00  0.00    +0.000 C 
BRANCH  16  17
ATOM     17  N   UNL     1       2.319   2.668  21.844  0.00  0.00    +0.000 NA
ATOM     18  H   UNL     1       1.758   1.866  22.129  0.00  0.00    +0.000 HD
ATOM     19  H   UNL     1       2.558   3.171  22.698  0.00  0.00    +0.000 HD
ENDBRANCH  16  17
ENDBRANCH  15  16
ENDBRANCH  14  15
ENDBRANCH  12  14
ENDBRANCH   4  12
TORSDOF 7
ENDMDL
MODEL 3
REMARK VINA RESULT:      -5.9      1.382      1.505
REMARK  Name = 
REMARK  8 active torsions:
REMARK  status: ('A' for Active; 'I' for Inactive)
REMARK    1  A    between atoms: C_1  and  C_2
REMARK    2  A    between atoms: C_2  and  C_3
REMARK    3  A    between atoms: C_6  and  N_7
REMARK    4  A    between atoms: N_7  and  C_8
REMARK    5  A    between atoms: C_8  and  C_9
REMARK    6  A    between atoms: C_9  and  C_10
REMARK    7  A    between atoms: C_10  and  N_11
REMARK    8  A    between atoms: C_12  and  N_13
REMARK                            x       y       z     vdW  Elec       q    Type
REMARK                         _______ _______ _______ _____ _____    ______ ____
ROOT
ATOM      1  C   UNL     1       5.164   5.250  16.059  0.00  0.00    +0.000 A 
ATOM      2  C   UNL     1       4.790   6.461  16.645  0.00  0.00    +0.000 A 
ATOM      3  C   UNL     1       4.257   6.497  17.938  0.00  0.00    +0.000 A 
ATOM      4  C   UNL     1       4.078   5.334  18.698  0.00  0.00    +0.000 A 
ATOM      5  C   UNL     1       4.487   4.128  18.096  0.00  0.00    +0.000 A 
ATOM      6  C   UNL     1       5.011   4.071  16.795  0.00  0.00    +0.000 A 
ENDROOT
BRANCH   5   7
ATOM      7  N   UNL     1       4.384   2.869  18.814  0.00  0.00    +0.000 N 
ATOM      8  O   UNL     1       3.658   1.992  18.311  0.00  0.00    +0.000 OA
ATOM      9  O   UNL     1       4.956   2.788  19.908  0.00  0.00    +0.000 OA
ENDBRANCH   5   7
BRANCH   1  11
ATOM     10  C   UNL     1       6.163   3.810  14.300  0.00  0.00    +0.000 C 
ATOM     11  C   UNL     1       5.794   5.231  14.694  0.00  0.00    +0.000 C 
ENDBRANCH   1  11
BRANCH   4  12
ATOM     12  N   UNL     1       3.513   5.373  19.987  0.00  0.00    +0.000 N 
ATOM     13  H   UNL     1       3.801   6.227  20.472  0.00  0.00    +0.000 HD
BRANCH  12  14
ATOM     14  C   UNL     1       2.093   5.057  20.136  0.00  0.00    +0.000 C 
BRANCH  14  15
ATOM     15  C   UNL     1       1.844   4.046  21.253  0.00  0.00    +0.000 C 
BRANCH  15  16
ATOM     16  C   UNL     1       1.281   2.729  20.732  0.00  0.00    +0.000 C 
BRANCH  16  17
ATOM     17  N   UNL     1       0.878   2.863  19.338  0.00  0.00    +0.000 NA
ATOM     18  H   UNL     1       1.699   2.908  18.736  0.00  0.00    +0.000 HD
ATOM     19  H   UNL     1       0.379   3.744  19.212  0.00  0.00    +0.000 HD
ENDBRANCH  16  17
ENDBRANCH  15  16
ENDBRANCH  14  15
ENDBRANCH  12  14
ENDBRANCH   4  12
TORSDOF 7
ENDMDL
MODEL 4
REMARK VINA RESULT:      -5.9      2.050      5.050
REMARK  Name = 
REMARK  8 active torsions:
REMARK  status: ('A' for Active; 'I' for Inactive)
REMARK    1  A    between atoms: C_1  and  C_2
REMARK    2  A    between atoms: C_2  and  C_3
REMARK    3  A    between atoms: C_6  and  N_7
REMARK    4  A    between atoms: N_7  and  C_8
REMARK    5  A    between atoms: C_8  and  C_9
REMARK    6  A    between atoms: C_9  and  C_10
REMARK    7  A    between atoms: C_10  and  N_11
REMARK    8  A    between atoms: C_12  and  N_13
REMARK                            x       y       z     vdW  Elec       q    Type
REMARK                         _______ _______ _______ _____ _____    ______ ____
ROOT
ATOM      1  C   UNL     1       2.521   5.615  19.913  0.00  0.00    +0.000 A 
ATOM      2  C   UNL     1       3.131   6.326  18.877  0.00  0.00    +0.000 A 
ATOM      3  C   UNL     1       4.089   5.718  18.059  0.00  0.00    +0.000 A 
ATOM      4  C   UNL     1       4.476   4.383  18.236  0.00  0.00    +0.000 A 
ATOM      5  C   UNL     1       3.828   3.680  19.270  0.00  0.00    +0.000 A 
ATOM      6  C   UNL     1       2.874   4.276  20.109  0.00  0.00    +0.000 A 
ENDROOT
BRANCH   5   7
ATOM      7  N   UNL     1       4.124   2.278  19.512  0.00  0.00    +0.000 N 
ATOM      8  O   UNL     1       5.027   2.026  20.330  0.00  0.00    +0.000 OA
ATOM      9  O   UNL     1       3.518   1.441  18.831  0.00  0.00    +0.000 OA
ENDBRANCH   5   7
BRANCH   1  11
ATOM     10  C   UNL     1       1.553   7.774  20.667  0.00  0.00    +0.000 C 
ATOM     11  C   UNL     1       1.447   6.260  20.745  0.00  0.00    +0.000 C 
ENDBRANCH   1  11
BRANCH   4  12
ATOM     12  N   UNL     1       5.463   3.786  17.429  0.00  0.00    +0.000 N 
ATOM     13  H   UNL     1       5.025   3.197  16.716  0.00  0.00    +0.000 HD
BRANCH  12  14
ATOM     14  C   UNL     1       6.549   4.624  16.920  0.00  0.00    +0.000 C 
BRANCH  14  15
ATOM     15  C   UNL     1       7.749   4.641  17.863  0.00  0.00    +0.000 C 
BRANCH  15  16
ATOM     16  C   UNL     1       7.763   5.869  18.766  0.00  0.00    +0.000 C 
BRANCH  16  17
ATOM     17  N   UNL     1       7.774   5.469  20.168  0.00  0.00    +0.000 NA
ATOM     18  H   UNL     1       7.963   6.276  20.763  0.00  0.00    +0.000 HD
ATOM     19  H   UNL     1       8.534   4.809  20.327  0.00  0.00    +0.000 HD
ENDBRANCH  16  17
ENDBRANCH  15  16
ENDBRANCH  14  15
ENDBRANCH  12  14
ENDBRANCH   4  12
TORSDOF 7
ENDMDL
MODEL 5
REMARK VINA RESULT:      -5.9      1.216      1.226
REMARK  Name = 
REMARK  8 active torsions:
REMARK  status: ('A' for Active; 'I' for Inactive)
REMARK    1  A    between atoms: C_1  and  C_2
REMARK    2  A    between atoms: C_2  and  C_3
REMARK    3  A    between atoms: C_6  and  N_7
REMARK    4  A    between atoms: N_7  and  C_8
REMARK    5  A    between atoms: C_8  and  C_9
REMARK    6  A    between atoms: C_9  and  C_10
REMARK    7  A    between atoms: C_10  and  N_11
REMARK    8  A    between atoms: C_12  and  N_13
REMARK                            x       y       z     vdW  Elec       q    Type
REMARK                         _______ _______ _______ _____ _____    ______ ____
ROOT
ATOM      1  C   UNL     1       5.573   5.029  15.618  0.00  0.00    +0.000 A 
ATOM      2  C   UNL     1       5.367   6.292  16.177  0.00  0.00    +0.000 A 
ATOM      3  C   UNL     1       4.395   6.489  17.164  0.00  0.00    +0.000 A 
ATOM      4  C   UNL     1       3.594   5.441  17.635  0.00  0.00    +0.000 A 
ATOM      5  C   UNL     1       3.838   4.171  17.075  0.00  0.00    +0.000 A 
ATOM      6  C   UNL     1       4.800   3.957  16.074  0.00  0.00    +0.000 A 
ENDROOT
BRANCH   5   7
ATOM      7  N   UNL     1       3.093   3.007  17.522  0.00  0.00    +0.000 N 
ATOM      8  O   UNL     1       1.858   3.039  17.376  0.00  0.00    +0.000 OA
ATOM      9  O   UNL     1       3.726   2.108  18.089  0.00  0.00    +0.000 OA
ENDBRANCH   5   7
BRANCH   1  11
ATOM     10  C   UNL     1       6.199   3.860  13.518  0.00  0.00    +0.000 C 
ATOM     11  C   UNL     1       6.663   4.818  14.604  0.00  0.00    +0.000 C 
ENDBRANCH   1  11
BRANCH   4  12
ATOM     12  N   UNL     1       2.597   5.650  18.606  0.00  0.00    +0.000 N 
ATOM     13  H   UNL     1       1.702   5.281  18.277  0.00  0.00    +0.000 HD
BRANCH  12  14
ATOM     14  C   UNL     1       2.900   5.319  19.998  0.00  0.00    +0.000 C 
BRANCH  14  15
ATOM     15  C   UNL     1       1.676   4.789  20.741  0.00  0.00    +0.000 C 
BRANCH  15  16
ATOM     16  C   UNL     1       1.927   3.432  21.386  0.00  0.00    +0.000 C 
BRANCH  16  17
ATOM     17  N   UNL     1       1.636   2.358  20.444  0.00  0.00    +0.000 NA
ATOM     18  H   UNL     1       1.936   1.462  20.826  0.00  0.00    +0.000 HD
ATOM     19  H   UNL     1       2.173   2.502  19.589  0.00  0.00    +0.000 HD
ENDBRANCH  16  17
ENDBRANCH  15  16
ENDBRANCH  14  15
ENDBRANCH  12  14
ENDBRANCH   4  12
TORSDOF 7
ENDMDL
MODEL 6
REMARK VINA RESULT:      -5.9      1.540      1.967
REMARK  Name = 
REMARK  8 active torsions:
REMARK  status: ('A' for Active; 'I' for Inactive)
REMARK    1  A    between atoms: C_1  and  C_2
REMARK    2  A    between atoms: C_2  and  C_3
REMARK    3  A    between atoms: C_6  and  N_7
REMARK    4  A    between atoms: N_7  and  C_8
REMARK    5  A    between atoms: C_8  and  C_9
REMARK    6  A    between atoms: C_9  and  C_10
REMARK    7  A    between atoms: C_10  and  N_11
REMARK    8  A    between atoms: C_12  and  N_13
REMARK                            x       y       z     vdW  Elec       q    Type
REMARK                         _______ _______ _______ _____ _____    ______ ____
ROOT
ATOM      1  C   UNL     1       4.765   5.414  16.775  0.00  0.00    +0.000 A 
ATOM      2  C   UNL     1       4.125   6.458  17.446  0.00  0.00    +0.000 A 
ATOM      3  C   UNL     1       3.532   6.249  18.695  0.00  0.00    +0.000 A 
ATOM      4  C   UNL     1       3.555   4.999  19.327  0.00  0.00    +0.000 A 
ATOM      5  C   UNL     1       4.230   3.969  18.643  0.00  0.00    +0.000 A 
ATOM      6  C   UNL     1       4.819   4.156  17.382  0.00  0.00    +0.000 A 
ENDROOT
BRANCH   5   7
ATOM      7  N   UNL     1       4.350   2.644  19.229  0.00  0.00    +0.000 N 
ATOM      8  O   UNL     1       5.046   2.543  20.254  0.00  0.00    +0.000 OA
ATOM      9  O   UNL     1       3.822   1.703  18.623  0.00  0.00    +0.000 OA
ENDBRANCH   5   7
BRANCH   1  11
ATOM     10  C   UNL     1       5.546   4.380  14.656  0.00  0.00    +0.000 C 
ATOM     11  C   UNL     1       5.453   5.666  15.461  0.00  0.00    +0.000 C 
ENDBRANCH   1  11
BRANCH   4  12
ATOM     12  N   UNL     1       2.932   4.787  20.571  0.00  0.00    +0.000 N 
ATOM     13  H   UNL     1       3.306   5.437  21.268  0.00  0.00    +0.000 HD
BRANCH  12  14
ATOM     14  C   UNL     1       1.475   4.655  20.608  0.00  0.00    +0.000 C 
BRANCH  14  15
ATOM     15  C   UNL     1       1.025   3.213  20.381  0.00  0.00    +0.000 C 
BRANCH  15  16
ATOM     16  C   UNL     1       0.461   2.992  18.983  0.00  0.00    +0.000 C 
BRANCH  16  17
ATOM     17  N   UNL     1       1.020   1.781  18.394  0.00  0.00    +0.000 NA
ATOM     18  H   UNL     1       0.403   0.989  18.564  0.00  0.00    +0.000 HD
ATOM     19  H   UNL     1       1.906   1.561  18.848  0.00  0.00    +0.000 HD
ENDBRANCH  16  17
ENDBRANCH  15  16
ENDBRANCH  14  15
ENDBRANCH  12  14
ENDBRANCH   4  12
TORSDOF 7
ENDMDL
MODEL 7
REMARK VINA RESULT:      -5.9      2.949      5.958
REMARK  Name = 
REMARK  8 active torsions:
REMARK  status: ('A' for Active; 'I' for Inactive)
REMARK    1  A    between atoms: C_1  and  C_2
REMARK    2  A    between atoms: C_2  and  C_3
REMARK    3  A    between atoms: C_6  and  N_7
REMARK    4  A    between atoms: N_7  and  C_8
REMARK    5  A    between atoms: C_8  and  C_9
REMARK    6  A    between atoms: C_9  and  C_10
REMARK    7  A    between atoms: C_10  and  N_11
REMARK    8  A    between atoms: C_12  and  N_13
REMARK                            x       y       z     vdW  Elec       q    Type
REMARK                         _______ _______ _______ _____ _____    ______ ____
ROOT
ATOM      1  C   UNL     1       3.182   4.577  19.389  0.00  0.00    +0.000 A 
ATOM      2  C   UNL     1       2.696   3.755  18.370  0.00  0.00    +0.000 A 
ATOM      3  C   UNL     1       3.493   3.436  17.266  0.00  0.00    +0.000 A 
ATOM      4  C   UNL     1       4.802   3.918  17.132  0.00  0.00    +0.000 A 
ATOM      5  C   UNL     1       5.279   4.723  18.185  0.00  0.00    +0.000 A 
ATOM      6  C   UNL     1       4.489   5.065  19.294  0.00  0.00    +0.000 A 
ENDROOT
BRANCH   5   7
ATOM      7  N   UNL     1       6.636   5.240  18.166  0.00  0.00    +0.000 N 
ATOM      8  O   UNL     1       6.769   6.470  18.033  0.00  0.00    +0.000 OA
ATOM      9  O   UNL     1       7.560   4.418  18.201  0.00  0.00    +0.000 OA
ENDBRANCH   5   7
BRANCH   1  11
ATOM     10  C   UNL     1       1.115   3.959  20.620  0.00  0.00    +0.000 C 
ATOM     11  C   UNL     1       2.339   4.861  20.601  0.00  0.00    +0.000 C 
ENDBRANCH   1  11
BRANCH   4  12
ATOM     12  N   UNL     1       5.589   3.618  16.004  0.00  0.00    +0.000 N 
ATOM     13  H   UNL     1       5.705   2.605  15.915  0.00  0.00    +0.000 HD
BRANCH  12  14
ATOM     14  C   UNL     1       5.284   4.292  14.742  0.00  0.00    +0.000 C 
BRANCH  14  15
ATOM     15  C   UNL     1       6.334   4.007  13.671  0.00  0.00    +0.000 C 
BRANCH  15  16
ATOM     16  C   UNL     1       7.516   4.966  13.743  0.00  0.00    +0.000 C 
BRANCH  16  17
ATOM     17  N   UNL     1       7.622   5.545  15.077  0.00  0.00    +0.000 NA
ATOM     18  H   UNL     1       7.754   6.554  15.013  0.00  0.00    +0.000 HD
ATOM     19  H   UNL     1       8.448   5.173  15.544  0.00  0.00    +0.000 HD
ENDBRANCH  16  17
ENDBRANCH  15  16
ENDBRANCH  14  15
ENDBRANCH  12  14
ENDBRANCH   4  12
TORSDOF 7
ENDMDL
MODEL 8
REMARK VINA RESULT:      -5.8      1.308      1.520
REMARK  Name = 
REMARK  8 active torsions:
REMARK  status: ('A' for Active; 'I' for Inactive)
REMARK    1  A    between atoms: C_1  and  C_2
REMARK    2  A    between atoms: C_2  and  C_3
REMARK    3  A    between atoms: C_6  and  N_7
REMARK    4  A    between atoms: N_7  and  C_8
REMARK    5  A    between atoms: C_8  and  C_9
REMARK    6  A    between atoms: C_9  and  C_10
REMARK    7  A    between atoms: C_10  and  N_11
REMARK    8  A    between atoms: C_12  and  N_13
REMARK                            x       y       z     vdW  Elec       q    Type
REMARK                         _______ _______ _______ _____ _____    ______ ____
ROOT
ATOM      1  C   UNL     1       4.982   5.336  16.423  0.00  0.00    +0.000 A 
ATOM      2  C   UNL     1       4.553   6.471  17.113  0.00  0.00    +0.000 A 
ATOM      3  C   UNL     1       3.483   6.402  18.012  0.00  0.00    +0.000 A 
ATOM      4  C   UNL     1       2.801   5.204  18.261  0.00  0.00    +0.000 A 
ATOM      5  C   UNL     1       3.269   4.067  17.573  0.00  0.00    +0.000 A 
ATOM      6  C   UNL     1       4.332   4.120  16.658  0.00  0.00    +0.000 A 
ENDROOT
BRANCH   5   7
ATOM      7  N   UNL     1       2.659   2.766  17.790  0.00  0.00    +0.000 N 
ATOM      8  O   UNL     1       3.428   1.792  17.881  0.00  0.00    +0.000 OA
ATOM      9  O   UNL     1       1.423   2.708  17.786  0.00  0.00    +0.000 OA
ENDBRANCH   5   7
BRANCH   1  11
ATOM     10  C   UNL     1       6.384   4.079  14.803  0.00  0.00    +0.000 C 
ATOM     11  C   UNL     1       6.173   5.409  15.508  0.00  0.00    +0.000 C 
ENDBRANCH   1  11
BRANCH   4  12
ATOM     12  N   UNL     1       1.706   5.146  19.143  0.00  0.00    +0.000 N 
ATOM     13  H   UNL     1       1.098   4.361  18.899  0.00  0.00    +0.000 HD
BRANCH  12  14
ATOM     14  C   UNL     1       1.959   5.276  20.578  0.00  0.00    +0.000 C 
BRANCH  14  15
ATOM     15  C   UNL     1       2.695   4.062  21.142  0.00  0.00    +0.000 C 
BRANCH  15  16
ATOM     16  C   UNL     1       1.749   2.924  21.504  0.00  0.00    +0.000 C 
BRANCH  16  17
ATOM     17  N   UNL     1       0.564   2.957  20.656  0.00  0.00    +0.000 NA
ATOM     18  H   UNL     1       0.691   3.626  19.898  0.00  0.00    +0.000 HD
ATOM     19  H   UNL     1      -0.234   3.285  21.201  0.00  0.00    +0.000 HD
ENDBRANCH  16  17
ENDBRANCH  15  16
ENDBRANCH  14  15
ENDBRANCH  12  14
ENDBRANCH   4  12
TORSDOF 7
ENDMDL
MODEL 9
REMARK VINA RESULT:      -5.8      2.724      3.247
REMARK  Name = 
REMARK  8 active torsions:
REMARK  status: ('A' for Active; 'I' for Inactive)
REMARK    1  A    between atoms: C_1  and  C_2
REMARK    2  A    between atoms: C_2  and  C_3
REMARK    3  A    between atoms: C_6  and  N_7
REMARK    4  A    between atoms: N_7  and  C_8
REMARK    5  A    between atoms: C_8  and  C_9
REMARK    6  A    between atoms: C_9  and  C_10
REMARK    7  A    between atoms: C_10  and  N_11
REMARK    8  A    between atoms: C_12  and  N_13
REMARK                            x       y       z     vdW  Elec       q    Type
REMARK                         _______ _______ _______ _____ _____    ______ ____
ROOT
ATOM      1  C   UNL     1       6.426   4.617  15.531  0.00  0.00    +0.000 A 
ATOM      2  C   UNL     1       5.090   4.268  15.737  0.00  0.00    +0.000 A 
ATOM      3  C   UNL     1       4.502   4.397  17.000  0.00  0.00    +0.000 A 
ATOM      4  C   UNL     1       5.217   4.879  18.104  0.00  0.00    +0.000 A 
ATOM      5  C   UNL     1       6.555   5.250  17.866  0.00  0.00    +0.000 A 
ATOM      6  C   UNL     1       7.165   5.115  16.609  0.00  0.00    +0.000 A 
ENDROOT
BRANCH   5   7
ATOM      7  N   UNL     1       7.373   5.801  18.932  0.00  0.00    +0.000 N 
ATOM      8  O   UNL     1       7.303   5.243  20.042  0.00  0.00    +0.000 OA
ATOM      9  O   UNL     1       8.014   6.830  18.685  0.00  0.00    +0.000 OA
ENDBRANCH   5   7
BRANCH   1  11
ATOM     10  C   UNL     1       6.140   3.711  13.236  0.00  0.00    +0.000 C 
ATOM     11  C   UNL     1       7.028   4.534  14.156  0.00  0.00    +0.000 C 
ENDBRANCH   1  11
BRANCH   4  12
ATOM     12  N   UNL     1       4.629   4.978  19.380  0.00  0.00    +0.000 N 
ATOM     13  H   UNL     1       5.351   5.130  20.089  0.00  0.00    +0.000 HD
BRANCH  12  14
ATOM     14  C   UNL     1       3.452   5.832  19.540  0.00  0.00    +0.000 C 
BRANCH  14  15
ATOM     15  C   UNL     1       2.347   5.140  20.336  0.00  0.00    +0.000 C 
BRANCH  15  16
ATOM     16  C   UNL     1       1.934   3.808  19.723  0.00  0.00    +0.000 C 
BRANCH  16  17
ATOM     17  N   UNL     1       0.653   3.373  20.266  0.00  0.00    +0.000 NA
ATOM     18  H   UNL     1       0.336   2.530  19.789  0.00  0.00    +0.000 HD
ATOM     19  H   UNL     1      -0.051   4.088  20.089  0.00  0.00    +0.000 HD
ENDBRANCH  16  17
ENDBRANCH  15  16
ENDBRANCH  14  15
ENDBRANCH  12  14
ENDBRANCH   4  12
TORSDOF 7
ENDMDL
