MODEL 1
REMARK VINA RESULT:      -7.5      0.000      0.000
REMARK  Name = 
REMARK  8 active torsions:
REMARK  status: ('A' for Active; 'I' for Inactive)
REMARK    1  A    between atoms: C_1  and  O_2
REMARK    2  A    between atoms: O_2  and  C_3
REMARK    3  A    between atoms: C_8  and  N_9
REMARK    4  A    between atoms: C_10  and  C_11
REMARK    5  A    between atoms: C_11  and  C_12
REMARK    6  A    between atoms: C_12  and  C_13
REMARK    7  A    between atoms: C_13  and  O_15
REMARK    8  A    between atoms: C_18  and  C_19
REMARK                            x       y       z     vdW  Elec       q    Type
REMARK                         _______ _______ _______ _____ _____    ______ ____
ROOT
ATOM      1  N   UNL     1       4.108   5.275  16.983  0.00  0.00    +0.000 N 
ATOM      2  C   UNL     1       5.044   5.113  15.938  0.00  0.00    +0.000 A 
ATOM      3  C   UNL     1       5.385   6.362  15.461  0.00  0.00    +0.000 A 
ATOM      4  C   UNL     1       4.663   7.313  16.191  0.00  0.00    +0.000 A 
ATOM      5  C   UNL     1       3.876   6.662  17.134  0.00  0.00    +0.000 A 
ENDROOT
BRANCH   1  11
ATOM      6  C   UNL     1       4.312   3.436  18.682  0.00  0.00    +0.000 A 
ATOM      7  C   UNL     1       3.691   2.369  19.351  0.00  0.00    +0.000 A 
ATOM      8  C   UNL     1       2.332   2.099  19.177  0.00  0.00    +0.000 A 
ATOM      9  C   UNL     1       1.576   2.878  18.316  0.00  0.00    +0.000 A 
ATOM     10  C   UNL     1       2.190   3.896  17.590  0.00  0.00    +0.000 A 
ATOM     11  C   UNL     1       3.555   4.199  17.766  0.00  0.00    +0.000 A 
BRANCH   6  13
ATOM     12  C   UNL     1       5.848   5.066  19.551  0.00  0.00    +0.000 C 
ATOM     13  O   UNL     1       5.608   3.810  18.924  0.00  0.00    +0.000 OA
ENDBRANCH   6  13
ENDBRANCH   1  11
BRANCH   5  14
ATOM     14  C   UNL     1       3.017   7.345  18.128  0.00  0.00    +0.000 A 
ATOM     15  C   UNL     1       2.375   8.547  17.779  0.00  0.00    +0.000 A 
ATOM     16  C   UNL     1       1.507   9.191  18.665  0.00  0.00    +0.000 A 
ATOM     17  C   UNL     1       1.249   8.631  19.911  0.00  0.00    +0.000 A 
ATOM     18  C   UNL     1       1.904   7.463  20.292  0.00  0.00    +0.000 A 
ATOM     19  C   UNL     1       2.813   6.851  19.423  0.00  0.00    +0.000 A 
ENDBRANCH   5  14
BRANCH   2  20
ATOM     20  C   UNL     1       5.580   3.815  15.382  0.00  0.00    +0.000 C 
BRANCH  20  21
ATOM     21  C   UNL     1       6.540   3.981  14.206  0.00  0.00    +0.000 C 
BRANCH  21  22
ATOM     22  C   UNL     1       5.913   3.509  12.923  0.00  0.00    +0.000 C 
ATOM     23  O   UNL     1       4.757   3.712  12.573  0.00  0.00    +0.000 OA
BRANCH  22  24
ATOM     24  O   UNL     1       6.773   2.810  12.149  0.00  0.00    +0.000 OA
ATOM     25  H   UNL     1       6.701   3.043  11.200  0.00  0.00    +0.000 HD
ENDBRANCH  22  24
ENDBRANCH  21  22
ENDBRANCH  20  21
ENDBRANCH   2  20
TORSDOF 7
ENDMDL
MODEL 2
REMARK VINA RESULT:      -7.5      2.007      2.957
REMARK  Name = 
REMARK  8 active torsions:
REMARK  status: ('A' for Active; 'I' for Inactive)
REMARK    1  A    between atoms: C_1  and  O_2
REMARK    2  A    between atoms: O_2  and  C_3
REMARK    3  A    between atoms: C_8  and  N_9
REMARK    4  A    between atoms: C_10  and  C_11
REMARK    5  A    between atoms: C_11  and  C_12
REMARK    6  A    between atoms: C_12  and  C_13
REMARK    7  A    between atoms: C_13  and  O_15
REMARK    8  A    between atoms: C_18  and  C_19
REMARK                            x       y       z     vdW  Elec       q    Type
REMARK                         _______ _______ _______ _____ _____    ______ ____
ROOT
ATOM      1  N   UNL     1       3.365   5.944  18.396  0.00  0.00    +0.000 N 
ATOM      2  C   UNL     1       4.530   5.621  17.666  0.00  0.00    +0.000 A 
ATOM      3  C   UNL     1       4.972   6.760  17.026  0.00  0.00    +0.000 A 
ATOM      4  C   UNL     1       4.089   7.800  17.338  0.00  0.00    +0.000 A 
ATOM      5  C   UNL     1       3.097   7.316  18.184  0.00  0.00    +0.000 A 
ENDROOT
BRANCH   1  11
ATOM      6  C   UNL     1       1.675   4.119  18.746  0.00  0.00    +0.000 A 
ATOM      7  C   UNL     1       0.981   3.308  19.660  0.00  0.00    +0.000 A 
ATOM      8  C   UNL     1       1.278   3.337  21.024  0.00  0.00    +0.000 A 
ATOM      9  C   UNL     1       2.260   4.191  21.501  0.00  0.00    +0.000 A 
ATOM     10  C   UNL     1       2.909   5.053  20.620  0.00  0.00    +0.000 A 
ATOM     11  C   UNL     1       2.640   5.026  19.238  0.00  0.00    +0.000 A 
BRANCH   6  13
ATOM     12  C   UNL     1       2.181   2.992  16.686  0.00  0.00    +0.000 C 
ATOM     13  O   UNL     1       1.501   4.026  17.391  0.00  0.00    +0.000 OA
ENDBRANCH   6  13
ENDBRANCH   1  11
BRANCH   5  14
ATOM     14  C   UNL     1       2.017   8.142  18.770  0.00  0.00    +0.000 A 
ATOM     15  C   UNL     1       1.740   8.044  20.146  0.00  0.00    +0.000 A 
ATOM     16  C   UNL     1       0.772   8.850  20.751  0.00  0.00    +0.000 A 
ATOM     17  C   UNL     1       0.078   9.786  19.993  0.00  0.00    +0.000 A 
ATOM     18  C   UNL     1       0.309   9.872  18.623  0.00  0.00    +0.000 A 
ATOM     19  C   UNL     1       1.240   9.026  18.011  0.00  0.00    +0.000 A 
ENDBRANCH   5  14
BRANCH   2  20
ATOM     20  C   UNL     1       5.191   4.268  17.549  0.00  0.00    +0.000 C 
BRANCH  20  21
ATOM     21  C   UNL     1       5.778   3.971  16.171  0.00  0.00    +0.000 C 
BRANCH  21  22
ATOM     22  C   UNL     1       7.175   4.515  16.048  0.00  0.00    +0.000 C 
ATOM     23  O   UNL     1       7.588   5.229  15.143  0.00  0.00    +0.000 OA
BRANCH  22  24
ATOM     24  O   UNL     1       7.975   4.135  17.069  0.00  0.00    +0.000 OA
ATOM     25  H   UNL     1       8.510   3.344  16.855  0.00  0.00    +0.000 HD
ENDBRANCH  22  24
ENDBRANCH  21  22
ENDBRANCH  20  21
ENDBRANCH   2  20
TORSDOF 7
ENDMDL
MODEL 3
REMARK VINA RESULT:      -7.5      1.494      1.962
REMARK  Name = 
REMARK  8 active torsions:
REMARK  status: ('A' for Active; 'I' for Inactive)
REMARK    1  A    between atoms: C_1  and  O_2
REMARK    2  A    between atoms: O_2  and  C_3
REMARK    3  A    between atoms: C_8  and  N_9
REMARK    4  A    between atoms: C_10  and  C_11
REMARK    5  A    between atoms: C_11  and  C_12
REMARK    6  A    between atoms: C_12  and  C_13
REMARK    7  A    between atoms: C_13  and  O_15
REMARK    8  A    between atoms: C_18  and  C_19
REMARK                            x       y       z     vdW  Elec       q    Type
REMARK                         _______ _______ _______ _____ _____    ______ ____
ROOT
ATOM      1  N   UNL     1       3.440   5.645  17.609  0.00  0.00    +0.000 N 
ATOM      2  C   UNL     1       4.454   5.440  16.648  0.00  0.00    +0.000 A 
ATOM      3  C   UNL     1       4.897   6.671  16.213  0.00  0.00    +0.000 A 
ATOM      4  C   UNL     1       4.164   7.655  16.885  0.00  0.00    +0.000 A 
ATOM      5  C   UNL     1       3.265   7.042  17.751  0.00  0.00    +0.000 A 
ENDROOT
BRANCH   1  11
ATOM      6  C   UNL     1       3.295   3.993  19.495  0.00  0.00    +0.000 A 
ATOM      7  C   UNL     1       2.587   2.936  20.091  0.00  0.00    +0.000 A 
ATOM      8  C   UNL     1       1.348   2.524  19.595  0.00  0.00    +0.000 A 
ATOM      9  C   UNL     1       0.805   3.150  18.484  0.00  0.00    +0.000 A 
ATOM     10  C   UNL     1       1.525   4.152  17.837  0.00  0.00    +0.000 A 
ATOM     11  C   UNL     1       2.767   4.596  18.333  0.00  0.00    +0.000 A 
BRANCH   6  13
ATOM     12  C   UNL     1       5.697   4.032  19.536  0.00  0.00    +0.000 C 
ATOM     13  O   UNL     1       4.448   4.507  20.028  0.00  0.00    +0.000 OA
ENDBRANCH   6  13
ENDBRANCH   1  11
BRANCH   5  14
ATOM     14  C   UNL     1       2.359   7.764  18.672  0.00  0.00    +0.000 A 
ATOM     15  C   UNL     1       2.186   7.292  19.986  0.00  0.00    +0.000 A 
ATOM     16  C   UNL     1       1.389   7.979  20.905  0.00  0.00    +0.000 A 
ATOM     17  C   UNL     1       0.766   9.165  20.532  0.00  0.00    +0.000 A 
ATOM     18  C   UNL     1       0.893   9.629  19.226  0.00  0.00    +0.000 A 
ATOM     19  C   UNL     1       1.648   8.910  18.293  0.00  0.00    +0.000 A 
ENDBRANCH   5  14
BRANCH   2  20
ATOM     20  C   UNL     1       4.969   4.118  16.130  0.00  0.00    +0.000 C 
BRANCH  20  21
ATOM     21  C   UNL     1       5.861   4.230  14.896  0.00  0.00    +0.000 C 
BRANCH  21  22
ATOM     22  C   UNL     1       7.240   4.706  15.264  0.00  0.00    +0.000 C 
ATOM     23  O   UNL     1       7.829   4.456  16.308  0.00  0.00    +0.000 OA
BRANCH  22  24
ATOM     24  O   UNL     1       7.804   5.467  14.300  0.00  0.00    +0.000 OA
ATOM     25  H   UNL     1       7.145   5.842  13.681  0.00  0.00    +0.000 HD
ENDBRANCH  22  24
ENDBRANCH  21  22
ENDBRANCH  20  21
ENDBRANCH   2  20
TORSDOF 7
ENDMDL
MODEL 4
REMARK VINA RESULT:      -7.4      1.167      1.691
REMARK  Name = 
REMARK  8 active torsions:
REMARK  status: ('A' for Active; 'I' for Inactive)
REMARK    1  A    between atoms: C_1  and  O_2
REMARK    2  A    between atoms: O_2  and  C_3
REMARK    3  A    between atoms: C_8  and  N_9
REMARK    4  A    between atoms: C_10  and  C_11
REMARK    5  A    between atoms: C_11  and  C_12
REMARK    6  A    between atoms: C_12  and  C_13
REMARK    7  A    between atoms: C_13  and  O_15
REMARK    8  A    between atoms: C_18  and  C_19
REMARK                            x       y       z     vdW  Elec       q    Type
REMARK                         _______ _______ _______ _____ _____    ______ ____
ROOT
ATOM      1  N   UNL     1       3.567   5.441  17.590  0.00  0.00    +0.000 N 
ATOM      2  C   UNL     1       4.676   5.240  16.738  0.00  0.00    +0.000 A 
ATOM      3  C   UNL     1       5.272   6.462  16.503  0.00  0.00    +0.000 A 
ATOM      4  C   UNL     1       4.541   7.437  17.191  0.00  0.00    +0.000 A 
ATOM      5  C   UNL     1       3.491   6.826  17.869  0.00  0.00    +0.000 A 
ENDROOT
BRANCH   1  11
ATOM      6  C   UNL     1       3.167   3.421  19.027  0.00  0.00    +0.000 A 
ATOM      7  C   UNL     1       2.281   2.404  19.419  0.00  0.00    +0.000 A 
ATOM      8  C   UNL     1       0.960   2.380  18.965  0.00  0.00    +0.000 A 
ATOM      9  C   UNL     1       0.509   3.362  18.097  0.00  0.00    +0.000 A 
ATOM     10  C   UNL     1       1.393   4.338  17.641  0.00  0.00    +0.000 A 
ATOM     11  C   UNL     1       2.723   4.392  18.103  0.00  0.00    +0.000 A 
BRANCH   6  13
ATOM     12  C   UNL     1       4.973   2.460  20.286  0.00  0.00    +0.000 C 
ATOM     13  O   UNL     1       4.426   3.550  19.550  0.00  0.00    +0.000 OA
ENDBRANCH   6  13
ENDBRANCH   1  11
BRANCH   5  14
ATOM     14  C   UNL     1       2.536   7.532  18.751  0.00  0.00    +0.000 A 
ATOM     15  C   UNL     1       2.258   7.013  20.029  0.00  0.00    +0.000 A 
ATOM     16  C   UNL     1       1.411   7.682  20.917  0.00  0.00    +0.000 A 
ATOM     17  C   UNL     1       0.843   8.896  20.550  0.00  0.00    +0.000 A 
ATOM     18  C   UNL     1       1.073   9.409  19.276  0.00  0.00    +0.000 A 
ATOM     19  C   UNL     1       1.878   8.709  18.371  0.00  0.00    +0.000 A 
ENDBRANCH   5  14
BRANCH   2  20
ATOM     20  C   UNL     1       5.144   3.936  16.138  0.00  0.00    +0.000 C 
BRANCH  20  21
ATOM     21  C   UNL     1       6.610   3.929  15.711  0.00  0.00    +0.000 C 
BRANCH  21  22
ATOM     22  C   UNL     1       6.754   4.279  14.256  0.00  0.00    +0.000 C 
ATOM     23  O   UNL     1       7.293   5.284  13.810  0.00  0.00    +0.000 OA
BRANCH  22  24
ATOM     24  O   UNL     1       6.215   3.346  13.439  0.00  0.00    +0.000 OA
ATOM     25  H   UNL     1       5.563   3.723  12.814  0.00  0.00    +0.000 HD
ENDBRANCH  22  24
ENDBRANCH  21  22
ENDBRANCH  20  21
ENDBRANCH   2  20
TORSDOF 7
ENDMDL
MODEL 5
REMARK VINA RESULT:      -7.4      2.345      4.284
REMARK  Name = 
REMARK  8 active torsions:
REMARK  status: ('A' for Active; 'I' for Inactive)
REMARK    1  A    between atoms: C_1  and  O_2
REMARK    2  A    between atoms: O_2  and  C_3
REMARK    3  A    between atoms: C_8  and  N_9
REMARK    4  A    between atoms: C_10  and  C_11
REMARK    5  A    between atoms: C_11  and  C_12
REMARK    6  A    between atoms: C_12  and  C_13
REMARK    7  A    between atoms: C_13  and  O_15
REMARK    8  A    between atoms: C_18  and  C_19
REMARK                            x       y       z     vdW  Elec       q    Type
REMARK                         _______ _______ _______ _____ _____    ______ ____
ROOT
ATOM      1  N   UNL     1       3.575   4.880  19.306  0.00  0.00    +0.000 N 
ATOM      2  C   UNL     1       3.445   3.652  19.992  0.00  0.00    +0.000 A 
ATOM      3  C   UNL     1       2.418   3.770  20.906  0.00  0.00    +0.000 A 
ATOM      4  C   UNL     1       1.904   5.069  20.810  0.00  0.00    +0.000 A 
ATOM      5  C   UNL     1       2.602   5.764  19.828  0.00  0.00    +0.000 A 
ENDROOT
BRANCH   1  11
ATOM      6  C   UNL     1       5.852   5.505  18.450  0.00  0.00    +0.000 A 
ATOM      7  C   UNL     1       6.663   5.785  17.338  0.00  0.00    +0.000 A 
ATOM      8  C   UNL     1       6.182   5.632  16.035  0.00  0.00    +0.000 A 
ATOM      9  C   UNL     1       4.877   5.216  15.824  0.00  0.00    +0.000 A 
ATOM     10  C   UNL     1       4.037   5.003  16.915  0.00  0.00    +0.000 A 
ATOM     11  C   UNL     1       4.507   5.130  18.236  0.00  0.00    +0.000 A 
BRANCH   6  13
ATOM     12  C   UNL     1       7.731   5.615  19.943  0.00  0.00    +0.000 C 
ATOM     13  O   UNL     1       6.326   5.520  19.736  0.00  0.00    +0.000 OA
ENDBRANCH   6  13
ENDBRANCH   1  11
BRANCH   5  14
ATOM     14  C   UNL     1       2.301   7.150  19.406  0.00  0.00    +0.000 A 
ATOM     15  C   UNL     1       2.669   7.578  18.117  0.00  0.00    +0.000 A 
ATOM     16  C   UNL     1       2.348   8.857  17.657  0.00  0.00    +0.000 A 
ATOM     17  C   UNL     1       1.632   9.727  18.472  0.00  0.00    +0.000 A 
ATOM     18  C   UNL     1       1.292   9.338  19.765  0.00  0.00    +0.000 A 
ATOM     19  C   UNL     1       1.662   8.076  20.241  0.00  0.00    +0.000 A 
ENDBRANCH   5  14
BRANCH   2  20
ATOM     20  C   UNL     1       4.285   2.411  19.813  0.00  0.00    +0.000 C 
BRANCH  20  21
ATOM     21  C   UNL     1       3.917   1.571  18.592  0.00  0.00    +0.000 C 
BRANCH  21  22
ATOM     22  C   UNL     1       2.502   1.838  18.157  0.00  0.00    +0.000 C 
ATOM     23  O   UNL     1       2.164   2.509  17.190  0.00  0.00    +0.000 OA
BRANCH  22  24
ATOM     24  O   UNL     1       1.588   1.244  18.957  0.00  0.00    +0.000 OA
ATOM     25  H   UNL     1       1.198   1.863  19.608  0.00  0.00    +0.000 HD
ENDBRANCH  22  24
ENDBRANCH  21  22
ENDBRANCH  20  21
ENDBRANCH   2  20
TORSDOF 7
ENDMDL
MODEL 6
REMARK VINA RESULT:      -7.3      1.225      1.366
REMARK  Name = 
REMARK  8 active torsions:
REMARK  status: ('A' for Active; 'I' for Inactive)
REMARK    1  A    between atoms: C_1  and  O_2
REMARK    2  A    between atoms: O_2  and  C_3
REMARK    3  A    between atoms: C_8  and  N_9
REMARK    4  A    between atoms: C_10  and  C_11
REMARK    5  A    between atoms: C_11  and  C_12
REMARK    6  A    between atoms: C_12  and  C_13
REMARK    7  A    between atoms: C_13  and  O_15
REMARK    8  A    between atoms: C_18  and  C_19
REMARK                            x       y       z     vdW  Elec       q    Type
REMARK                         _______ _______ _______ _____ _____    ______ ____
ROOT
ATOM      1  N   UNL     1       3.449   5.651  17.635  0.00  0.00    +0.000 N 
ATOM      2  C   UNL     1       4.445   5.461  16.652  0.00  0.00    +0.000 A 
ATOM      3  C   UNL     1       4.899   6.698  16.246  0.00  0.00    +0.000 A 
ATOM      4  C   UNL     1       4.189   7.672  16.958  0.00  0.00    +0.000 A 
ATOM      5  C   UNL     1       3.295   7.044  17.820  0.00  0.00    +0.000 A 
ENDROOT
BRANCH   1  11
ATOM      6  C   UNL     1       3.300   3.961  19.487  0.00  0.00    +0.000 A 
ATOM      7  C   UNL     1       2.589   2.894  20.062  0.00  0.00    +0.000 A 
ATOM      8  C   UNL     1       1.348   2.497  19.559  0.00  0.00    +0.000 A 
ATOM      9  C   UNL     1       0.807   3.147  18.461  0.00  0.00    +0.000 A 
ATOM     10  C   UNL     1       1.530   4.159  17.834  0.00  0.00    +0.000 A 
ATOM     11  C   UNL     1       2.773   4.590  18.337  0.00  0.00    +0.000 A 
BRANCH   6  13
ATOM     12  C   UNL     1       5.701   3.974  19.543  0.00  0.00    +0.000 C 
ATOM     13  O   UNL     1       4.454   4.461  20.029  0.00  0.00    +0.000 OA
ENDBRANCH   6  13
ENDBRANCH   1  11
BRANCH   5  14
ATOM     14  C   UNL     1       2.413   7.751  18.775  0.00  0.00    +0.000 A 
ATOM     15  C   UNL     1       1.759   8.930  18.374  0.00  0.00    +0.000 A 
ATOM     16  C   UNL     1       0.870   9.594  19.223  0.00  0.00    +0.000 A 
ATOM     17  C   UNL     1       0.601   9.076  20.485  0.00  0.00    +0.000 A 
ATOM     18  C   UNL     1       1.266   7.931  20.917  0.00  0.00    +0.000 A 
ATOM     19  C   UNL     1       2.197   7.301  20.084  0.00  0.00    +0.000 A 
ENDBRANCH   5  14
BRANCH   2  20
ATOM     20  C   UNL     1       4.935   4.149  16.088  0.00  0.00    +0.000 C 
BRANCH  20  21
ATOM     21  C   UNL     1       6.442   4.090  15.845  0.00  0.00    +0.000 C 
BRANCH  21  22
ATOM     22  C   UNL     1       6.771   4.378  14.405  0.00  0.00    +0.000 C 
ATOM     23  O   UNL     1       6.316   3.787  13.435  0.00  0.00    +0.000 OA
BRANCH  22  24
ATOM     24  O   UNL     1       7.649   5.396  14.264  0.00  0.00    +0.000 OA
ATOM     25  H   UNL     1       7.609   6.035  15.005  0.00  0.00    +0.000 HD
ENDBRANCH  22  24
ENDBRANCH  21  22
ENDBRANCH  20  21
ENDBRANCH   2  20
TORSDOF 7
ENDMDL
MODEL 7
REMARK VINA RESULT:      -7.2      1.914      4.452
REMARK  Name = 
REMARK  8 active torsions:
REMARK  status: ('A' for Active; 'I' for Inactive)
REMARK    1  A    between atoms: C_1  and  O_2
REMARK    2  A    between atoms: O_2  and  C_3
REMARK    3  A    between atoms: C_8  and  N_9
REMARK    4  A    between atoms: C_10  and  C_11
REMARK    5  A    between atoms: C_11  and  C_12
REMARK    6  A    between atoms: C_12  and  C_13
REMARK    7  A    between atoms: C_13  and  O_15
REMARK    8  A    between atoms: C_18  and  C_19
REMARK                            x       y       z     vdW  Elec       q    Type
REMARK                         _______ _______ _______ _____ _____    ______ ____
ROOT
ATOM      1  N   UNL     1       3.584   4.907  17.975  0.00  0.00    +0.000 N 
ATOM      2  C   UNL     1       3.209   3.601  17.589  0.00  0.00    +0.000 A 
ATOM      3  C   UNL     1       1.834   3.548  17.508  0.00  0.00    +0.000 A 
ATOM      4  C   UNL     1       1.333   4.810  17.851  0.00  0.00    +0.000 A 
ATOM      5  C   UNL     1       2.397   5.659  18.137  0.00  0.00    +0.000 A 
ENDROOT
BRANCH   1  11
ATOM      6  C   UNL     1       5.691   5.912  17.047  0.00  0.00    +0.000 A 
ATOM      7  C   UNL     1       7.029   6.274  17.274  0.00  0.00    +0.000 A 
ATOM      8  C   UNL     1       7.602   6.168  18.544  0.00  0.00    +0.000 A 
ATOM      9  C   UNL     1       6.853   5.679  19.603  0.00  0.00    +0.000 A 
ATOM     10  C   UNL     1       5.546   5.249  19.381  0.00  0.00    +0.000 A 
ATOM     11  C   UNL     1       4.943   5.367  18.114  0.00  0.00    +0.000 A 
BRANCH   6  13
ATOM     12  C   UNL     1       5.392   5.284  14.748  0.00  0.00    +0.000 C 
ATOM     13  O   UNL     1       5.059   6.121  15.850  0.00  0.00    +0.000 OA
ENDBRANCH   6  13
ENDBRANCH   1  11
BRANCH   5  14
ATOM     14  C   UNL     1       2.258   7.091  18.483  0.00  0.00    +0.000 A 
ATOM     15  C   UNL     1       2.417   8.066  17.480  0.00  0.00    +0.000 A 
ATOM     16  C   UNL     1       2.234   9.424  17.751  0.00  0.00    +0.000 A 
ATOM     17  C   UNL     1       1.866   9.832  19.029  0.00  0.00    +0.000 A 
ATOM     18  C   UNL     1       1.741   8.888  20.045  0.00  0.00    +0.000 A 
ATOM     19  C   UNL     1       1.979   7.535  19.782  0.00  0.00    +0.000 A 
ENDBRANCH   5  14
BRANCH   2  20
ATOM     20  C   UNL     1       4.122   2.426  17.333  0.00  0.00    +0.000 C 
BRANCH  20  21
ATOM     21  C   UNL     1       3.979   1.286  18.338  0.00  0.00    +0.000 C 
BRANCH  21  22
ATOM     22  C   UNL     1       4.090   1.791  19.751  0.00  0.00    +0.000 C 
ATOM     23  O   UNL     1       3.182   2.283  20.409  0.00  0.00    +0.000 OA
BRANCH  22  24
ATOM     24  O   UNL     1       5.334   1.648  20.260  0.00  0.00    +0.000 OA
ATOM     25  H   UNL     1       6.035   1.818  19.598  0.00  0.00    +0.000 HD
ENDBRANCH  22  24
ENDBRANCH  21  22
ENDBRANCH  20  21
ENDBRANCH   2  20
TORSDOF 7
ENDMDL
MODEL 8
REMARK VINA RESULT:      -7.0      2.570      6.650
REMARK  Name = 
REMARK  8 active torsions:
REMARK  status: ('A' for Active; 'I' for Inactive)
REMARK    1  A    between atoms: C_1  and  O_2
REMARK    2  A    between atoms: O_2  and  C_3
REMARK    3  A    between atoms: C_8  and  N_9
REMARK    4  A    between atoms: C_10  and  C_11
REMARK    5  A    between atoms: C_11  and  C_12
REMARK    6  A    between atoms: C_12  and  C_13
REMARK    7  A    between atoms: C_13  and  O_15
REMARK    8  A    between atoms: C_18  and  C_19
REMARK                            x       y       z     vdW  Elec       q    Type
REMARK                         _______ _______ _______ _____ _____    ______ ____
ROOT
ATOM      1  N   UNL     1       5.066   4.628  17.474  0.00  0.00    +0.000 N 
ATOM      2  C   UNL     1       4.132   4.116  18.402  0.00  0.00    +0.000 A 
ATOM      3  C   UNL     1       3.415   3.110  17.790  0.00  0.00    +0.000 A 
ATOM      4  C   UNL     1       3.882   2.987  16.476  0.00  0.00    +0.000 A 
ATOM      5  C   UNL     1       4.900   3.911  16.266  0.00  0.00    +0.000 A 
ENDROOT
BRANCH   1  11
ATOM      6  C   UNL     1       5.902   6.991  17.313  0.00  0.00    +0.000 A 
ATOM      7  C   UNL     1       6.931   7.904  17.596  0.00  0.00    +0.000 A 
ATOM      8  C   UNL     1       8.037   7.532  18.365  0.00  0.00    +0.000 A 
ATOM      9  C   UNL     1       8.141   6.237  18.846  0.00  0.00    +0.000 A 
ATOM     10  C   UNL     1       7.165   5.299  18.516  0.00  0.00    +0.000 A 
ATOM     11  C   UNL     1       6.032   5.657  17.761  0.00  0.00    +0.000 A 
BRANCH   6  13
ATOM     12  C   UNL     1       3.602   7.669  17.461  0.00  0.00    +0.000 C 
ATOM     13  O   UNL     1       4.745   7.351  16.674  0.00  0.00    +0.000 OA
ENDBRANCH   6  13
ENDBRANCH   1  11
BRANCH   5  14
ATOM     14  C   UNL     1       5.674   4.037  15.010  0.00  0.00    +0.000 A 
ATOM     15  C   UNL     1       5.169   3.472  13.825  0.00  0.00    +0.000 A 
ATOM     16  C   UNL     1       5.837   3.622  12.607  0.00  0.00    +0.000 A 
ATOM     17  C   UNL     1       7.014   4.361  12.548  0.00  0.00    +0.000 A 
ATOM     18  C   UNL     1       7.551   4.895  13.717  0.00  0.00    +0.000 A 
ATOM     19  C   UNL     1       6.908   4.696  14.943  0.00  0.00    +0.000 A 
ENDBRANCH   5  14
BRANCH   2  20
ATOM     20  C   UNL     1       3.901   4.584  19.819  0.00  0.00    +0.000 C 
BRANCH  20  21
ATOM     21  C   UNL     1       2.450   4.942  20.136  0.00  0.00    +0.000 C 
BRANCH  21  22
ATOM     22  C   UNL     1       1.807   3.888  20.995  0.00  0.00    +0.000 C 
ATOM     23  O   UNL     1       2.257   3.448  22.046  0.00  0.00    +0.000 OA
BRANCH  22  24
ATOM     24  O   UNL     1       0.633   3.447  20.490  0.00  0.00    +0.000 OA
ATOM     25  H   UNL     1       0.048   3.063  21.175  0.00  0.00    +0.000 HD
ENDBRANCH  22  24
ENDBRANCH  21  22
ENDBRANCH  20  21
ENDBRANCH   2  20
TORSDOF 7
ENDMDL
MODEL 9
REMARK VINA RESULT:      -7.0      2.443      3.309
REMARK  Name = 
REMARK  8 active torsions:
REMARK  status: ('A' for Active; 'I' for Inactive)
REMARK    1  A    between atoms: C_1  and  O_2
REMARK    2  A    between atoms: O_2  and  C_3
REMARK    3  A    between atoms: C_8  and  N_9
REMARK    4  A    between atoms: C_10  and  C_11
REMARK    5  A    between atoms: C_11  and  C_12
REMARK    6  A    between atoms: C_12  and  C_13
REMARK    7  A    between atoms: C_13  and  O_15
REMARK    8  A    between atoms: C_18  and  C_19
REMARK                            x       y       z     vdW  Elec       q    Type
REMARK                         _______ _______ _______ _____ _____    ______ ____
ROOT
ATOM      1  N   UNL     1       3.109   6.010  18.509  0.00  0.00    +0.000 N 
ATOM      2  C   UNL     1       4.187   5.748  17.635  0.00  0.00    +0.000 A 
ATOM      3  C   UNL     1       4.563   6.933  17.039  0.00  0.00    +0.000 A 
ATOM      4  C   UNL     1       3.723   7.943  17.522  0.00  0.00    +0.000 A 
ATOM      5  C   UNL     1       2.826   7.393  18.431  0.00  0.00    +0.000 A 
ENDROOT
BRANCH   1  11
ATOM      6  C   UNL     1       1.516   4.103  18.881  0.00  0.00    +0.000 A 
ATOM      7  C   UNL     1       0.914   3.227  19.798  0.00  0.00    +0.000 A 
ATOM      8  C   UNL     1       1.296   3.210  21.142  0.00  0.00    +0.000 A 
ATOM      9  C   UNL     1       2.273   4.082  21.594  0.00  0.00    +0.000 A 
ATOM     10  C   UNL     1       2.831   5.008  20.714  0.00  0.00    +0.000 A 
ATOM     11  C   UNL     1       2.475   5.028  19.352  0.00  0.00    +0.000 A 
BRANCH   6  13
ATOM     12  C   UNL     1       1.934   3.088  16.745  0.00  0.00    +0.000 C 
ATOM     13  O   UNL     1       1.261   4.061  17.536  0.00  0.00    +0.000 OA
ENDBRANCH   6  13
ENDBRANCH   1  11
BRANCH   5  14
ATOM     14  C   UNL     1       1.819   8.168  19.192  0.00  0.00    +0.000 A 
ATOM     15  C   UNL     1       1.086   9.178  18.542  0.00  0.00    +0.000 A 
ATOM     16  C   UNL     1       0.084   9.890  19.207  0.00  0.00    +0.000 A 
ATOM     17  C   UNL     1      -0.218   9.589  20.530  0.00  0.00    +0.000 A 
ATOM     18  C   UNL     1       0.522   8.619  21.203  0.00  0.00    +0.000 A 
ATOM     19  C   UNL     1       1.560   7.947  20.550  0.00  0.00    +0.000 A 
ENDBRANCH   5  14
BRANCH   2  20
ATOM     20  C   UNL     1       4.826   4.410  17.345  0.00  0.00    +0.000 C 
BRANCH  20  21
ATOM     21  C   UNL     1       6.266   4.495  16.845  0.00  0.00    +0.000 C 
BRANCH  21  22
ATOM     22  C   UNL     1       7.235   4.579  17.993  0.00  0.00    +0.000 C 
ATOM     23  O   UNL     1       7.016   5.104  19.077  0.00  0.00    +0.000 OA
BRANCH  22  24
ATOM     24  O   UNL     1       8.423   3.996  17.717  0.00  0.00    +0.000 OA
ATOM     25  H   UNL     1       9.112   4.215  18.376  0.00  0.00    +0.000 HD
ENDBRANCH  22  24
ENDBRANCH  21  22
ENDBRANCH  20  21
ENDBRANCH   2  20
TORSDOF 7
ENDMDL
