MODEL 1
REMARK VINA RESULT:      -8.1      0.000      0.000
REMARK  Name = 
REMARK  11 active torsions:
REMARK  status: ('A' for Active; 'I' for Inactive)
REMARK    1  A    between atoms: C_1  and  O_2
REMARK    2  A    between atoms: O_2  and  C_3
REMARK    3  A    between atoms: C_3  and  C_5
REMARK    4  A    between atoms: C_8  and  N_9
REMARK    5  A    between atoms: C_10  and  C_12
REMARK    6  A    between atoms: C_12  and  C_13
REMARK    7  A    between atoms: C_13  and  C_14
REMARK    8  A    between atoms: N_24  and  C_25
REMARK    9  A    between atoms: C_25  and  C_26
REMARK   10  A    between atoms: C_29  and  O_30
REMARK   11  A    between atoms: O_30  and  C_31
REMARK                            x       y       z     vdW  Elec       q    Type
REMARK                         _______ _______ _______ _____ _____    ______ ____
ROOT
ATOM      1  C   UNL     1       2.376   4.612  20.513  0.00  0.00    +0.000 A 
ATOM      2  C   UNL     1       1.660   5.751  20.569  0.00  0.00    +0.000 A 
ATOM      3  C   UNL     1       1.981   6.909  19.716  0.00  0.00    +0.000 A 
ATOM      4  C   UNL     1       1.229   8.104  19.779  0.00  0.00    +0.000 A 
ATOM      5  C   UNL     1       1.444   9.111  18.826  0.00  0.00    +0.000 A 
ATOM      6  C   UNL     1       2.448   8.971  17.874  0.00  0.00    +0.000 A 
ATOM      7  C   UNL     1       3.218   7.809  17.837  0.00  0.00    +0.000 A 
ATOM      8  C   UNL     1       2.979   6.754  18.735  0.00  0.00    +0.000 A 
ATOM      9  N   UNL     1       3.733   5.536  18.682  0.00  0.00    +0.000 N 
ATOM     10  C   UNL     1       3.563   4.527  19.624  0.00  0.00    +0.000 A 
ATOM     11  O   UNL     1       4.356   3.589  19.732  0.00  0.00    +0.000 OA
ENDROOT
BRANCH   4  12
ATOM     12  N   UNL     1       0.306   8.349  20.824  0.00  0.00    +0.000 N 
ATOM     13  C   UNL     1       0.604   9.157  21.913  0.00  0.00    +0.000 C 
ATOM     14  O   UNL     1       1.692   9.710  22.082  0.00  0.00    +0.000 OA
ATOM     15  H   UNL     1      -0.677   8.195  20.616  0.00  0.00    +0.000 HD
BRANCH  13  16
ATOM     16  C   UNL     1      -0.536   9.305  22.901  0.00  0.00    +0.000 C 
BRANCH  16  17
ATOM     17  C   UNL     1      -0.710  10.768  23.314  0.00  0.00    +0.000 C 
BRANCH  17  18
ATOM     18  C   UNL     1      -1.610  11.537  22.374  0.00  0.00    +0.000 A 
ATOM     19  C   UNL     1      -2.748  12.192  22.864  0.00  0.00    +0.000 A 
ATOM     20  C   UNL     1      -3.593  12.895  22.000  0.00  0.00    +0.000 A 
ATOM     21  C   UNL     1      -3.309  12.948  20.637  0.00  0.00    +0.000 A 
ATOM     22  C   UNL     1      -2.174  12.310  20.140  0.00  0.00    +0.000 A 
ATOM     23  C   UNL     1      -1.329  11.606  21.003  0.00  0.00    +0.000 A 
ENDBRANCH  17  18
ENDBRANCH  16  17
ENDBRANCH  13  16
ENDBRANCH   4  12
BRANCH   1  24
ATOM     24  C   UNL     1       1.903   3.467  21.328  0.00  0.00    +0.000 C 
ATOM     25  O   UNL     1       2.351   3.181  22.430  0.00  0.00    +0.000 OA
BRANCH  24  27
ATOM     26  C   UNL     1       1.234   1.993  19.611  0.00  0.00    +0.000 C 
ATOM     27  O   UNL     1       0.879   2.832  20.711  0.00  0.00    +0.000 OA
ENDBRANCH  24  27
ENDBRANCH   1  24
BRANCH   9  28
ATOM     28  C   UNL     1       4.783   5.325  17.684  0.00  0.00    +0.000 C 
BRANCH  28  29
ATOM     29  C   UNL     1       6.030   6.165  17.868  0.00  0.00    +0.000 A 
ATOM     30  C   UNL     1       7.029   5.845  18.795  0.00  0.00    +0.000 A 
ATOM     31  C   UNL     1       8.096   6.713  19.015  0.00  0.00    +0.000 A 
ATOM     32  C   UNL     1       8.211   7.893  18.283  0.00  0.00    +0.000 A 
ATOM     33  C   UNL     1       7.275   8.183  17.298  0.00  0.00    +0.000 A 
ATOM     34  C   UNL     1       6.190   7.323  17.091  0.00  0.00    +0.000 A 
BRANCH  32  35
ATOM     35  O   UNL     1       9.244   8.702  18.677  0.00  0.00    +0.000 OA
ATOM     36  C   UNL     1       8.976  10.095  18.727  0.00  0.00    +0.000 C 
ENDBRANCH  32  35
ENDBRANCH  28  29
ENDBRANCH   9  28
TORSDOF 9
ENDMDL
MODEL 2
REMARK VINA RESULT:      -8.1      2.347      3.218
REMARK  Name = 
REMARK  11 active torsions:
REMARK  status: ('A' for Active; 'I' for Inactive)
REMARK    1  A    between atoms: C_1  and  O_2
REMARK    2  A    between atoms: O_2  and  C_3
REMARK    3  A    between atoms: C_3  and  C_5
REMARK    4  A    between atoms: C_8  and  N_9
REMARK    5  A    between atoms: C_10  and  C_12
REMARK    6  A    between atoms: C_12  and  C_13
REMARK    7  A    between atoms: C_13  and  C_14
REMARK    8  A    between atoms: N_24  and  C_25
REMARK    9  A    between atoms: C_25  and  C_26
REMARK   10  A    between atoms: C_29  and  O_30
REMARK   11  A    between atoms: O_30  and  C_31
REMARK                            x       y       z     vdW  Elec       q    Type
REMARK                         _______ _______ _______ _____ _____    ______ ____
ROOT
ATOM      1  C   UNL     1       3.060   3.982  20.156  0.00  0.00    +0.000 A 
ATOM      2  C   UNL     1       2.373   5.120  19.944  0.00  0.00    +0.000 A 
ATOM      3  C   UNL     1       2.933   6.226  19.147  0.00  0.00    +0.000 A 
ATOM      4  C   UNL     1       2.210   7.420  18.928  0.00  0.00    +0.000 A 
ATOM      5  C   UNL     1       2.695   8.368  18.015  0.00  0.00    +0.000 A 
ATOM      6  C   UNL     1       3.922   8.174  17.390  0.00  0.00    +0.000 A 
ATOM      7  C   UNL     1       4.656   7.015  17.636  0.00  0.00    +0.000 A 
ATOM      8  C   UNL     1       4.162   6.015  18.493  0.00  0.00    +0.000 A 
ATOM      9  N   UNL     1       4.885   4.798  18.724  0.00  0.00    +0.000 N 
ATOM     10  C   UNL     1       4.446   3.847  19.639  0.00  0.00    +0.000 A 
ATOM     11  O   UNL     1       5.165   2.920  20.018  0.00  0.00    +0.000 OA
ENDROOT
BRANCH   4  12
ATOM     12  N   UNL     1       1.036   7.724  19.659  0.00  0.00    +0.000 N 
ATOM     13  C   UNL     1       1.069   8.302  20.921  0.00  0.00    +0.000 C 
ATOM     14  O   UNL     1       2.107   8.579  21.525  0.00  0.00    +0.000 OA
ATOM     15  H   UNL     1       0.174   7.816  19.130  0.00  0.00    +0.000 HD
BRANCH  13  16
ATOM     16  C   UNL     1      -0.300   8.568  21.513  0.00  0.00    +0.000 C 
BRANCH  16  17
ATOM     17  C   UNL     1      -0.191   9.443  22.764  0.00  0.00    +0.000 C 
BRANCH  17  18
ATOM     18  C   UNL     1      -0.679  10.855  22.532  0.00  0.00    +0.000 A 
ATOM     19  C   UNL     1      -1.782  11.347  23.243  0.00  0.00    +0.000 A 
ATOM     20  C   UNL     1      -2.247  12.647  23.026  0.00  0.00    +0.000 A 
ATOM     21  C   UNL     1      -1.615  13.468  22.094  0.00  0.00    +0.000 A 
ATOM     22  C   UNL     1      -0.510  12.994  21.390  0.00  0.00    +0.000 A 
ATOM     23  C   UNL     1      -0.044  11.694  21.605  0.00  0.00    +0.000 A 
ENDBRANCH  17  18
ENDBRANCH  16  17
ENDBRANCH  13  16
ENDBRANCH   4  12
BRANCH   1  24
ATOM     24  C   UNL     1       2.364   2.886  20.873  0.00  0.00    +0.000 C 
ATOM     25  O   UNL     1       2.706   2.461  21.969  0.00  0.00    +0.000 OA
BRANCH  24  27
ATOM     26  C   UNL     1       1.534   1.912  18.893  0.00  0.00    +0.000 C 
ATOM     27  O   UNL     1       1.277   2.475  20.180  0.00  0.00    +0.000 OA
ENDBRANCH  24  27
ENDBRANCH   1  24
BRANCH   9  28
ATOM     28  C   UNL     1       6.167   4.530  18.071  0.00  0.00    +0.000 C 
BRANCH  28  29
ATOM     29  C   UNL     1       6.121   4.459  16.558  0.00  0.00    +0.000 A 
ATOM     30  C   UNL     1       5.081   3.831  15.861  0.00  0.00    +0.000 A 
ATOM     31  C   UNL     1       5.143   3.683  14.477  0.00  0.00    +0.000 A 
ATOM     32  C   UNL     1       6.221   4.198  13.758  0.00  0.00    +0.000 A 
ATOM     33  C   UNL     1       7.218   4.899  14.425  0.00  0.00    +0.000 A 
ATOM     34  C   UNL     1       7.168   5.029  15.818  0.00  0.00    +0.000 A 
BRANCH  32  35
ATOM     35  O   UNL     1       6.209   3.885  12.425  0.00  0.00    +0.000 OA
ATOM     36  C   UNL     1       5.360   2.817  12.030  0.00  0.00    +0.000 C 
ENDBRANCH  32  35
ENDBRANCH  28  29
ENDBRANCH   9  28
TORSDOF 9
ENDMDL
MODEL 3
REMARK VINA RESULT:      -7.9      3.351      7.227
REMARK  Name = 
REMARK  11 active torsions:
REMARK  status: ('A' for Active; 'I' for Inactive)
REMARK    1  A    between atoms: C_1  and  O_2
REMARK    2  A    between atoms: O_2  and  C_3
REMARK    3  A    between atoms: C_3  and  C_5
REMARK    4  A    between atoms: C_8  and  N_9
REMARK    5  A    between atoms: C_10  and  C_12
REMARK    6  A    between atoms: C_12  and  C_13
REMARK    7  A    between atoms: C_13  and  C_14
REMARK    8  A    between atoms: N_24  and  C_25
REMARK    9  A    between atoms: C_25  and  C_26
REMARK   10  A    between atoms: C_29  and  O_30
REMARK   11  A    between atoms: O_30  and  C_31
REMARK                            x       y       z     vdW  Elec       q    Type
REMARK                         _______ _______ _______ _____ _____    ______ ____
ROOT
ATOM      1  C   UNL     1      -0.929  12.327  20.779  0.00  0.00    +0.000 A 
ATOM      2  C   UNL     1      -2.124  12.218  20.168  0.00  0.00    +0.000 A 
ATOM      3  C   UNL     1      -2.265  11.569  18.852  0.00  0.00    +0.000 A 
ATOM      4  C   UNL     1      -3.521  11.458  18.214  0.00  0.00    +0.000 A 
ATOM      5  C   UNL     1      -3.645  10.675  17.057  0.00  0.00    +0.000 A 
ATOM      6  C   UNL     1      -2.523  10.076  16.493  0.00  0.00    +0.000 A 
ATOM      7  C   UNL     1      -1.276  10.219  17.100  0.00  0.00    +0.000 A 
ATOM      8  C   UNL     1      -1.134  10.941  18.298  0.00  0.00    +0.000 A 
ATOM      9  N   UNL     1       0.134  11.062  18.958  0.00  0.00    +0.000 N 
ATOM     10  C   UNL     1       0.299  11.849  20.092  0.00  0.00    +0.000 A 
ATOM     11  O   UNL     1       1.412  12.149  20.527  0.00  0.00    +0.000 OA
ENDROOT
BRANCH   4  12
ATOM     12  N   UNL     1      -4.654  12.176  18.669  0.00  0.00    +0.000 N 
ATOM     13  C   UNL     1      -5.879  11.568  18.907  0.00  0.00    +0.000 C 
ATOM     14  O   UNL     1      -6.100  10.370  18.725  0.00  0.00    +0.000 OA
ATOM     15  H   UNL     1      -4.482  13.067  19.126  0.00  0.00    +0.000 HD
BRANCH  13  16
ATOM     16  C   UNL     1      -6.948  12.514  19.415  0.00  0.00    +0.000 C 
BRANCH  16  17
ATOM     17  C   UNL     1      -6.328  13.634  20.255  0.00  0.00    +0.000 C 
BRANCH  17  18
ATOM     18  C   UNL     1      -6.791  13.611  21.693  0.00  0.00    +0.000 A 
ATOM     19  C   UNL     1      -6.987  12.389  22.352  0.00  0.00    +0.000 A 
ATOM     20  C   UNL     1      -7.427  12.359  23.679  0.00  0.00    +0.000 A 
ATOM     21  C   UNL     1      -7.679  13.549  24.358  0.00  0.00    +0.000 A 
ATOM     22  C   UNL     1      -7.478  14.770  23.716  0.00  0.00    +0.000 A 
ATOM     23  C   UNL     1      -7.039  14.802  22.390  0.00  0.00    +0.000 A 
ENDBRANCH  17  18
ENDBRANCH  16  17
ENDBRANCH  13  16
ENDBRANCH   4  12
BRANCH   1  24
ATOM     24  C   UNL     1      -0.911  12.893  22.149  0.00  0.00    +0.000 C 
ATOM     25  O   UNL     1      -0.621  14.054  22.406  0.00  0.00    +0.000 OA
BRANCH  24  27
ATOM     26  C   UNL     1      -2.664  12.083  23.503  0.00  0.00    +0.000 C 
ATOM     27  O   UNL     1      -1.314  11.970  23.053  0.00  0.00    +0.000 OA
ENDBRANCH  24  27
ENDBRANCH   1  24
BRANCH   9  28
ATOM     28  C   UNL     1       1.341  10.430  18.423  0.00  0.00    +0.000 C 
BRANCH  28  29
ATOM     29  C   UNL     1       1.597   9.015  18.901  0.00  0.00    +0.000 A 
ATOM     30  C   UNL     1       1.295   8.588  20.200  0.00  0.00    +0.000 A 
ATOM     31  C   UNL     1       1.661   7.315  20.631  0.00  0.00    +0.000 A 
ATOM     32  C   UNL     1       2.295   6.429  19.762  0.00  0.00    +0.000 A 
ATOM     33  C   UNL     1       2.524   6.806  18.445  0.00  0.00    +0.000 A 
ATOM     34  C   UNL     1       2.176   8.092  18.016  0.00  0.00    +0.000 A 
BRANCH  32  35
ATOM     35  O   UNL     1       2.696   5.257  20.347  0.00  0.00    +0.000 OA
ATOM     36  C   UNL     1       1.671   4.422  20.864  0.00  0.00    +0.000 C 
ENDBRANCH  32  35
ENDBRANCH  28  29
ENDBRANCH   9  28
TORSDOF 9
ENDMDL
MODEL 4
REMARK VINA RESULT:      -7.9      3.666     10.434
REMARK  Name = 
REMARK  11 active torsions:
REMARK  status: ('A' for Active; 'I' for Inactive)
REMARK    1  A    between atoms: C_1  and  O_2
REMARK    2  A    between atoms: O_2  and  C_3
REMARK    3  A    between atoms: C_3  and  C_5
REMARK    4  A    between atoms: C_8  and  N_9
REMARK    5  A    between atoms: C_10  and  C_12
REMARK    6  A    between atoms: C_12  and  C_13
REMARK    7  A    between atoms: C_13  and  C_14
REMARK    8  A    between atoms: N_24  and  C_25
REMARK    9  A    between atoms: C_25  and  C_26
REMARK   10  A    between atoms: C_29  and  O_30
REMARK   11  A    between atoms: O_30  and  C_31
REMARK                            x       y       z     vdW  Elec       q    Type
REMARK                         _______ _______ _______ _____ _____    ______ ____
ROOT
ATOM      1  C   UNL     1       0.867  13.291  20.195  0.00  0.00    +0.000 A 
ATOM      2  C   UNL     1       1.040  11.970  19.992  0.00  0.00    +0.000 A 
ATOM      3  C   UNL     1       0.537  10.967  20.947  0.00  0.00    +0.000 A 
ATOM      4  C   UNL     1       0.723   9.583  20.731  0.00  0.00    +0.000 A 
ATOM      5  C   UNL     1       0.072   8.658  21.561  0.00  0.00    +0.000 A 
ATOM      6  C   UNL     1      -0.687   9.098  22.640  0.00  0.00    +0.000 A 
ATOM      7  C   UNL     1      -0.837  10.463  22.878  0.00  0.00    +0.000 A 
ATOM      8  C   UNL     1      -0.254  11.414  22.022  0.00  0.00    +0.000 A 
ATOM      9  N   UNL     1      -0.434  12.822  22.228  0.00  0.00    +0.000 N 
ATOM     10  C   UNL     1       0.214  13.768  21.441  0.00  0.00    +0.000 A 
ATOM     11  O   UNL     1       0.257  14.960  21.749  0.00  0.00    +0.000 OA
ENDROOT
BRANCH   4  12
ATOM     12  N   UNL     1       1.608   9.096  19.740  0.00  0.00    +0.000 N 
ATOM     13  C   UNL     1       1.272   9.048  18.394  0.00  0.00    +0.000 C 
ATOM     14  O   UNL     1       0.179   9.396  17.944  0.00  0.00    +0.000 OA
ATOM     15  H   UNL     1       2.598   9.086  19.971  0.00  0.00    +0.000 HD
BRANCH  13  16
ATOM     16  C   UNL     1       2.376   8.518  17.501  0.00  0.00    +0.000 C 
BRANCH  16  17
ATOM     17  C   UNL     1       3.307   7.588  18.283  0.00  0.00    +0.000 C 
BRANCH  17  18
ATOM     18  C   UNL     1       3.135   6.135  17.903  0.00  0.00    +0.000 A 
ATOM     19  C   UNL     1       1.924   5.476  18.161  0.00  0.00    +0.000 A 
ATOM     20  C   UNL     1       1.761   4.130  17.824  0.00  0.00    +0.000 A 
ATOM     21  C   UNL     1       2.806   3.427  17.229  0.00  0.00    +0.000 A 
ATOM     22  C   UNL     1       4.011   4.074  16.958  0.00  0.00    +0.000 A 
ATOM     23  C   UNL     1       4.176   5.421  17.295  0.00  0.00    +0.000 A 
ENDBRANCH  17  18
ENDBRANCH  16  17
ENDBRANCH  13  16
ENDBRANCH   4  12
BRANCH   1  24
ATOM     24  C   UNL     1       1.308  14.211  19.119  0.00  0.00    +0.000 C 
ATOM     25  O   UNL     1       2.456  14.273  18.701  0.00  0.00    +0.000 OA
BRANCH  24  27
ATOM     26  C   UNL     1       0.428  16.335  18.593  0.00  0.00    +0.000 C 
ATOM     27  O   UNL     1       0.260  14.918  18.635  0.00  0.00    +0.000 OA
ENDBRANCH  24  27
ENDBRANCH   1  24
BRANCH   9  28
ATOM     28  C   UNL     1      -1.245  13.340  23.332  0.00  0.00    +0.000 C 
BRANCH  28  29
ATOM     29  C   UNL     1      -2.743  13.195  23.159  0.00  0.00    +0.000 A 
ATOM     30  C   UNL     1      -3.627  13.125  24.241  0.00  0.00    +0.000 A 
ATOM     31  C   UNL     1      -4.981  12.868  24.036  0.00  0.00    +0.000 A 
ATOM     32  C   UNL     1      -5.485  12.721  22.745  0.00  0.00    +0.000 A 
ATOM     33  C   UNL     1      -4.636  12.874  21.656  0.00  0.00    +0.000 A 
ATOM     34  C   UNL     1      -3.272  13.111  21.862  0.00  0.00    +0.000 A 
BRANCH  32  35
ATOM     35  O   UNL     1      -6.807  12.364  22.694  0.00  0.00    +0.000 OA
ATOM     36  C   UNL     1      -7.295  11.915  21.439  0.00  0.00    +0.000 C 
ENDBRANCH  32  35
ENDBRANCH  28  29
ENDBRANCH   9  28
TORSDOF 9
ENDMDL
MODEL 5
REMARK VINA RESULT:      -7.9      3.341      7.103
REMARK  Name = 
REMARK  11 active torsions:
REMARK  status: ('A' for Active; 'I' for Inactive)
REMARK    1  A    between atoms: C_1  and  O_2
REMARK    2  A    between atoms: O_2  and  C_3
REMARK    3  A    between atoms: C_3  and  C_5
REMARK    4  A    between atoms: C_8  and  N_9
REMARK    5  A    between atoms: C_10  and  C_12
REMARK    6  A    between atoms: C_12  and  C_13
REMARK    7  A    between atoms: C_13  and  C_14
REMARK    8  A    between atoms: N_24  and  C_25
REMARK    9  A    between atoms: C_25  and  C_26
REMARK   10  A    between atoms: C_29  and  O_30
REMARK   11  A    between atoms: O_30  and  C_31
REMARK                            x       y       z     vdW  Elec       q    Type
REMARK                         _______ _______ _______ _____ _____    ______ ____
ROOT
ATOM      1  C   UNL     1      -0.767  12.266  20.804  0.00  0.00    +0.000 A 
ATOM      2  C   UNL     1      -1.990  12.165  20.248  0.00  0.00    +0.000 A 
ATOM      3  C   UNL     1      -2.197  11.502  18.948  0.00  0.00    +0.000 A 
ATOM      4  C   UNL     1      -3.482  11.400  18.367  0.00  0.00    +0.000 A 
ATOM      5  C   UNL     1      -3.667  10.605  17.227  0.00  0.00    +0.000 A 
ATOM      6  C   UNL     1      -2.579   9.984  16.622  0.00  0.00    +0.000 A 
ATOM      7  C   UNL     1      -1.304  10.117  17.172  0.00  0.00    +0.000 A 
ATOM      8  C   UNL     1      -1.100  10.852  18.353  0.00  0.00    +0.000 A 
ATOM      9  N   UNL     1       0.197  10.963  18.954  0.00  0.00    +0.000 N 
ATOM     10  C   UNL     1       0.422  11.762  20.071  0.00  0.00    +0.000 A 
ATOM     11  O   UNL     1       1.558  12.052  20.452  0.00  0.00    +0.000 OA
ENDROOT
BRANCH   4  12
ATOM     12  N   UNL     1      -4.583  12.139  18.863  0.00  0.00    +0.000 N 
ATOM     13  C   UNL     1      -5.824  11.563  19.100  0.00  0.00    +0.000 C 
ATOM     14  O   UNL     1      -6.087  10.380  18.883  0.00  0.00    +0.000 OA
ATOM     15  H   UNL     1      -4.376  13.008  19.345  0.00  0.00    +0.000 HD
BRANCH  13  16
ATOM     16  C   UNL     1      -6.854  12.527  19.655  0.00  0.00    +0.000 C 
BRANCH  16  17
ATOM     17  C   UNL     1      -6.177  13.653  20.441  0.00  0.00    +0.000 C 
BRANCH  17  18
ATOM     18  C   UNL     1      -5.897  13.276  21.877  0.00  0.00    +0.000 A 
ATOM     19  C   UNL     1      -6.948  12.907  22.728  0.00  0.00    +0.000 A 
ATOM     20  C   UNL     1      -6.699  12.568  24.061  0.00  0.00    +0.000 A 
ATOM     21  C   UNL     1      -5.398  12.598  24.558  0.00  0.00    +0.000 A 
ATOM     22  C   UNL     1      -4.343  12.953  23.718  0.00  0.00    +0.000 A 
ATOM     23  C   UNL     1      -4.591  13.292  22.385  0.00  0.00    +0.000 A 
ENDBRANCH  17  18
ENDBRANCH  16  17
ENDBRANCH  13  16
ENDBRANCH   4  12
BRANCH   1  24
ATOM     24  C   UNL     1      -0.681  12.847  22.165  0.00  0.00    +0.000 C 
ATOM     25  O   UNL     1      -0.897  12.218  23.192  0.00  0.00    +0.000 OA
BRANCH  24  27
ATOM     26  C   UNL     1      -1.311  15.119  22.109  0.00  0.00    +0.000 C 
ATOM     27  O   UNL     1      -0.274  14.137  22.109  0.00  0.00    +0.000 OA
ENDBRANCH  24  27
ENDBRANCH   1  24
BRANCH   9  28
ATOM     28  C   UNL     1       1.372  10.308  18.375  0.00  0.00    +0.000 C 
BRANCH  28  29
ATOM     29  C   UNL     1       1.692   8.938  18.938  0.00  0.00    +0.000 A 
ATOM     30  C   UNL     1       2.358   7.954  18.199  0.00  0.00    +0.000 A 
ATOM     31  C   UNL     1       2.521   6.670  18.714  0.00  0.00    +0.000 A 
ATOM     32  C   UNL     1       2.063   6.357  19.993  0.00  0.00    +0.000 A 
ATOM     33  C   UNL     1       1.477   7.346  20.772  0.00  0.00    +0.000 A 
ATOM     34  C   UNL     1       1.293   8.631  20.248  0.00  0.00    +0.000 A 
BRANCH  32  35
ATOM     35  O   UNL     1       2.189   5.035  20.328  0.00  0.00    +0.000 OA
ATOM     36  C   UNL     1       3.387   4.388  19.923  0.00  0.00    +0.000 C 
ENDBRANCH  32  35
ENDBRANCH  28  29
ENDBRANCH   9  28
TORSDOF 9
ENDMDL
MODEL 6
REMARK VINA RESULT:      -7.9      2.482      3.475
REMARK  Name = 
REMARK  11 active torsions:
REMARK  status: ('A' for Active; 'I' for Inactive)
REMARK    1  A    between atoms: C_1  and  O_2
REMARK    2  A    between atoms: O_2  and  C_3
REMARK    3  A    between atoms: C_3  and  C_5
REMARK    4  A    between atoms: C_8  and  N_9
REMARK    5  A    between atoms: C_10  and  C_12
REMARK    6  A    between atoms: C_12  and  C_13
REMARK    7  A    between atoms: C_13  and  C_14
REMARK    8  A    between atoms: N_24  and  C_25
REMARK    9  A    between atoms: C_25  and  C_26
REMARK   10  A    between atoms: C_29  and  O_30
REMARK   11  A    between atoms: O_30  and  C_31
REMARK                            x       y       z     vdW  Elec       q    Type
REMARK                         _______ _______ _______ _____ _____    ______ ____
ROOT
ATOM      1  C   UNL     1       3.026   4.045  20.123  0.00  0.00    +0.000 A 
ATOM      2  C   UNL     1       2.348   5.189  19.915  0.00  0.00    +0.000 A 
ATOM      3  C   UNL     1       2.915   6.292  19.119  0.00  0.00    +0.000 A 
ATOM      4  C   UNL     1       2.201   7.493  18.904  0.00  0.00    +0.000 A 
ATOM      5  C   UNL     1       2.693   8.439  17.993  0.00  0.00    +0.000 A 
ATOM      6  C   UNL     1       3.916   8.236  17.365  0.00  0.00    +0.000 A 
ATOM      7  C   UNL     1       4.642   7.070  17.607  0.00  0.00    +0.000 A 
ATOM      8  C   UNL     1       4.141   6.073  18.462  0.00  0.00    +0.000 A 
ATOM      9  N   UNL     1       4.854   4.850  18.689  0.00  0.00    +0.000 N 
ATOM     10  C   UNL     1       4.410   3.900  19.603  0.00  0.00    +0.000 A 
ATOM     11  O   UNL     1       5.122   2.966  19.978  0.00  0.00    +0.000 OA
ENDROOT
BRANCH   4  12
ATOM     12  N   UNL     1       1.032   7.804  19.638  0.00  0.00    +0.000 N 
ATOM     13  C   UNL     1       1.072   8.349  20.915  0.00  0.00    +0.000 C 
ATOM     14  O   UNL     1       2.113   8.585  21.530  0.00  0.00    +0.000 OA
ATOM     15  H   UNL     1       0.174   7.930  19.108  0.00  0.00    +0.000 HD
BRANCH  13  16
ATOM     16  C   UNL     1      -0.294   8.630  21.508  0.00  0.00    +0.000 C 
BRANCH  16  17
ATOM     17  C   UNL     1      -0.420  10.102  21.908  0.00  0.00    +0.000 C 
BRANCH  17  18
ATOM     18  C   UNL     1      -0.188  11.044  20.749  0.00  0.00    +0.000 A 
ATOM     19  C   UNL     1       0.890  11.939  20.771  0.00  0.00    +0.000 A 
ATOM     20  C   UNL     1       1.104  12.822  19.709  0.00  0.00    +0.000 A 
ATOM     21  C   UNL     1       0.241  12.820  18.615  0.00  0.00    +0.000 A 
ATOM     22  C   UNL     1      -0.828  11.927  18.576  0.00  0.00    +0.000 A 
ATOM     23  C   UNL     1      -1.044  11.044  19.639  0.00  0.00    +0.000 A 
ENDBRANCH  17  18
ENDBRANCH  16  17
ENDBRANCH  13  16
ENDBRANCH   4  12
BRANCH   1  24
ATOM     24  C   UNL     1       2.322   2.953  20.839  0.00  0.00    +0.000 C 
ATOM     25  O   UNL     1       2.128   2.942  22.047  0.00  0.00    +0.000 OA
BRANCH  24  27
ATOM     26  C   UNL     1       0.707   2.361  19.225  0.00  0.00    +0.000 C 
ATOM     27  O   UNL     1       1.878   2.018  19.967  0.00  0.00    +0.000 OA
ENDBRANCH  24  27
ENDBRANCH   1  24
BRANCH   9  28
ATOM     28  C   UNL     1       6.133   4.572  18.033  0.00  0.00    +0.000 C 
BRANCH  28  29
ATOM     29  C   UNL     1       6.070   4.432  16.525  0.00  0.00    +0.000 A 
ATOM     30  C   UNL     1       5.048   3.734  15.872  0.00  0.00    +0.000 A 
ATOM     31  C   UNL     1       5.098   3.527  14.496  0.00  0.00    +0.000 A 
ATOM     32  C   UNL     1       6.146   4.050  13.739  0.00  0.00    +0.000 A 
ATOM     33  C   UNL     1       7.122   4.819  14.360  0.00  0.00    +0.000 A 
ATOM     34  C   UNL     1       7.085   5.009  15.746  0.00  0.00    +0.000 A 
BRANCH  32  35
ATOM     35  O   UNL     1       6.128   3.678  12.421  0.00  0.00    +0.000 OA
ATOM     36  C   UNL     1       4.862   3.347  11.871  0.00  0.00    +0.000 C 
ENDBRANCH  32  35
ENDBRANCH  28  29
ENDBRANCH   9  28
TORSDOF 9
ENDMDL
MODEL 7
REMARK VINA RESULT:      -7.8      3.550      7.416
REMARK  Name = 
REMARK  11 active torsions:
REMARK  status: ('A' for Active; 'I' for Inactive)
REMARK    1  A    between atoms: C_1  and  O_2
REMARK    2  A    between atoms: O_2  and  C_3
REMARK    3  A    between atoms: C_3  and  C_5
REMARK    4  A    between atoms: C_8  and  N_9
REMARK    5  A    between atoms: C_10  and  C_12
REMARK    6  A    between atoms: C_12  and  C_13
REMARK    7  A    between atoms: C_13  and  C_14
REMARK    8  A    between atoms: N_24  and  C_25
REMARK    9  A    between atoms: C_25  and  C_26
REMARK   10  A    between atoms: C_29  and  O_30
REMARK   11  A    between atoms: O_30  and  C_31
REMARK                            x       y       z     vdW  Elec       q    Type
REMARK                         _______ _______ _______ _____ _____    ______ ____
ROOT
ATOM      1  C   UNL     1      -1.528  12.494  20.800  0.00  0.00    +0.000 A 
ATOM      2  C   UNL     1      -2.699  12.231  20.189  0.00  0.00    +0.000 A 
ATOM      3  C   UNL     1      -2.753  11.632  18.844  0.00  0.00    +0.000 A 
ATOM      4  C   UNL     1      -3.985  11.360  18.205  0.00  0.00    +0.000 A 
ATOM      5  C   UNL     1      -4.000  10.623  17.012  0.00  0.00    +0.000 A 
ATOM      6  C   UNL     1      -2.806  10.231  16.416  0.00  0.00    +0.000 A 
ATOM      7  C   UNL     1      -1.589  10.534  17.025  0.00  0.00    +0.000 A 
ATOM      8  C   UNL     1      -1.545  11.211  18.256  0.00  0.00    +0.000 A 
ATOM      9  N   UNL     1      -0.304  11.493  18.916  0.00  0.00    +0.000 N 
ATOM     10  C   UNL     1      -0.249  12.241  20.087  0.00  0.00    +0.000 A 
ATOM     11  O   UNL     1       0.811  12.688  20.532  0.00  0.00    +0.000 OA
ENDROOT
BRANCH   4  12
ATOM     12  N   UNL     1      -5.208  11.874  18.699  0.00  0.00    +0.000 N 
ATOM     13  C   UNL     1      -6.253  11.056  19.108  0.00  0.00    +0.000 C 
ATOM     14  O   UNL     1      -6.224   9.825  19.058  0.00  0.00    +0.000 OA
ATOM     15  H   UNL     1      -5.199  12.826  19.053  0.00  0.00    +0.000 HD
BRANCH  13  16
ATOM     16  C   UNL     1      -7.460  11.811  19.626  0.00  0.00    +0.000 C 
BRANCH  16  17
ATOM     17  C   UNL     1      -7.755  11.432  21.080  0.00  0.00    +0.000 C 
BRANCH  17  18
ATOM     18  C   UNL     1      -7.572  12.589  22.034  0.00  0.00    +0.000 A 
ATOM     19  C   UNL     1      -7.148  13.837  21.557  0.00  0.00    +0.000 A 
ATOM     20  C   UNL     1      -6.965  14.910  22.433  0.00  0.00    +0.000 A 
ATOM     21  C   UNL     1      -7.200  14.746  23.797  0.00  0.00    +0.000 A 
ATOM     22  C   UNL     1      -7.632  13.512  24.282  0.00  0.00    +0.000 A 
ATOM     23  C   UNL     1      -7.815  12.438  23.406  0.00  0.00    +0.000 A 
ENDBRANCH  17  18
ENDBRANCH  16  17
ENDBRANCH  13  16
ENDBRANCH   4  12
BRANCH   1  24
ATOM     24  C   UNL     1      -1.581  12.989  22.196  0.00  0.00    +0.000 C 
ATOM     25  O   UNL     1      -1.295  14.133  22.527  0.00  0.00    +0.000 OA
BRANCH  24  27
ATOM     26  C   UNL     1      -1.216  10.871  23.167  0.00  0.00    +0.000 C 
ATOM     27  O   UNL     1      -2.043  12.028  23.028  0.00  0.00    +0.000 OA
ENDBRANCH  24  27
ENDBRANCH   1  24
BRANCH   9  28
ATOM     28  C   UNL     1       0.980  11.079  18.347  0.00  0.00    +0.000 C 
BRANCH  28  29
ATOM     29  C   UNL     1       1.466   9.709  18.774  0.00  0.00    +0.000 A 
ATOM     30  C   UNL     1       2.197   8.868  17.927  0.00  0.00    +0.000 A 
ATOM     31  C   UNL     1       2.515   7.570  18.320  0.00  0.00    +0.000 A 
ATOM     32  C   UNL     1       2.150   7.102  19.582  0.00  0.00    +0.000 A 
ATOM     33  C   UNL     1       1.500   7.954  20.466  0.00  0.00    +0.000 A 
ATOM     34  C   UNL     1       1.161   9.251  20.065  0.00  0.00    +0.000 A 
BRANCH  32  35
ATOM     35  O   UNL     1       2.427   5.778  19.794  0.00  0.00    +0.000 OA
ATOM     36  C   UNL     1       1.577   5.087  20.696  0.00  0.00    +0.000 C 
ENDBRANCH  32  35
ENDBRANCH  28  29
ENDBRANCH   9  28
TORSDOF 9
ENDMDL
MODEL 8
REMARK VINA RESULT:      -7.8      3.560     10.505
REMARK  Name = 
REMARK  11 active torsions:
REMARK  status: ('A' for Active; 'I' for Inactive)
REMARK    1  A    between atoms: C_1  and  O_2
REMARK    2  A    between atoms: O_2  and  C_3
REMARK    3  A    between atoms: C_3  and  C_5
REMARK    4  A    between atoms: C_8  and  N_9
REMARK    5  A    between atoms: C_10  and  C_12
REMARK    6  A    between atoms: C_12  and  C_13
REMARK    7  A    between atoms: C_13  and  C_14
REMARK    8  A    between atoms: N_24  and  C_25
REMARK    9  A    between atoms: C_25  and  C_26
REMARK   10  A    between atoms: C_29  and  O_30
REMARK   11  A    between atoms: O_30  and  C_31
REMARK                            x       y       z     vdW  Elec       q    Type
REMARK                         _______ _______ _______ _____ _____    ______ ____
ROOT
ATOM      1  C   UNL     1       1.075  13.184  20.281  0.00  0.00    +0.000 A 
ATOM      2  C   UNL     1       1.205  11.856  20.099  0.00  0.00    +0.000 A 
ATOM      3  C   UNL     1       0.600  10.884  21.028  0.00  0.00    +0.000 A 
ATOM      4  C   UNL     1       0.740   9.491  20.834  0.00  0.00    +0.000 A 
ATOM      5  C   UNL     1      -0.000   8.603  21.627  0.00  0.00    +0.000 A 
ATOM      6  C   UNL     1      -0.806   9.084  22.653  0.00  0.00    +0.000 A 
ATOM      7  C   UNL     1      -0.913  10.457  22.871  0.00  0.00    +0.000 A 
ATOM      8  C   UNL     1      -0.237  11.375  22.047  0.00  0.00    +0.000 A 
ATOM      9  N   UNL     1      -0.370  12.790  22.231  0.00  0.00    +0.000 N 
ATOM     10  C   UNL     1       0.366  13.700  21.480  0.00  0.00    +0.000 A 
ATOM     11  O   UNL     1       0.440  14.893  21.782  0.00  0.00    +0.000 OA
ENDROOT
BRANCH   4  12
ATOM     12  N   UNL     1       1.666   8.958  19.905  0.00  0.00    +0.000 N 
ATOM     13  C   UNL     1       1.430   8.947  18.537  0.00  0.00    +0.000 C 
ATOM     14  O   UNL     1       0.399   9.370  18.012  0.00  0.00    +0.000 OA
ATOM     15  H   UNL     1       2.632   8.880  20.209  0.00  0.00    +0.000 HD
BRANCH  13  16
ATOM     16  C   UNL     1       2.562   8.354  17.721  0.00  0.00    +0.000 C 
BRANCH  16  17
ATOM     17  C   UNL     1       3.153   7.129  18.423  0.00  0.00    +0.000 C 
BRANCH  17  18
ATOM     18  C   UNL     1       3.896   6.216  17.475  0.00  0.00    +0.000 A 
ATOM     19  C   UNL     1       3.668   4.833  17.502  0.00  0.00    +0.000 A 
ATOM     20  C   UNL     1       4.360   3.980  16.637  0.00  0.00    +0.000 A 
ATOM     21  C   UNL     1       5.290   4.500  15.739  0.00  0.00    +0.000 A 
ATOM     22  C   UNL     1       5.517   5.875  15.696  0.00  0.00    +0.000 A 
ATOM     23  C   UNL     1       4.826   6.729  16.560  0.00  0.00    +0.000 A 
ENDBRANCH  17  18
ENDBRANCH  16  17
ENDBRANCH  13  16
ENDBRANCH   4  12
BRANCH   1  24
ATOM     24  C   UNL     1       1.622  14.075  19.230  0.00  0.00    +0.000 C 
ATOM     25  O   UNL     1       0.954  14.894  18.612  0.00  0.00    +0.000 OA
BRANCH  24  27
ATOM     26  C   UNL     1       3.610  14.742  18.151  0.00  0.00    +0.000 C 
ATOM     27  O   UNL     1       2.957  13.897  19.098  0.00  0.00    +0.000 OA
ENDBRANCH  24  27
ENDBRANCH   1  24
BRANCH   9  28
ATOM     28  C   UNL     1      -1.226  13.352  23.278  0.00  0.00    +0.000 C 
BRANCH  28  29
ATOM     29  C   UNL     1      -2.715  13.272  23.008  0.00  0.00    +0.000 A 
ATOM     30  C   UNL     1      -3.669  13.243  24.032  0.00  0.00    +0.000 A 
ATOM     31  C   UNL     1      -5.017  13.046  23.740  0.00  0.00    +0.000 A 
ATOM     32  C   UNL     1      -5.443  12.918  22.420  0.00  0.00    +0.000 A 
ATOM     33  C   UNL     1      -4.521  13.031  21.387  0.00  0.00    +0.000 A 
ATOM     34  C   UNL     1      -3.163  13.208  21.680  0.00  0.00    +0.000 A 
BRANCH  32  35
ATOM     35  O   UNL     1      -6.773  12.618  22.284  0.00  0.00    +0.000 OA
ATOM     36  C   UNL     1      -7.138  11.846  21.150  0.00  0.00    +0.000 C 
ENDBRANCH  32  35
ENDBRANCH  28  29
ENDBRANCH   9  28
TORSDOF 9
ENDMDL
MODEL 9
REMARK VINA RESULT:      -7.7      3.465      7.319
REMARK  Name = 
REMARK  11 active torsions:
REMARK  status: ('A' for Active; 'I' for Inactive)
REMARK    1  A    between atoms: C_1  and  O_2
REMARK    2  A    between atoms: O_2  and  C_3
REMARK    3  A    between atoms: C_3  and  C_5
REMARK    4  A    between atoms: C_8  and  N_9
REMARK    5  A    between atoms: C_10  and  C_12
REMARK    6  A    between atoms: C_12  and  C_13
REMARK    7  A    between atoms: C_13  and  C_14
REMARK    8  A    between atoms: N_24  and  C_25
REMARK    9  A    between atoms: C_25  and  C_26
REMARK   10  A    between atoms: C_29  and  O_30
REMARK   11  A    between atoms: O_30  and  C_31
REMARK                            x       y       z     vdW  Elec       q    Type
REMARK                         _______ _______ _______ _____ _____    ______ ____
ROOT
ATOM      1  C   UNL     1      -0.817  12.550  20.690  0.00  0.00    +0.000 A 
ATOM      2  C   UNL     1      -2.038  12.425  20.137  0.00  0.00    +0.000 A 
ATOM      3  C   UNL     1      -2.255  11.641  18.908  0.00  0.00    +0.000 A 
ATOM      4  C   UNL     1      -3.539  11.513  18.330  0.00  0.00    +0.000 A 
ATOM      5  C   UNL     1      -3.737  10.612  17.273  0.00  0.00    +0.000 A 
ATOM      6  C   UNL     1      -2.662   9.908  16.742  0.00  0.00    +0.000 A 
ATOM      7  C   UNL     1      -1.387  10.065  17.285  0.00  0.00    +0.000 A 
ATOM      8  C   UNL     1      -1.171  10.908  18.389  0.00  0.00    +0.000 A 
ATOM      9  N   UNL     1       0.125  11.047  18.987  0.00  0.00    +0.000 N 
ATOM     10  C   UNL     1       0.364  11.947  20.020  0.00  0.00    +0.000 A 
ATOM     11  O   UNL     1       1.504  12.246  20.379  0.00  0.00    +0.000 OA
ENDROOT
BRANCH   4  12
ATOM     12  N   UNL     1      -4.624  12.324  18.741  0.00  0.00    +0.000 N 
ATOM     13  C   UNL     1      -5.860  11.798  19.092  0.00  0.00    +0.000 C 
ATOM     14  O   UNL     1      -6.133  10.597  19.057  0.00  0.00    +0.000 OA
ATOM     15  H   UNL     1      -4.401  13.253  19.085  0.00  0.00    +0.000 HD
BRANCH  13  16
ATOM     16  C   UNL     1      -6.872  12.839  19.527  0.00  0.00    +0.000 C 
BRANCH  16  17
ATOM     17  C   UNL     1      -7.107  12.771  21.038  0.00  0.00    +0.000 C 
BRANCH  17  18
ATOM     18  C   UNL     1      -6.047  13.503  21.828  0.00  0.00    +0.000 A 
ATOM     19  C   UNL     1      -6.053  14.903  21.890  0.00  0.00    +0.000 A 
ATOM     20  C   UNL     1      -5.070  15.588  22.609  0.00  0.00    +0.000 A 
ATOM     21  C   UNL     1      -4.067  14.881  23.269  0.00  0.00    +0.000 A 
ATOM     22  C   UNL     1      -4.056  13.487  23.222  0.00  0.00    +0.000 A 
ATOM     23  C   UNL     1      -5.039  12.801  22.504  0.00  0.00    +0.000 A 
ENDBRANCH  17  18
ENDBRANCH  16  17
ENDBRANCH  13  16
ENDBRANCH   4  12
BRANCH   1  24
ATOM     24  C   UNL     1      -0.723  13.263  21.987  0.00  0.00    +0.000 C 
ATOM     25  O   UNL     1      -0.547  12.704  23.062  0.00  0.00    +0.000 OA
BRANCH  24  27
ATOM     26  C   UNL     1      -0.390  15.407  22.911  0.00  0.00    +0.000 C 
ATOM     27  O   UNL     1      -0.798  14.601  21.805  0.00  0.00    +0.000 OA
ENDBRANCH  24  27
ENDBRANCH   1  24
BRANCH   9  28
ATOM     28  C   UNL     1       1.286  10.310  18.485  0.00  0.00    +0.000 C 
BRANCH  28  29
ATOM     29  C   UNL     1       1.561   8.988  19.174  0.00  0.00    +0.000 A 
ATOM     30  C   UNL     1       2.258   7.944  18.557  0.00  0.00    +0.000 A 
ATOM     31  C   UNL     1       2.380   6.705  19.183  0.00  0.00    +0.000 A 
ATOM     32  C   UNL     1       1.847   6.500  20.454  0.00  0.00    +0.000 A 
ATOM     33  C   UNL     1       1.227   7.552  21.116  0.00  0.00    +0.000 A 
ATOM     34  C   UNL     1       1.085   8.791  20.480  0.00  0.00    +0.000 A 
BRANCH  32  35
ATOM     35  O   UNL     1       1.941   5.209  20.903  0.00  0.00    +0.000 OA
ATOM     36  C   UNL     1       1.317   4.213  20.107  0.00  0.00    +0.000 C 
ENDBRANCH  32  35
ENDBRANCH  28  29
ENDBRANCH   9  28
TORSDOF 9
ENDMDL
