MODEL 1
REMARK VINA RESULT:      -7.4      0.000      0.000
REMARK  Name = 
REMARK  6 active torsions:
REMARK  status: ('A' for Active; 'I' for Inactive)
REMARK    1  A    between atoms: N_1  and  C_2
REMARK    2  A    between atoms: C_5  and  C_6
REMARK    3  A    between atoms: C_6  and  C_7
REMARK    4  A    between atoms: C_12  and  O_13
REMARK    5  A    between atoms: O_13  and  C_14
REMARK    6  A    between atoms: C_14  and  C_15
REMARK                            x       y       z     vdW  Elec       q    Type
REMARK                         _______ _______ _______ _____ _____    ______ ____
ROOT
ATOM      1  C   UNL     1       7.416   6.996  18.103  0.00  0.00    +0.000 C 
ATOM      2  O   UNL     1       8.163   6.518  18.962  0.00  0.00    +0.000 OA
ATOM      3  N   UNL     1       6.108   6.548  17.933  0.00  0.00    +0.000 N 
ATOM      4  C   UNL     1       5.567   5.565  18.871  0.00  0.00    +0.000 C 
ATOM      5  C   UNL     1       5.565   4.176  18.239  0.00  0.00    +0.000 C 
ATOM      6  C   UNL     1       4.776   4.188  16.915  0.00  0.00    +0.000 C 
ATOM      7  C   UNL     1       5.389   5.251  15.988  0.00  0.00    +0.000 C 
ATOM      8  C   UNL     1       5.389   6.625  16.664  0.00  0.00    +0.000 C 
ENDROOT
BRANCH   1   9
ATOM      9  C   UNL     1       7.878   8.169  17.254  0.00  0.00    +0.000 C 
BRANCH   9  13
ATOM     10  C   UNL     1       9.350  11.664  19.375  0.00  0.00    +0.000 A 
ATOM     11  C   UNL     1       9.544  10.377  19.871  0.00  0.00    +0.000 A 
ATOM     12  C   UNL     1       9.028   9.264  19.198  0.00  0.00    +0.000 A 
ATOM     13  C   UNL     1       8.329   9.411  17.988  0.00  0.00    +0.000 A 
ATOM     14  C   UNL     1       8.195  10.696  17.457  0.00  0.00    +0.000 A 
ATOM     15  C   UNL     1       8.714  11.806  18.139  0.00  0.00    +0.000 A 
BRANCH  10  16
ATOM     16  N   UNL     1       9.995  12.753  19.976  0.00  0.00    +0.000 N 
ATOM     17  H   UNL     1       9.365  13.486  20.280  0.00  0.00    +0.000 HD
ATOM     18  H   UNL     1      10.779  13.109  19.438  0.00  0.00    +0.000 HD
ENDBRANCH  10  16
ENDBRANCH   9  13
ENDBRANCH   1   9
BRANCH   6  19
ATOM     19  O   UNL     1       3.393   4.454  17.203  0.00  0.00    +0.000 OA
BRANCH  19  20
ATOM     20  C   UNL     1       2.579   3.280  17.260  0.00  0.00    +0.000 C 
BRANCH  20  21
ATOM     21  C   UNL     1       1.649   3.342  18.465  0.00  0.00    +0.000 C 
ATOM     22  C   UNL     1       1.980   2.300  19.532  0.00  0.00    +0.000 C 
ATOM     23  C   UNL     1       1.275   2.819  20.776  0.00  0.00    +0.000 C 
ATOM     24  C   UNL     1       1.241   4.341  20.634  0.00  0.00    +0.000 C 
ATOM     25  C   UNL     1       1.777   4.654  19.239  0.00  0.00    +0.000 C 
ENDBRANCH  20  21
ENDBRANCH  19  20
ENDBRANCH   6  19
TORSDOF 6
ENDMDL
MODEL 2
REMARK VINA RESULT:      -7.4      3.785      5.862
REMARK  Name = 
REMARK  6 active torsions:
REMARK  status: ('A' for Active; 'I' for Inactive)
REMARK    1  A    between atoms: N_1  and  C_2
REMARK    2  A    between atoms: C_5  and  C_6
REMARK    3  A    between atoms: C_6  and  C_7
REMARK    4  A    between atoms: C_12  and  O_13
REMARK    5  A    between atoms: O_13  and  C_14
REMARK    6  A    between atoms: C_14  and  C_15
REMARK                            x       y       z     vdW  Elec       q    Type
REMARK                         _______ _______ _______ _____ _____    ______ ____
ROOT
ATOM      1  C   UNL     1       7.278   5.089  16.823  0.00  0.00    +0.000 C 
ATOM      2  O   UNL     1       8.063   4.209  17.185  0.00  0.00    +0.000 OA
ATOM      3  N   UNL     1       6.325   5.627  17.685  0.00  0.00    +0.000 N 
ATOM      4  C   UNL     1       6.331   5.221  19.090  0.00  0.00    +0.000 C 
ATOM      5  C   UNL     1       5.223   4.204  19.350  0.00  0.00    +0.000 C 
ATOM      6  C   UNL     1       3.855   4.779  18.933  0.00  0.00    +0.000 C 
ATOM      7  C   UNL     1       3.929   5.197  17.455  0.00  0.00    +0.000 C 
ATOM      8  C   UNL     1       5.062   6.203  17.231  0.00  0.00    +0.000 C 
ENDROOT
BRANCH   1   9
ATOM      9  C   UNL     1       7.389   5.687  15.429  0.00  0.00    +0.000 C 
BRANCH   9  13
ATOM     10  C   UNL     1       5.807   3.314  12.152  0.00  0.00    +0.000 A 
ATOM     11  C   UNL     1       7.039   3.958  12.056  0.00  0.00    +0.000 A 
ATOM     12  C   UNL     1       7.516   4.752  13.104  0.00  0.00    +0.000 A 
ATOM     13  C   UNL     1       6.783   4.897  14.293  0.00  0.00    +0.000 A 
ATOM     14  C   UNL     1       5.580   4.196  14.415  0.00  0.00    +0.000 A 
ATOM     15  C   UNL     1       5.109   3.403  13.358  0.00  0.00    +0.000 A 
BRANCH  10  16
ATOM     16  N   UNL     1       5.409   2.406  11.161  0.00  0.00    +0.000 N 
ATOM     17  H   UNL     1       4.861   1.630  11.512  0.00  0.00    +0.000 HD
ATOM     18  H   UNL     1       6.168   2.107  10.556  0.00  0.00    +0.000 HD
ENDBRANCH  10  16
ENDBRANCH   9  13
ENDBRANCH   1   9
BRANCH   6  19
ATOM     19  O   UNL     1       3.537   5.885  19.793  0.00  0.00    +0.000 OA
BRANCH  19  20
ATOM     20  C   UNL     1       2.135   6.142  19.909  0.00  0.00    +0.000 C 
BRANCH  20  21
ATOM     21  C   UNL     1       1.427   4.940  20.522  0.00  0.00    +0.000 C 
ATOM     22  C   UNL     1       1.131   3.838  19.507  0.00  0.00    +0.000 C 
ATOM     23  C   UNL     1       0.869   2.612  20.371  0.00  0.00    +0.000 C 
ATOM     24  C   UNL     1       1.700   2.807  21.638  0.00  0.00    +0.000 C 
ATOM     25  C   UNL     1       2.292   4.212  21.552  0.00  0.00    +0.000 C 
ENDBRANCH  20  21
ENDBRANCH  19  20
ENDBRANCH   6  19
TORSDOF 6
ENDMDL
MODEL 3
REMARK VINA RESULT:      -7.3      3.983      6.420
REMARK  Name = 
REMARK  6 active torsions:
REMARK  status: ('A' for Active; 'I' for Inactive)
REMARK    1  A    between atoms: N_1  and  C_2
REMARK    2  A    between atoms: C_5  and  C_6
REMARK    3  A    between atoms: C_6  and  C_7
REMARK    4  A    between atoms: C_12  and  O_13
REMARK    5  A    between atoms: O_13  and  C_14
REMARK    6  A    between atoms: C_14  and  C_15
REMARK                            x       y       z     vdW  Elec       q    Type
REMARK                         _______ _______ _______ _____ _____    ______ ____
ROOT
ATOM      1  C   UNL     1       7.181   5.130  16.775  0.00  0.00    +0.000 C 
ATOM      2  O   UNL     1       7.983   4.259  17.120  0.00  0.00    +0.000 OA
ATOM      3  N   UNL     1       6.245   5.663  17.658  0.00  0.00    +0.000 N 
ATOM      4  C   UNL     1       6.289   5.263  19.064  0.00  0.00    +0.000 C 
ATOM      5  C   UNL     1       5.198   4.236  19.356  0.00  0.00    +0.000 C 
ATOM      6  C   UNL     1       3.814   4.796  18.971  0.00  0.00    +0.000 C 
ATOM      7  C   UNL     1       3.848   5.209  17.490  0.00  0.00    +0.000 C 
ATOM      8  C   UNL     1       4.965   6.224  17.234  0.00  0.00    +0.000 C 
ENDROOT
BRANCH   1   9
ATOM      9  C   UNL     1       7.252   5.724  15.376  0.00  0.00    +0.000 C 
BRANCH   9  13
ATOM     10  C   UNL     1       5.812   3.212  12.137  0.00  0.00    +0.000 A 
ATOM     11  C   UNL     1       7.071   3.806  12.093  0.00  0.00    +0.000 A 
ATOM     12  C   UNL     1       7.504   4.646  13.124  0.00  0.00    +0.000 A 
ATOM     13  C   UNL     1       6.696   4.887  14.247  0.00  0.00    +0.000 A 
ATOM     14  C   UNL     1       5.462   4.236  14.323  0.00  0.00    +0.000 A 
ATOM     15  C   UNL     1       5.035   3.396  13.283  0.00  0.00    +0.000 A 
BRANCH  10  16
ATOM     16  N   UNL     1       5.450   2.259  11.174  0.00  0.00    +0.000 N 
ATOM     17  H   UNL     1       4.479   2.312  10.891  0.00  0.00    +0.000 HD
ATOM     18  H   UNL     1       5.738   1.315  11.409  0.00  0.00    +0.000 HD
ENDBRANCH  10  16
ENDBRANCH   9  13
ENDBRANCH   1   9
BRANCH   6  19
ATOM     19  O   UNL     1       3.507   5.903  19.834  0.00  0.00    +0.000 OA
BRANCH  19  20
ATOM     20  C   UNL     1       2.179   6.409  19.675  0.00  0.00    +0.000 C 
BRANCH  20  21
ATOM     21  C   UNL     1       2.213   7.911  19.426  0.00  0.00    +0.000 C 
ATOM     22  C   UNL     1       1.897   8.287  17.979  0.00  0.00    +0.000 C 
ATOM     23  C   UNL     1       1.540   9.764  18.059  0.00  0.00    +0.000 C 
ATOM     24  C   UNL     1       0.949   9.978  19.452  0.00  0.00    +0.000 C 
ATOM     25  C   UNL     1       1.130   8.660  20.202  0.00  0.00    +0.000 C 
ENDBRANCH  20  21
ENDBRANCH  19  20
ENDBRANCH   6  19
TORSDOF 6
ENDMDL
MODEL 4
REMARK VINA RESULT:      -7.3      3.767      5.817
REMARK  Name = 
REMARK  6 active torsions:
REMARK  status: ('A' for Active; 'I' for Inactive)
REMARK    1  A    between atoms: N_1  and  C_2
REMARK    2  A    between atoms: C_5  and  C_6
REMARK    3  A    between atoms: C_6  and  C_7
REMARK    4  A    between atoms: C_12  and  O_13
REMARK    5  A    between atoms: O_13  and  C_14
REMARK    6  A    between atoms: C_14  and  C_15
REMARK                            x       y       z     vdW  Elec       q    Type
REMARK                         _______ _______ _______ _____ _____    ______ ____
ROOT
ATOM      1  C   UNL     1       7.288   5.116  16.851  0.00  0.00    +0.000 C 
ATOM      2  O   UNL     1       8.077   4.250  17.238  0.00  0.00    +0.000 OA
ATOM      3  N   UNL     1       6.321   5.661  17.692  0.00  0.00    +0.000 N 
ATOM      4  C   UNL     1       6.312   5.280  19.104  0.00  0.00    +0.000 C 
ATOM      5  C   UNL     1       5.211   4.257  19.368  0.00  0.00    +0.000 C 
ATOM      6  C   UNL     1       3.842   4.812  18.925  0.00  0.00    +0.000 C 
ATOM      7  C   UNL     1       3.931   5.205  17.441  0.00  0.00    +0.000 C 
ATOM      8  C   UNL     1       5.058   6.217  17.213  0.00  0.00    +0.000 C 
ENDROOT
BRANCH   1   9
ATOM      9  C   UNL     1       7.411   5.691  15.449  0.00  0.00    +0.000 C 
BRANCH   9  13
ATOM     10  C   UNL     1       5.811   3.303  12.191  0.00  0.00    +0.000 A 
ATOM     11  C   UNL     1       5.172   3.370  13.427  0.00  0.00    +0.000 A 
ATOM     12  C   UNL     1       5.721   4.110  14.479  0.00  0.00    +0.000 A 
ATOM     13  C   UNL     1       6.914   4.831  14.309  0.00  0.00    +0.000 A 
ATOM     14  C   UNL     1       7.518   4.819  13.050  0.00  0.00    +0.000 A 
ATOM     15  C   UNL     1       6.960   4.074  12.000  0.00  0.00    +0.000 A 
BRANCH  10  16
ATOM     16  N   UNL     1       5.178   2.684  11.104  0.00  0.00    +0.000 N 
ATOM     17  H   UNL     1       5.667   1.868  10.756  0.00  0.00    +0.000 HD
ATOM     18  H   UNL     1       4.915   3.328  10.365  0.00  0.00    +0.000 HD
ENDBRANCH  10  16
ENDBRANCH   9  13
ENDBRANCH   1   9
BRANCH   6  19
ATOM     19  O   UNL     1       3.504   5.930  19.761  0.00  0.00    +0.000 OA
BRANCH  19  20
ATOM     20  C   UNL     1       2.097   6.152  19.887  0.00  0.00    +0.000 C 
BRANCH  20  21
ATOM     21  C   UNL     1       1.429   4.946  20.536  0.00  0.00    +0.000 C 
ATOM     22  C   UNL     1       1.112   3.830  19.543  0.00  0.00    +0.000 C 
ATOM     23  C   UNL     1       0.899   2.609  20.426  0.00  0.00    +0.000 C 
ATOM     24  C   UNL     1       1.773   2.827  21.661  0.00  0.00    +0.000 C 
ATOM     25  C   UNL     1       2.341   4.240  21.540  0.00  0.00    +0.000 C 
ENDBRANCH  20  21
ENDBRANCH  19  20
ENDBRANCH   6  19
TORSDOF 6
ENDMDL
MODEL 5
REMARK VINA RESULT:      -7.3      4.084      6.556
REMARK  Name = 
REMARK  6 active torsions:
REMARK  status: ('A' for Active; 'I' for Inactive)
REMARK    1  A    between atoms: N_1  and  C_2
REMARK    2  A    between atoms: C_5  and  C_6
REMARK    3  A    between atoms: C_6  and  C_7
REMARK    4  A    between atoms: C_12  and  O_13
REMARK    5  A    between atoms: O_13  and  C_14
REMARK    6  A    between atoms: C_14  and  C_15
REMARK                            x       y       z     vdW  Elec       q    Type
REMARK                         _______ _______ _______ _____ _____    ______ ____
ROOT
ATOM      1  C   UNL     1       4.221   5.287  18.917  0.00  0.00    +0.000 C 
ATOM      2  O   UNL     1       4.789   5.455  19.999  0.00  0.00    +0.000 OA
ATOM      3  N   UNL     1       4.888   4.774  17.806  0.00  0.00    +0.000 N 
ATOM      4  C   UNL     1       6.268   4.314  17.958  0.00  0.00    +0.000 C 
ATOM      5  C   UNL     1       7.235   5.353  17.400  0.00  0.00    +0.000 C 
ATOM      6  C   UNL     1       6.902   5.664  15.927  0.00  0.00    +0.000 C 
ATOM      7  C   UNL     1       5.438   6.125  15.843  0.00  0.00    +0.000 C 
ATOM      8  C   UNL     1       4.500   5.065  16.428  0.00  0.00    +0.000 C 
ENDROOT
BRANCH   1   9
ATOM      9  C   UNL     1       2.730   5.553  18.786  0.00  0.00    +0.000 C 
BRANCH   9  13
ATOM     10  C   UNL     1       1.282   9.628  19.213  0.00  0.00    +0.000 A 
ATOM     11  C   UNL     1       1.750   9.145  17.992  0.00  0.00    +0.000 A 
ATOM     12  C   UNL     1       2.251   7.844  17.880  0.00  0.00    +0.000 A 
ATOM     13  C   UNL     1       2.267   6.978  18.986  0.00  0.00    +0.000 A 
ATOM     14  C   UNL     1       1.736   7.440  20.192  0.00  0.00    +0.000 A 
ATOM     15  C   UNL     1       1.236   8.747  20.296  0.00  0.00    +0.000 A 
BRANCH  10  16
ATOM     16  N   UNL     1       0.648  10.876  19.280  0.00  0.00    +0.000 N 
ATOM     17  H   UNL     1      -0.061  10.937  20.000  0.00  0.00    +0.000 HD
ATOM     18  H   UNL     1       0.323  11.215  18.380  0.00  0.00    +0.000 HD
ENDBRANCH  10  16
ENDBRANCH   9  13
ENDBRANCH   1   9
BRANCH   6  19
ATOM     19  O   UNL     1       7.144   4.486  15.140  0.00  0.00    +0.000 OA
BRANCH  19  20
ATOM     20  C   UNL     1       6.972   4.686  13.734  0.00  0.00    +0.000 C 
BRANCH  20  21
ATOM     21  C   UNL     1       6.123   3.566  13.143  0.00  0.00    +0.000 C 
ATOM     22  C   UNL     1       4.868   4.075  12.437  0.00  0.00    +0.000 C 
ATOM     23  C   UNL     1       4.443   2.902  11.565  0.00  0.00    +0.000 C 
ATOM     24  C   UNL     1       5.729   2.152  11.216  0.00  0.00    +0.000 C 
ATOM     25  C   UNL     1       6.843   2.810  12.027  0.00  0.00    +0.000 C 
ENDBRANCH  20  21
ENDBRANCH  19  20
ENDBRANCH   6  19
TORSDOF 6
ENDMDL
MODEL 6
REMARK VINA RESULT:      -7.3      0.203      1.019
REMARK  Name = 
REMARK  6 active torsions:
REMARK  status: ('A' for Active; 'I' for Inactive)
REMARK    1  A    between atoms: N_1  and  C_2
REMARK    2  A    between atoms: C_5  and  C_6
REMARK    3  A    between atoms: C_6  and  C_7
REMARK    4  A    between atoms: C_12  and  O_13
REMARK    5  A    between atoms: O_13  and  C_14
REMARK    6  A    between atoms: C_14  and  C_15
REMARK                            x       y       z     vdW  Elec       q    Type
REMARK                         _______ _______ _______ _____ _____    ______ ____
ROOT
ATOM      1  C   UNL     1       7.454   7.139  18.055  0.00  0.00    +0.000 C 
ATOM      2  O   UNL     1       8.239   6.643  18.868  0.00  0.00    +0.000 OA
ATOM      3  N   UNL     1       6.160   6.650  17.888  0.00  0.00    +0.000 N 
ATOM      4  C   UNL     1       5.680   5.595  18.779  0.00  0.00    +0.000 C 
ATOM      5  C   UNL     1       5.717   4.245  18.068  0.00  0.00    +0.000 C 
ATOM      6  C   UNL     1       4.896   4.300  16.764  0.00  0.00    +0.000 C 
ATOM      7  C   UNL     1       5.445   5.438  15.888  0.00  0.00    +0.000 C 
ATOM      8  C   UNL     1       5.409   6.770  16.641  0.00  0.00    +0.000 C 
ENDROOT
BRANCH   1   9
ATOM      9  C   UNL     1       7.850   8.376  17.265  0.00  0.00    +0.000 C 
BRANCH   9  13
ATOM     10  C   UNL     1       9.447  11.754  19.484  0.00  0.00    +0.000 A 
ATOM     11  C   UNL     1       8.833  11.921  18.244  0.00  0.00    +0.000 A 
ATOM     12  C   UNL     1       8.361  10.820  17.523  0.00  0.00    +0.000 A 
ATOM     13  C   UNL     1       8.463   9.519  18.042  0.00  0.00    +0.000 A 
ATOM     14  C   UNL     1       9.017   9.359  19.315  0.00  0.00    +0.000 A 
ATOM     15  C   UNL     1       9.489  10.469  20.030  0.00  0.00    +0.000 A 
BRANCH  10  16
ATOM     16  N   UNL     1       9.780  12.872  20.260  0.00  0.00    +0.000 N 
ATOM     17  H   UNL     1       8.981  13.339  20.671  0.00  0.00    +0.000 HD
ATOM     18  H   UNL     1      10.413  13.516  19.794  0.00  0.00    +0.000 HD
ENDBRANCH  10  16
ENDBRANCH   9  13
ENDBRANCH   1   9
BRANCH   6  19
ATOM     19  O   UNL     1       3.512   4.495  17.097  0.00  0.00    +0.000 OA
BRANCH  19  20
ATOM     20  C   UNL     1       2.794   3.277  17.319  0.00  0.00    +0.000 C 
BRANCH  20  21
ATOM     21  C   UNL     1       1.774   3.463  18.436  0.00  0.00    +0.000 C 
ATOM     22  C   UNL     1       1.853   2.375  19.506  0.00  0.00    +0.000 C 
ATOM     23  C   UNL     1       1.116   2.981  20.692  0.00  0.00    +0.000 C 
ATOM     24  C   UNL     1       1.312   4.493  20.580  0.00  0.00    +0.000 C 
ATOM     25  C   UNL     1       2.015   4.737  19.246  0.00  0.00    +0.000 C 
ENDBRANCH  20  21
ENDBRANCH  19  20
ENDBRANCH   6  19
TORSDOF 6
ENDMDL
MODEL 7
REMARK VINA RESULT:      -7.1      4.089      6.698
REMARK  Name = 
REMARK  6 active torsions:
REMARK  status: ('A' for Active; 'I' for Inactive)
REMARK    1  A    between atoms: N_1  and  C_2
REMARK    2  A    between atoms: C_5  and  C_6
REMARK    3  A    between atoms: C_6  and  C_7
REMARK    4  A    between atoms: C_12  and  O_13
REMARK    5  A    between atoms: O_13  and  C_14
REMARK    6  A    between atoms: C_14  and  C_15
REMARK                            x       y       z     vdW  Elec       q    Type
REMARK                         _______ _______ _______ _____ _____    ______ ____
ROOT
ATOM      1  C   UNL     1       5.331   4.833  18.895  0.00  0.00    +0.000 C 
ATOM      2  O   UNL     1       6.163   5.269  19.696  0.00  0.00    +0.000 OA
ATOM      3  N   UNL     1       5.692   4.390  17.625  0.00  0.00    +0.000 N 
ATOM      4  C   UNL     1       7.110   4.332  17.271  0.00  0.00    +0.000 C 
ATOM      5  C   UNL     1       7.482   5.519  16.386  0.00  0.00    +0.000 C 
ATOM      6  C   UNL     1       6.587   5.558  15.132  0.00  0.00    +0.000 C 
ATOM      7  C   UNL     1       5.117   5.602  15.580  0.00  0.00    +0.000 C 
ATOM      8  C   UNL     1       4.787   4.406  16.479  0.00  0.00    +0.000 C 
ENDROOT
BRANCH   1   9
ATOM      9  C   UNL     1       3.877   4.678  19.312  0.00  0.00    +0.000 C 
BRANCH   9  13
ATOM     10  C   UNL     1       1.538   8.329  19.586  0.00  0.00    +0.000 A 
ATOM     11  C   UNL     1       1.551   7.394  20.618  0.00  0.00    +0.000 A 
ATOM     12  C   UNL     1       2.276   6.203  20.498  0.00  0.00    +0.000 A 
ATOM     13  C   UNL     1       3.037   5.933  19.349  0.00  0.00    +0.000 A 
ATOM     14  C   UNL     1       3.078   6.902  18.343  0.00  0.00    +0.000 A 
ATOM     15  C   UNL     1       2.346   8.092  18.471  0.00  0.00    +0.000 A 
BRANCH  10  16
ATOM     16  N   UNL     1       0.932   9.578  19.776  0.00  0.00    +0.000 N 
ATOM     17  H   UNL     1       1.588  10.345  19.857  0.00  0.00    +0.000 HD
ATOM     18  H   UNL     1       0.232   9.582  20.512  0.00  0.00    +0.000 HD
ENDBRANCH  10  16
ENDBRANCH   9  13
ENDBRANCH   1   9
BRANCH   6  19
ATOM     19  O   UNL     1       6.872   4.404  14.324  0.00  0.00    +0.000 OA
BRANCH  19  20
ATOM     20  C   UNL     1       7.441   4.716  13.050  0.00  0.00    +0.000 C 
BRANCH  20  21
ATOM     21  C   UNL     1       6.795   3.867  11.962  0.00  0.00    +0.000 C 
ATOM     22  C   UNL     1       7.550   2.567  11.690  0.00  0.00    +0.000 C 
ATOM     23  C   UNL     1       6.533   1.706  10.954  0.00  0.00    +0.000 C 
ATOM     24  C   UNL     1       5.162   2.148  11.464  0.00  0.00    +0.000 C 
ATOM     25  C   UNL     1       5.407   3.363  12.357  0.00  0.00    +0.000 C 
ENDBRANCH  20  21
ENDBRANCH  19  20
ENDBRANCH   6  19
TORSDOF 6
ENDMDL
MODEL 8
REMARK VINA RESULT:      -7.1      1.530      2.298
REMARK  Name = 
REMARK  6 active torsions:
REMARK  status: ('A' for Active; 'I' for Inactive)
REMARK    1  A    between atoms: N_1  and  C_2
REMARK    2  A    between atoms: C_5  and  C_6
REMARK    3  A    between atoms: C_6  and  C_7
REMARK    4  A    between atoms: C_12  and  O_13
REMARK    5  A    between atoms: O_13  and  C_14
REMARK    6  A    between atoms: C_14  and  C_15
REMARK                            x       y       z     vdW  Elec       q    Type
REMARK                         _______ _______ _______ _____ _____    ______ ____
ROOT
ATOM      1  C   UNL     1       7.733   8.531  17.909  0.00  0.00    +0.000 C 
ATOM      2  O   UNL     1       7.079   9.475  17.457  0.00  0.00    +0.000 OA
ATOM      3  N   UNL     1       7.397   7.206  17.640  0.00  0.00    +0.000 N 
ATOM      4  C   UNL     1       6.310   6.926  16.703  0.00  0.00    +0.000 C 
ATOM      5  C   UNL     1       5.044   6.540  17.464  0.00  0.00    +0.000 C 
ATOM      6  C   UNL     1       5.317   5.337  18.389  0.00  0.00    +0.000 C 
ATOM      7  C   UNL     1       6.478   5.698  19.331  0.00  0.00    +0.000 C 
ATOM      8  C   UNL     1       7.722   6.096  18.532  0.00  0.00    +0.000 C 
ENDROOT
BRANCH   1   9
ATOM      9  C   UNL     1       8.999   8.792  18.710  0.00  0.00    +0.000 C 
BRANCH   9  13
ATOM     10  C   UNL     1      10.114  12.881  19.665  0.00  0.00    +0.000 A 
ATOM     11  C   UNL     1       9.706  11.988  20.653  0.00  0.00    +0.000 A 
ATOM     12  C   UNL     1       9.311  10.687  20.325  0.00  0.00    +0.000 A 
ATOM     13  C   UNL     1       9.344  10.235  18.996  0.00  0.00    +0.000 A 
ATOM     14  C   UNL     1       9.817  11.110  18.015  0.00  0.00    +0.000 A 
ATOM     15  C   UNL     1      10.211  12.413  18.353  0.00  0.00    +0.000 A 
BRANCH  10  16
ATOM     16  N   UNL     1      10.646  14.128  20.020  0.00  0.00    +0.000 N 
ATOM     17  H   UNL     1      10.343  14.888  19.424  0.00  0.00    +0.000 HD
ATOM     18  H   UNL     1      11.652  14.116  20.158  0.00  0.00    +0.000 HD
ENDBRANCH  10  16
ENDBRANCH   9  13
ENDBRANCH   1   9
BRANCH   6  19
ATOM     19  O   UNL     1       5.615   4.189  17.579  0.00  0.00    +0.000 OA
BRANCH  19  20
ATOM     20  C   UNL     1       4.460   3.571  17.006  0.00  0.00    +0.000 C 
BRANCH  20  21
ATOM     21  C   UNL     1       3.381   3.384  18.066  0.00  0.00    +0.000 C 
ATOM     22  C   UNL     1       2.001   3.847  17.604  0.00  0.00    +0.000 C 
ATOM     23  C   UNL     1       1.048   3.172  18.580  0.00  0.00    +0.000 C 
ATOM     24  C   UNL     1       1.736   1.876  19.009  0.00  0.00    +0.000 C 
ATOM     25  C   UNL     1       3.137   1.912  18.401  0.00  0.00    +0.000 C 
ENDBRANCH  20  21
ENDBRANCH  19  20
ENDBRANCH   6  19
TORSDOF 6
ENDMDL
MODEL 9
REMARK VINA RESULT:      -7.0      2.303      8.238
REMARK  Name = 
REMARK  6 active torsions:
REMARK  status: ('A' for Active; 'I' for Inactive)
REMARK    1  A    between atoms: N_1  and  C_2
REMARK    2  A    between atoms: C_5  and  C_6
REMARK    3  A    between atoms: C_6  and  C_7
REMARK    4  A    between atoms: C_12  and  O_13
REMARK    5  A    between atoms: O_13  and  C_14
REMARK    6  A    between atoms: C_14  and  C_15
REMARK                            x       y       z     vdW  Elec       q    Type
REMARK                         _______ _______ _______ _____ _____    ______ ____
ROOT
ATOM      1  C   UNL     1       4.319   3.938  16.781  0.00  0.00    +0.000 C 
ATOM      2  O   UNL     1       4.732   2.787  16.615  0.00  0.00    +0.000 OA
ATOM      3  N   UNL     1       5.147   5.048  16.632  0.00  0.00    +0.000 N 
ATOM      4  C   UNL     1       6.515   4.852  16.152  0.00  0.00    +0.000 C 
ATOM      5  C   UNL     1       7.499   4.934  17.316  0.00  0.00    +0.000 C 
ATOM      6  C   UNL     1       7.346   6.277  18.057  0.00  0.00    +0.000 C 
ATOM      7  C   UNL     1       5.886   6.420  18.516  0.00  0.00    +0.000 C 
ATOM      8  C   UNL     1       4.929   6.315  17.325  0.00  0.00    +0.000 C 
ENDROOT
BRANCH   1   9
ATOM      9  C   UNL     1       2.846   4.187  17.069  0.00  0.00    +0.000 C 
BRANCH   9  13
ATOM     10  C   UNL     1       1.532   3.032  21.046  0.00  0.00    +0.000 A 
ATOM     11  C   UNL     1       1.516   2.131  19.983  0.00  0.00    +0.000 A 
ATOM     12  C   UNL     1       1.903   2.530  18.699  0.00  0.00    +0.000 A 
ATOM     13  C   UNL     1       2.349   3.838  18.452  0.00  0.00    +0.000 A 
ATOM     14  C   UNL     1       2.429   4.721  19.532  0.00  0.00    +0.000 A 
ATOM     15  C   UNL     1       2.038   4.314  20.816  0.00  0.00    +0.000 A 
BRANCH  10  16
ATOM     16  N   UNL     1       1.285   2.585  22.351  0.00  0.00    +0.000 N 
ATOM     17  H   UNL     1       0.320   2.683  22.642  0.00  0.00    +0.000 HD
ATOM     18  H   UNL     1       1.940   2.950  23.036  0.00  0.00    +0.000 HD
ENDBRANCH  10  16
ENDBRANCH   9  13
ENDBRANCH   1   9
BRANCH   6  19
ATOM     19  O   UNL     1       7.743   7.340  17.175  0.00  0.00    +0.000 OA
BRANCH  19  20
ATOM     20  C   UNL     1       7.321   8.636  17.606  0.00  0.00    +0.000 C 
BRANCH  20  21
ATOM     21  C   UNL     1       8.529   9.541  17.814  0.00  0.00    +0.000 C 
ATOM     22  C   UNL     1       8.202  11.024  17.645  0.00  0.00    +0.000 C 
ATOM     23  C   UNL     1       9.368  11.730  18.322  0.00  0.00    +0.000 C 
ATOM     24  C   UNL     1       9.852  10.783  19.419  0.00  0.00    +0.000 C 
ATOM     25  C   UNL     1       9.065   9.486  19.244  0.00  0.00    +0.000 C 
ENDBRANCH  20  21
ENDBRANCH  19  20
ENDBRANCH   6  19
TORSDOF 6
ENDMDL
