MODEL 1
REMARK VINA RESULT:      -8.3      0.000      0.000
REMARK  Name = 
REMARK  6 active torsions:
REMARK  status: ('A' for Active; 'I' for Inactive)
REMARK    1  A    between atoms: C_2  and  C_5
REMARK    2  A    between atoms: C_9  and  N_10
REMARK    3  A    between atoms: N_13  and  C_14
REMARK    4  A    between atoms: C_14  and  C_15
REMARK    5  A    between atoms: C_15  and  C_16
REMARK    6  A    between atoms: C_16  and  N_17
REMARK                            x       y       z     vdW  Elec       q    Type
REMARK                         _______ _______ _______ _____ _____    ______ ____
ROOT
ATOM      1  N   UNL     1       4.894   5.465  18.103  0.00  0.00    +0.000 N 
ATOM      2  C   UNL     1       6.013   5.774  19.005  0.00  0.00    +0.000 C 
ATOM      3  C   UNL     1       7.372   5.651  18.284  0.00  0.00    +0.000 C 
ATOM      4  N   UNL     1       7.475   6.441  17.031  0.00  0.00    +0.000 NA
ATOM      5  C   UNL     1       6.374   5.977  16.147  0.00  0.00    +0.000 C 
ATOM      6  C   UNL     1       4.951   6.074  16.758  0.00  0.00    +0.000 C 
ENDROOT
BRANCH   1  11
ATOM      7  C   UNL     1       2.182   3.218  19.334  0.00  0.00    +0.000 A 
ATOM      8  C   UNL     1       2.475   2.056  18.613  0.00  0.00    +0.000 A 
ATOM      9  C   UNL     1       3.555   2.035  17.735  0.00  0.00    +0.000 A 
ATOM     10  C   UNL     1       4.347   3.173  17.581  0.00  0.00    +0.000 A 
ATOM     11  C   UNL     1       4.086   4.356  18.288  0.00  0.00    +0.000 A 
ATOM     12  C   UNL     1       2.992   4.358  19.154  0.00  0.00    +0.000 A 
BRANCH   7  14
ATOM     13  F   UNL     1      -0.123   2.736  19.812  0.00  0.00    +0.000 F 
ATOM     14  C   UNL     1       1.030   3.274  20.302  0.00  0.00    +0.000 C 
ATOM     15  F   UNL     1       0.719   4.547  20.671  0.00  0.00    +0.000 F 
ATOM     16  F   UNL     1       1.288   2.605  21.460  0.00  0.00    +0.000 F 
ENDBRANCH   7  14
ENDBRANCH   1  11
BRANCH   4  17
ATOM     17  C   UNL     1       7.370   7.900  17.258  0.00  0.00    +0.000 C 
BRANCH  17  18
ATOM     18  C   UNL     1       8.373   8.412  18.298  0.00  0.00    +0.000 C 
BRANCH  18  19
ATOM     19  C   UNL     1       8.631   9.922  18.203  0.00  0.00    +0.000 C 
BRANCH  19  20
ATOM     20  N   UNL     1       9.812  10.396  18.946  0.00  0.00    +0.000 NA
ATOM     21  C   UNL     1      10.300  11.708  18.442  0.00  0.00    +0.000 C 
ATOM     22  C   UNL     1      10.436  12.572  19.686  0.00  0.00    +0.000 C 
ATOM     23  C   UNL     1      10.266  14.072  19.485  0.00  0.00    +0.000 C 
ATOM     24  C   UNL     1      10.263  14.759  20.855  0.00  0.00    +0.000 C 
ATOM     25  C   UNL     1       9.241  14.111  21.799  0.00  0.00    +0.000 C 
ATOM     26  C   UNL     1       9.372  12.581  21.848  0.00  0.00    +0.000 C 
ATOM     27  N   UNL     1       9.327  12.062  20.489  0.00  0.00    +0.000 NA
ATOM     28  C   UNL     1       9.466  10.625  20.363  0.00  0.00    +0.000 C 
ENDBRANCH  19  20
ENDBRANCH  18  19
ENDBRANCH  17  18
ENDBRANCH   4  17
TORSDOF 6
ENDMDL
MODEL 2
REMARK VINA RESULT:      -8.3      1.026      1.151
REMARK  Name = 
REMARK  6 active torsions:
REMARK  status: ('A' for Active; 'I' for Inactive)
REMARK    1  A    between atoms: C_2  and  C_5
REMARK    2  A    between atoms: C_9  and  N_10
REMARK    3  A    between atoms: N_13  and  C_14
REMARK    4  A    between atoms: C_14  and  C_15
REMARK    5  A    between atoms: C_15  and  C_16
REMARK    6  A    between atoms: C_16  and  N_17
REMARK                            x       y       z     vdW  Elec       q    Type
REMARK                         _______ _______ _______ _____ _____    ______ ____
ROOT
ATOM      1  N   UNL     1       5.271   5.136  18.441  0.00  0.00    +0.000 N 
ATOM      2  C   UNL     1       6.672   4.695  18.507  0.00  0.00    +0.000 C 
ATOM      3  C   UNL     1       7.461   5.127  17.254  0.00  0.00    +0.000 C 
ATOM      4  N   UNL     1       7.382   6.579  16.950  0.00  0.00    +0.000 NA
ATOM      5  C   UNL     1       5.940   6.900  16.793  0.00  0.00    +0.000 C 
ATOM      6  C   UNL     1       5.044   6.529  18.004  0.00  0.00    +0.000 C 
ENDROOT
BRANCH   1  11
ATOM      7  C   UNL     1       2.132   3.258  19.171  0.00  0.00    +0.000 A 
ATOM      8  C   UNL     1       2.105   2.382  18.081  0.00  0.00    +0.000 A 
ATOM      9  C   UNL     1       3.117   2.430  17.126  0.00  0.00    +0.000 A 
ATOM     10  C   UNL     1       4.160   3.347  17.264  0.00  0.00    +0.000 A 
ATOM     11  C   UNL     1       4.222   4.238  18.344  0.00  0.00    +0.000 A 
ATOM     12  C   UNL     1       3.191   4.182  19.283  0.00  0.00    +0.000 A 
BRANCH   7  14
ATOM     13  F   UNL     1      -0.160   2.840  19.762  0.00  0.00    +0.000 F 
ATOM     14  C   UNL     1       1.061   3.227  20.230  0.00  0.00    +0.000 C 
ATOM     15  F   UNL     1       0.869   4.441  20.813  0.00  0.00    +0.000 F 
ATOM     16  F   UNL     1       1.356   2.370  21.246  0.00  0.00    +0.000 F 
ENDBRANCH   7  14
ENDBRANCH   1  11
BRANCH   4  17
ATOM     17  C   UNL     1       7.983   7.423  18.007  0.00  0.00    +0.000 C 
BRANCH  17  18
ATOM     18  C   UNL     1       8.042   8.905  17.621  0.00  0.00    +0.000 C 
BRANCH  18  19
ATOM     19  C   UNL     1       8.805   9.769  18.635  0.00  0.00    +0.000 C 
BRANCH  19  20
ATOM     20  N   UNL     1       9.553  10.896  18.049  0.00  0.00    +0.000 NA
ATOM     21  C   UNL     1       8.690  12.088  17.834  0.00  0.00    +0.000 C 
ATOM     22  C   UNL     1       9.453  13.237  18.471  0.00  0.00    +0.000 C 
ATOM     23  C   UNL     1       8.614  14.391  19.003  0.00  0.00    +0.000 C 
ATOM     24  C   UNL     1       9.528  15.364  19.755  0.00  0.00    +0.000 C 
ATOM     25  C   UNL     1      10.368  14.633  20.812  0.00  0.00    +0.000 C 
ATOM     26  C   UNL     1      11.077  13.395  20.245  0.00  0.00    +0.000 C 
ATOM     27  N   UNL     1      10.092  12.547  19.590  0.00  0.00    +0.000 NA
ATOM     28  C   UNL     1      10.612  11.341  18.977  0.00  0.00    +0.000 C 
ENDBRANCH  19  20
ENDBRANCH  18  19
ENDBRANCH  17  18
ENDBRANCH   4  17
TORSDOF 6
ENDMDL
MODEL 3
REMARK VINA RESULT:      -8.3      0.804      1.071
REMARK  Name = 
REMARK  6 active torsions:
REMARK  status: ('A' for Active; 'I' for Inactive)
REMARK    1  A    between atoms: C_2  and  C_5
REMARK    2  A    between atoms: C_9  and  N_10
REMARK    3  A    between atoms: N_13  and  C_14
REMARK    4  A    between atoms: C_14  and  C_15
REMARK    5  A    between atoms: C_15  and  C_16
REMARK    6  A    between atoms: C_16  and  N_17
REMARK                            x       y       z     vdW  Elec       q    Type
REMARK                         _______ _______ _______ _____ _____    ______ ____
ROOT
ATOM      1  N   UNL     1       4.797   5.515  18.082  0.00  0.00    +0.000 N 
ATOM      2  C   UNL     1       5.840   5.928  19.033  0.00  0.00    +0.000 C 
ATOM      3  C   UNL     1       7.252   5.612  18.496  0.00  0.00    +0.000 C 
ATOM      4  N   UNL     1       7.529   6.159  17.143  0.00  0.00    +0.000 NA
ATOM      5  C   UNL     1       6.492   5.598  16.239  0.00  0.00    +0.000 C 
ATOM      6  C   UNL     1       5.025   5.871  16.667  0.00  0.00    +0.000 C 
ENDROOT
BRANCH   1  11
ATOM      7  C   UNL     1       2.554   3.182  19.936  0.00  0.00    +0.000 A 
ATOM      8  C   UNL     1       2.072   2.405  18.878  0.00  0.00    +0.000 A 
ATOM      9  C   UNL     1       2.491   2.666  17.576  0.00  0.00    +0.000 A 
ATOM     10  C   UNL     1       3.396   3.699  17.333  0.00  0.00    +0.000 A 
ATOM     11  C   UNL     1       3.903   4.497  18.367  0.00  0.00    +0.000 A 
ATOM     12  C   UNL     1       3.461   4.226  19.663  0.00  0.00    +0.000 A 
BRANCH   7  14
ATOM     13  F   UNL     1       2.888   1.975  21.988  0.00  0.00    +0.000 F 
ATOM     14  C   UNL     1       2.133   2.920  21.359  0.00  0.00    +0.000 C 
ATOM     15  F   UNL     1       0.845   2.489  21.451  0.00  0.00    +0.000 F 
ATOM     16  F   UNL     1       2.209   4.033  22.139  0.00  0.00    +0.000 F 
ENDBRANCH   7  14
ENDBRANCH   1  11
BRANCH   4  17
ATOM     17  C   UNL     1       7.500   7.639  17.102  0.00  0.00    +0.000 C 
BRANCH  17  18
ATOM     18  C   UNL     1       8.333   8.281  18.217  0.00  0.00    +0.000 C 
BRANCH  18  19
ATOM     19  C   UNL     1       8.328   9.815  18.176  0.00  0.00    +0.000 C 
BRANCH  19  20
ATOM     20  N   UNL     1       9.596  10.449  18.580  0.00  0.00    +0.000 NA
ATOM     21  C   UNL     1       9.744  11.815  18.010  0.00  0.00    +0.000 C 
ATOM     22  C   UNL     1      10.104  12.692  19.199  0.00  0.00    +0.000 C 
ATOM     23  C   UNL     1       9.686  14.154  19.109  0.00  0.00    +0.000 C 
ATOM     24  C   UNL     1       9.974  14.835  20.451  0.00  0.00    +0.000 C 
ATOM     25  C   UNL     1       9.351  14.053  21.615  0.00  0.00    +0.000 C 
ATOM     26  C   UNL     1       9.694  12.557  21.569  0.00  0.00    +0.000 C 
ATOM     27  N   UNL     1       9.342  12.034  20.257  0.00  0.00    +0.000 NA
ATOM     28  C   UNL     1       9.630  10.630  20.045  0.00  0.00    +0.000 C 
ENDBRANCH  19  20
ENDBRANCH  18  19
ENDBRANCH  17  18
ENDBRANCH   4  17
TORSDOF 6
ENDMDL
MODEL 4
REMARK VINA RESULT:      -8.0      1.136      1.672
REMARK  Name = 
REMARK  6 active torsions:
REMARK  status: ('A' for Active; 'I' for Inactive)
REMARK    1  A    between atoms: C_2  and  C_5
REMARK    2  A    between atoms: C_9  and  N_10
REMARK    3  A    between atoms: N_13  and  C_14
REMARK    4  A    between atoms: C_14  and  C_15
REMARK    5  A    between atoms: C_15  and  C_16
REMARK    6  A    between atoms: C_16  and  N_17
REMARK                            x       y       z     vdW  Elec       q    Type
REMARK                         _______ _______ _______ _____ _____    ______ ____
ROOT
ATOM      1  N   UNL     1       5.200   5.384  18.659  0.00  0.00    +0.000 N 
ATOM      2  C   UNL     1       6.524   4.999  19.171  0.00  0.00    +0.000 C 
ATOM      3  C   UNL     1       7.614   5.148  18.089  0.00  0.00    +0.000 C 
ATOM      4  N   UNL     1       7.667   6.489  17.452  0.00  0.00    +0.000 NA
ATOM      5  C   UNL     1       6.321   6.735  16.871  0.00  0.00    +0.000 C 
ATOM      6  C   UNL     1       5.141   6.634  17.874  0.00  0.00    +0.000 C 
ENDROOT
BRANCH   1  11
ATOM      7  C   UNL     1       2.073   3.435  19.241  0.00  0.00    +0.000 A 
ATOM      8  C   UNL     1       2.111   2.569  18.144  0.00  0.00    +0.000 A 
ATOM      9  C   UNL     1       3.161   2.645  17.232  0.00  0.00    +0.000 A 
ATOM     10  C   UNL     1       4.177   3.583  17.422  0.00  0.00    +0.000 A 
ATOM     11  C   UNL     1       4.175   4.465  18.510  0.00  0.00    +0.000 A 
ATOM     12  C   UNL     1       3.107   4.379  19.405  0.00  0.00    +0.000 A 
BRANCH   7  14
ATOM     13  F   UNL     1      -0.176   2.783  19.782  0.00  0.00    +0.000 F 
ATOM     14  C   UNL     1       0.960   3.373  20.253  0.00  0.00    +0.000 C 
ATOM     15  F   UNL     1       0.585   4.605  20.692  0.00  0.00    +0.000 F 
ATOM     16  F   UNL     1       1.306   2.671  21.368  0.00  0.00    +0.000 F 
ENDBRANCH   7  14
ENDBRANCH   1  11
BRANCH   4  17
ATOM     17  C   UNL     1       8.019   7.566  18.405  0.00  0.00    +0.000 C 
BRANCH  17  18
ATOM     18  C   UNL     1       7.954   8.962  17.774  0.00  0.00    +0.000 C 
BRANCH  18  19
ATOM     19  C   UNL     1       9.142   9.858  18.152  0.00  0.00    +0.000 C 
BRANCH  19  20
ATOM     20  N   UNL     1       8.775  11.131  18.796  0.00  0.00    +0.000 NA
ATOM     21  C   UNL     1       9.715  11.495  19.890  0.00  0.00    +0.000 C 
ATOM     22  C   UNL     1      10.115  12.932  19.595  0.00  0.00    +0.000 C 
ATOM     23  C   UNL     1      11.491  13.363  20.084  0.00  0.00    +0.000 C 
ATOM     24  C   UNL     1      11.789  14.768  19.553  0.00  0.00    +0.000 C 
ATOM     25  C   UNL     1      11.590  14.841  18.033  0.00  0.00    +0.000 C 
ATOM     26  C   UNL     1      10.240  14.259  17.588  0.00  0.00    +0.000 C 
ATOM     27  N   UNL     1      10.103  12.917  18.134  0.00  0.00    +0.000 NA
ATOM     28  C   UNL     1       8.862  12.238  17.823  0.00  0.00    +0.000 C 
ENDBRANCH  19  20
ENDBRANCH  18  19
ENDBRANCH  17  18
ENDBRANCH   4  17
TORSDOF 6
ENDMDL
MODEL 5
REMARK VINA RESULT:      -7.9      1.324      1.907
REMARK  Name = 
REMARK  6 active torsions:
REMARK  status: ('A' for Active; 'I' for Inactive)
REMARK    1  A    between atoms: C_2  and  C_5
REMARK    2  A    between atoms: C_9  and  N_10
REMARK    3  A    between atoms: N_13  and  C_14
REMARK    4  A    between atoms: C_14  and  C_15
REMARK    5  A    between atoms: C_15  and  C_16
REMARK    6  A    between atoms: C_16  and  N_17
REMARK                            x       y       z     vdW  Elec       q    Type
REMARK                         _______ _______ _______ _____ _____    ______ ____
ROOT
ATOM      1  N   UNL     1       4.704   5.608  18.153  0.00  0.00    +0.000 N 
ATOM      2  C   UNL     1       5.846   5.930  19.021  0.00  0.00    +0.000 C 
ATOM      3  C   UNL     1       7.188   5.724  18.288  0.00  0.00    +0.000 C 
ATOM      4  N   UNL     1       7.296   6.439  16.991  0.00  0.00    +0.000 NA
ATOM      5  C   UNL     1       6.167   5.963  16.150  0.00  0.00    +0.000 C 
ATOM      6  C   UNL     1       4.758   6.140  16.775  0.00  0.00    +0.000 C 
ENDROOT
BRANCH   1  11
ATOM      7  C   UNL     1       2.522   3.160  19.932  0.00  0.00    +0.000 A 
ATOM      8  C   UNL     1       2.150   2.336  18.866  0.00  0.00    +0.000 A 
ATOM      9  C   UNL     1       2.620   2.603  17.583  0.00  0.00    +0.000 A 
ATOM     10  C   UNL     1       3.468   3.690  17.367  0.00  0.00    +0.000 A 
ATOM     11  C   UNL     1       3.865   4.537  18.411  0.00  0.00    +0.000 A 
ATOM     12  C   UNL     1       3.372   4.258  19.687  0.00  0.00    +0.000 A 
BRANCH   7  14
ATOM     13  F   UNL     1       2.215   3.951  22.181  0.00  0.00    +0.000 F 
ATOM     14  C   UNL     1       2.043   2.895  21.335  0.00  0.00    +0.000 C 
ATOM     15  F   UNL     1       2.685   1.845  21.916  0.00  0.00    +0.000 F 
ATOM     16  F   UNL     1       0.716   2.593  21.386  0.00  0.00    +0.000 F 
ENDBRANCH   7  14
ENDBRANCH   1  11
BRANCH   4  17
ATOM     17  C   UNL     1       7.241   7.911  17.138  0.00  0.00    +0.000 C 
BRANCH  17  18
ATOM     18  C   UNL     1       8.292   8.450  18.114  0.00  0.00    +0.000 C 
BRANCH  18  19
ATOM     19  C   UNL     1       8.927   9.771  17.658  0.00  0.00    +0.000 C 
BRANCH  19  20
ATOM     20  N   UNL     1       8.820  10.877  18.627  0.00  0.00    +0.000 NA
ATOM     21  C   UNL     1       9.983  10.922  19.554  0.00  0.00    +0.000 C 
ATOM     22  C   UNL     1      10.461  12.364  19.502  0.00  0.00    +0.000 C 
ATOM     23  C   UNL     1      11.941  12.594  19.777  0.00  0.00    +0.000 C 
ATOM     24  C   UNL     1      12.272  14.066  19.515  0.00  0.00    +0.000 C 
ATOM     25  C   UNL     1      11.796  14.503  18.123  0.00  0.00    +0.000 C 
ATOM     26  C   UNL     1      10.335  14.116  17.853  0.00  0.00    +0.000 C 
ATOM     27  N   UNL     1      10.171  12.693  18.109  0.00  0.00    +0.000 NA
ATOM     28  C   UNL     1       8.830  12.174  17.922  0.00  0.00    +0.000 C 
ENDBRANCH  19  20
ENDBRANCH  18  19
ENDBRANCH  17  18
ENDBRANCH   4  17
TORSDOF 6
ENDMDL
MODEL 6
REMARK VINA RESULT:      -7.9      1.442      1.959
REMARK  Name = 
REMARK  6 active torsions:
REMARK  status: ('A' for Active; 'I' for Inactive)
REMARK    1  A    between atoms: C_2  and  C_5
REMARK    2  A    between atoms: C_9  and  N_10
REMARK    3  A    between atoms: N_13  and  C_14
REMARK    4  A    between atoms: C_14  and  C_15
REMARK    5  A    between atoms: C_15  and  C_16
REMARK    6  A    between atoms: C_16  and  N_17
REMARK                            x       y       z     vdW  Elec       q    Type
REMARK                         _______ _______ _______ _____ _____    ______ ____
ROOT
ATOM      1  N   UNL     1       5.347   4.772  18.224  0.00  0.00    +0.000 N 
ATOM      2  C   UNL     1       6.518   4.358  17.436  0.00  0.00    +0.000 C 
ATOM      3  C   UNL     1       6.630   5.164  16.125  0.00  0.00    +0.000 C 
ATOM      4  N   UNL     1       6.616   6.638  16.308  0.00  0.00    +0.000 NA
ATOM      5  C   UNL     1       5.348   6.965  17.012  0.00  0.00    +0.000 C 
ATOM      6  C   UNL     1       5.132   6.227  18.360  0.00  0.00    +0.000 C 
ENDROOT
BRANCH   1  11
ATOM      7  C   UNL     1       2.385   3.138  19.796  0.00  0.00    +0.000 A 
ATOM      8  C   UNL     1       2.094   2.168  18.833  0.00  0.00    +0.000 A 
ATOM      9  C   UNL     1       2.875   2.072  17.684  0.00  0.00    +0.000 A 
ATOM     10  C   UNL     1       3.950   2.943  17.501  0.00  0.00    +0.000 A 
ATOM     11  C   UNL     1       4.274   3.926  18.446  0.00  0.00    +0.000 A 
ATOM     12  C   UNL     1       3.472   4.011  19.585  0.00  0.00    +0.000 A 
BRANCH   7  14
ATOM     13  F   UNL     1       1.024   2.085  21.474  0.00  0.00    +0.000 F 
ATOM     14  C   UNL     1       1.571   3.263  21.057  0.00  0.00    +0.000 C 
ATOM     15  F   UNL     1       0.529   4.129  20.922  0.00  0.00    +0.000 F 
ATOM     16  F   UNL     1       2.303   3.723  22.109  0.00  0.00    +0.000 F 
ENDBRANCH   7  14
ENDBRANCH   1  11
BRANCH   4  17
ATOM     17  C   UNL     1       7.775   7.134  17.084  0.00  0.00    +0.000 C 
BRANCH  17  18
ATOM     18  C   UNL     1       7.502   8.481  17.764  0.00  0.00    +0.000 C 
BRANCH  18  19
ATOM     19  C   UNL     1       8.619   9.511  17.547  0.00  0.00    +0.000 C 
BRANCH  19  20
ATOM     20  N   UNL     1       8.580  10.668  18.459  0.00  0.00    +0.000 NA
ATOM     21  C   UNL     1       9.663  10.615  19.476  0.00  0.00    +0.000 C 
ATOM     22  C   UNL     1      10.325  11.982  19.407  0.00  0.00    +0.000 C 
ATOM     23  C   UNL     1      11.797  12.039  19.794  0.00  0.00    +0.000 C 
ATOM     24  C   UNL     1      12.332  13.444  19.502  0.00  0.00    +0.000 C 
ATOM     25  C   UNL     1      12.025  13.867  18.059  0.00  0.00    +0.000 C 
ATOM     26  C   UNL     1      10.551  13.652  17.684  0.00  0.00    +0.000 C 
ATOM     27  N   UNL     1      10.187  12.274  17.982  0.00  0.00    +0.000 NA
ATOM     28  C   UNL     1       8.810  11.917  17.706  0.00  0.00    +0.000 C 
ENDBRANCH  19  20
ENDBRANCH  18  19
ENDBRANCH  17  18
ENDBRANCH   4  17
TORSDOF 6
ENDMDL
MODEL 7
REMARK VINA RESULT:      -7.9      1.419      1.706
REMARK  Name = 
REMARK  6 active torsions:
REMARK  status: ('A' for Active; 'I' for Inactive)
REMARK    1  A    between atoms: C_2  and  C_5
REMARK    2  A    between atoms: C_9  and  N_10
REMARK    3  A    between atoms: N_13  and  C_14
REMARK    4  A    between atoms: C_14  and  C_15
REMARK    5  A    between atoms: C_15  and  C_16
REMARK    6  A    between atoms: C_16  and  N_17
REMARK                            x       y       z     vdW  Elec       q    Type
REMARK                         _______ _______ _______ _____ _____    ______ ____
ROOT
ATOM      1  N   UNL     1       5.071   5.708  18.371  0.00  0.00    +0.000 N 
ATOM      2  C   UNL     1       6.395   5.751  19.009  0.00  0.00    +0.000 C 
ATOM      3  C   UNL     1       7.528   5.723  17.962  0.00  0.00    +0.000 C 
ATOM      4  N   UNL     1       7.418   6.766  16.911  0.00  0.00    +0.000 NA
ATOM      5  C   UNL     1       6.099   6.568  16.255  0.00  0.00    +0.000 C 
ATOM      6  C   UNL     1       4.876   6.598  17.208  0.00  0.00    +0.000 C 
ENDROOT
BRANCH   1  11
ATOM      7  C   UNL     1       2.630   3.293  19.829  0.00  0.00    +0.000 A 
ATOM      8  C   UNL     1       2.488   2.404  18.759  0.00  0.00    +0.000 A 
ATOM      9  C   UNL     1       3.194   2.618  17.579  0.00  0.00    +0.000 A 
ATOM     10  C   UNL     1       4.048   3.717  17.470  0.00  0.00    +0.000 A 
ATOM     11  C   UNL     1       4.217   4.628  18.521  0.00  0.00    +0.000 A 
ATOM     12  C   UNL     1       3.491   4.401  19.691  0.00  0.00    +0.000 A 
BRANCH   7  14
ATOM     13  F   UNL     1       2.005   1.823  21.625  0.00  0.00    +0.000 F 
ATOM     14  C   UNL     1       1.891   3.087  21.125  0.00  0.00    +0.000 C 
ATOM     15  F   UNL     1       0.555   3.321  21.008  0.00  0.00    +0.000 F 
ATOM     16  F   UNL     1       2.328   3.916  22.113  0.00  0.00    +0.000 F 
ENDBRANCH   7  14
ENDBRANCH   1  11
BRANCH   4  17
ATOM     17  C   UNL     1       7.521   8.141  17.450  0.00  0.00    +0.000 C 
BRANCH  17  18
ATOM     18  C   UNL     1       8.575   8.268  18.556  0.00  0.00    +0.000 C 
BRANCH  18  19
ATOM     19  C   UNL     1       8.858   9.720  18.965  0.00  0.00    +0.000 C 
BRANCH  19  20
ATOM     20  N   UNL     1       9.283  10.601  17.863  0.00  0.00    +0.000 NA
ATOM     21  C   UNL     1       8.365  11.757  17.685  0.00  0.00    +0.000 C 
ATOM     22  C   UNL     1       9.276  12.974  17.655  0.00  0.00    +0.000 C 
ATOM     23  C   UNL     1       8.669  14.283  18.141  0.00  0.00    +0.000 C 
ATOM     24  C   UNL     1       9.769  15.348  18.203  0.00  0.00    +0.000 C 
ATOM     25  C   UNL     1      10.976  14.853  19.013  0.00  0.00    +0.000 C 
ATOM     26  C   UNL     1      11.453  13.463  18.568  0.00  0.00    +0.000 C 
ATOM     27  N   UNL     1      10.320  12.549  18.587  0.00  0.00    +0.000 NA
ATOM     28  C   UNL     1      10.603  11.192  18.164  0.00  0.00    +0.000 C 
ENDBRANCH  19  20
ENDBRANCH  18  19
ENDBRANCH  17  18
ENDBRANCH   4  17
TORSDOF 6
ENDMDL
MODEL 8
REMARK VINA RESULT:      -7.8      0.949      1.226
REMARK  Name = 
REMARK  6 active torsions:
REMARK  status: ('A' for Active; 'I' for Inactive)
REMARK    1  A    between atoms: C_2  and  C_5
REMARK    2  A    between atoms: C_9  and  N_10
REMARK    3  A    between atoms: N_13  and  C_14
REMARK    4  A    between atoms: C_14  and  C_15
REMARK    5  A    between atoms: C_15  and  C_16
REMARK    6  A    between atoms: C_16  and  N_17
REMARK                            x       y       z     vdW  Elec       q    Type
REMARK                         _______ _______ _______ _____ _____    ______ ____
ROOT
ATOM      1  N   UNL     1       4.872   5.644  18.433  0.00  0.00    +0.000 N 
ATOM      2  C   UNL     1       6.236   5.708  18.981  0.00  0.00    +0.000 C 
ATOM      3  C   UNL     1       7.284   5.911  17.868  0.00  0.00    +0.000 C 
ATOM      4  N   UNL     1       7.020   7.074  16.982  0.00  0.00    +0.000 NA
ATOM      5  C   UNL     1       5.672   6.860  16.393  0.00  0.00    +0.000 C 
ATOM      6  C   UNL     1       4.526   6.664  17.421  0.00  0.00    +0.000 C 
ENDROOT
BRANCH   1  11
ATOM      7  C   UNL     1       2.184   3.206  19.294  0.00  0.00    +0.000 A 
ATOM      8  C   UNL     1       2.602   2.099  18.550  0.00  0.00    +0.000 A 
ATOM      9  C   UNL     1       3.758   2.177  17.777  0.00  0.00    +0.000 A 
ATOM     10  C   UNL     1       4.498   3.360  17.753  0.00  0.00    +0.000 A 
ATOM     11  C   UNL     1       4.112   4.489  18.488  0.00  0.00    +0.000 A 
ATOM     12  C   UNL     1       2.944   4.393  19.246  0.00  0.00    +0.000 A 
BRANCH   7  14
ATOM     13  F   UNL     1       0.481   4.384  20.516  0.00  0.00    +0.000 F 
ATOM     14  C   UNL     1       0.946   3.155  20.151  0.00  0.00    +0.000 C 
ATOM     15  F   UNL     1       1.144   2.473  21.313  0.00  0.00    +0.000 F 
ATOM     16  F   UNL     1      -0.094   2.534  19.530  0.00  0.00    +0.000 F 
ENDBRANCH   7  14
ENDBRANCH   1  11
BRANCH   4  17
ATOM     17  C   UNL     1       7.067   8.368  17.699  0.00  0.00    +0.000 C 
BRANCH  17  18
ATOM     18  C   UNL     1       8.463   9.002  17.689  0.00  0.00    +0.000 C 
BRANCH  18  19
ATOM     19  C   UNL     1       8.922   9.487  19.071  0.00  0.00    +0.000 C 
BRANCH  19  20
ATOM     20  N   UNL     1       9.827  10.649  19.049  0.00  0.00    +0.000 NA
ATOM     21  C   UNL     1       9.458  11.626  17.990  0.00  0.00    +0.000 C 
ATOM     22  C   UNL     1       9.402  12.967  18.704  0.00  0.00    +0.000 C 
ATOM     23  C   UNL     1       8.455  14.005  18.117  0.00  0.00    +0.000 C 
ATOM     24  C   UNL     1       8.401  15.215  19.054  0.00  0.00    +0.000 C 
ATOM     25  C   UNL     1       8.083  14.789  20.494  0.00  0.00    +0.000 C 
ATOM     26  C   UNL     1       8.980  13.641  20.979  0.00  0.00    +0.000 C 
ATOM     27  N   UNL     1       8.911  12.552  20.016  0.00  0.00    +0.000 NA
ATOM     28  C   UNL     1       9.729  11.395  20.320  0.00  0.00    +0.000 C 
ENDBRANCH  19  20
ENDBRANCH  18  19
ENDBRANCH  17  18
ENDBRANCH   4  17
TORSDOF 6
ENDMDL
MODEL 9
REMARK VINA RESULT:      -7.8      6.303      7.834
REMARK  Name = 
REMARK  6 active torsions:
REMARK  status: ('A' for Active; 'I' for Inactive)
REMARK    1  A    between atoms: C_2  and  C_5
REMARK    2  A    between atoms: C_9  and  N_10
REMARK    3  A    between atoms: N_13  and  C_14
REMARK    4  A    between atoms: C_14  and  C_15
REMARK    5  A    between atoms: C_15  and  C_16
REMARK    6  A    between atoms: C_16  and  N_17
REMARK                            x       y       z     vdW  Elec       q    Type
REMARK                         _______ _______ _______ _____ _____    ______ ____
ROOT
ATOM      1  N   UNL     1       4.185   4.396  17.027  0.00  0.00    +0.000 N 
ATOM      2  C   UNL     1       3.091   3.415  16.960  0.00  0.00    +0.000 C 
ATOM      3  C   UNL     1       3.161   2.410  18.129  0.00  0.00    +0.000 C 
ATOM      4  N   UNL     1       3.222   3.036  19.474  0.00  0.00    +0.000 NA
ATOM      5  C   UNL     1       4.418   3.919  19.476  0.00  0.00    +0.000 C 
ATOM      6  C   UNL     1       4.450   4.990  18.354  0.00  0.00    +0.000 C 
ENDROOT
BRANCH   1  11
ATOM      7  C   UNL     1       6.037   4.047  13.809  0.00  0.00    +0.000 A 
ATOM      8  C   UNL     1       7.277   4.580  14.175  0.00  0.00    +0.000 A 
ATOM      9  C   UNL     1       7.478   5.047  15.471  0.00  0.00    +0.000 A 
ATOM     10  C   UNL     1       6.442   4.975  16.403  0.00  0.00    +0.000 A 
ATOM     11  C   UNL     1       5.187   4.445  16.074  0.00  0.00    +0.000 A 
ATOM     12  C   UNL     1       5.004   3.993  14.766  0.00  0.00    +0.000 A 
BRANCH   7  14
ATOM     13  F   UNL     1       4.523   3.755  11.965  0.00  0.00    +0.000 F 
ATOM     14  C   UNL     1       5.788   3.520  12.420  0.00  0.00    +0.000 C 
ATOM     15  F   UNL     1       5.971   2.174  12.331  0.00  0.00    +0.000 F 
ATOM     16  F   UNL     1       6.621   4.071  11.495  0.00  0.00    +0.000 F 
ENDBRANCH   7  14
ENDBRANCH   1  11
BRANCH   4  17
ATOM     17  C   UNL     1       2.008   3.817  19.802  0.00  0.00    +0.000 C 
BRANCH  17  18
ATOM     18  C   UNL     1       2.265   4.900  20.856  0.00  0.00    +0.000 C 
BRANCH  18  19
ATOM     19  C   UNL     1       1.295   6.086  20.761  0.00  0.00    +0.000 C 
BRANCH  19  20
ATOM     20  N   UNL     1       1.941   7.404  20.625  0.00  0.00    +0.000 NA
ATOM     21  C   UNL     1       1.850   7.930  19.237  0.00  0.00    +0.000 C 
ATOM     22  C   UNL     1       1.312   9.343  19.394  0.00  0.00    +0.000 C 
ATOM     23  C   UNL     1       0.506   9.891  18.224  0.00  0.00    +0.000 C 
ATOM     24  C   UNL     1      -0.094  11.243  18.625  0.00  0.00    +0.000 C 
ATOM     25  C   UNL     1      -0.863  11.138  19.950  0.00  0.00    +0.000 C 
ATOM     26  C   UNL     1      -0.045  10.447  21.051  0.00  0.00    +0.000 C 
ATOM     27  N   UNL     1       0.433   9.168  20.548  0.00  0.00    +0.000 NA
ATOM     28  C   UNL     1       1.249   8.400  21.467  0.00  0.00    +0.000 C 
ENDBRANCH  19  20
ENDBRANCH  18  19
ENDBRANCH  17  18
ENDBRANCH   4  17
TORSDOF 6
ENDMDL
