MODEL 1
REMARK VINA RESULT:      -8.2      0.000      0.000
REMARK  Name = 
REMARK  3 active torsions:
REMARK  status: ('A' for Active; 'I' for Inactive)
REMARK    1  A    between atoms: C_2  and  C_4
REMARK    2  A    between atoms: C_8  and  C_9
REMARK    3  A    between atoms: C_22  and  N_23
REMARK                            x       y       z     vdW  Elec       q    Type
REMARK                         _______ _______ _______ _____ _____    ______ ____
ROOT
ATOM      1  C   UNL     1       1.465   9.846  18.728  0.00  0.00    +0.000 A 
ATOM      2  N   UNL     1       2.204   9.382  17.700  0.00  0.00    +0.000 NA
ATOM      3  N   UNL     1       2.690   8.105  17.752  0.00  0.00    +0.000 NA
ATOM      4  C   UNL     1       2.487   7.289  18.804  0.00  0.00    +0.000 A 
ATOM      5  C   UNL     1       3.073   5.997  18.849  0.00  0.00    +0.000 A 
ATOM      6  C   UNL     1       2.799   5.167  19.957  0.00  0.00    +0.000 A 
ATOM      7  C   UNL     1       1.990   5.593  21.001  0.00  0.00    +0.000 A 
ATOM      8  C   UNL     1       1.454   6.873  20.971  0.00  0.00    +0.000 A 
ATOM      9  C   UNL     1       1.683   7.744  19.884  0.00  0.00    +0.000 A 
ATOM     10  C   UNL     1       1.138   9.058  19.837  0.00  0.00    +0.000 A 
ENDROOT
BRANCH   5  11
ATOM     11  C   UNL     1       3.993   5.494  17.778  0.00  0.00    +0.000 A 
ATOM     12  C   UNL     1       3.700   4.316  17.058  0.00  0.00    +0.000 A 
ATOM     13  C   UNL     1       4.552   3.800  16.065  0.00  0.00    +0.000 A 
ATOM     14  C   UNL     1       5.722   4.503  15.749  0.00  0.00    +0.000 A 
ATOM     15  C   UNL     1       6.795   4.359  14.843  0.00  0.00    +0.000 A 
ATOM     16  N   UNL     1       7.684   5.352  14.931  0.00  0.00    +0.000 NA
ATOM     17  N   UNL     1       7.178   6.135  15.902  0.00  0.00    +0.000 N 
ATOM     18  C   UNL     1       6.011   5.666  16.444  0.00  0.00    +0.000 A 
ATOM     19  C   UNL     1       5.196   6.167  17.468  0.00  0.00    +0.000 A 
ATOM     20  H   UNL     1       7.674   6.984  16.145  0.00  0.00    +0.000 HD
ENDBRANCH   5  11
BRANCH   1  22
ATOM     21  N   UNL     1       1.851  12.157  18.058  0.00  0.00    +0.000 N 
ATOM     22  C   UNL     1       0.955  11.241  18.545  0.00  0.00    +0.000 C 
ATOM     23  O   UNL     1      -0.207  11.562  18.783  0.00  0.00    +0.000 OA
ATOM     24  H   UNL     1       1.538  13.098  17.864  0.00  0.00    +0.000 HD
ATOM     25  H   UNL     1       2.784  11.873  17.781  0.00  0.00    +0.000 HD
ENDBRANCH   1  22
BRANCH  10  26
ATOM     26  N   UNL     1       0.467   9.603  20.964  0.00  0.00    +0.000 N 
ATOM     27  H   UNL     1      -0.490   9.891  20.799  0.00  0.00    +0.000 HD
ATOM     28  H   UNL     1       1.011  10.350  21.418  0.00  0.00    +0.000 HD
ENDBRANCH  10  26
TORSDOF 3
ENDMDL
MODEL 2
REMARK VINA RESULT:      -8.1      4.747      7.492
REMARK  Name = 
REMARK  3 active torsions:
REMARK  status: ('A' for Active; 'I' for Inactive)
REMARK    1  A    between atoms: C_2  and  C_4
REMARK    2  A    between atoms: C_8  and  C_9
REMARK    3  A    between atoms: C_22  and  N_23
REMARK                            x       y       z     vdW  Elec       q    Type
REMARK                         _______ _______ _______ _____ _____    ______ ____
ROOT
ATOM      1  C   UNL     1       6.231   4.110  13.827  0.00  0.00    +0.000 A 
ATOM      2  N   UNL     1       5.118   3.624  14.411  0.00  0.00    +0.000 NA
ATOM      3  N   UNL     1       4.785   4.051  15.667  0.00  0.00    +0.000 NA
ATOM      4  C   UNL     1       5.537   4.923  16.366  0.00  0.00    +0.000 A 
ATOM      5  C   UNL     1       5.193   5.280  17.696  0.00  0.00    +0.000 A 
ATOM      6  C   UNL     1       5.994   6.226  18.371  0.00  0.00    +0.000 A 
ATOM      7  C   UNL     1       7.110   6.793  17.772  0.00  0.00    +0.000 A 
ATOM      8  C   UNL     1       7.465   6.407  16.487  0.00  0.00    +0.000 A 
ATOM      9  C   UNL     1       6.696   5.474  15.756  0.00  0.00    +0.000 A 
ATOM     10  C   UNL     1       7.045   5.071  14.437  0.00  0.00    +0.000 A 
ENDROOT
BRANCH   5  11
ATOM     11  C   UNL     1       4.029   4.671  18.417  0.00  0.00    +0.000 A 
ATOM     12  C   UNL     1       2.723   4.744  17.888  0.00  0.00    +0.000 A 
ATOM     13  C   UNL     1       1.603   4.207  18.548  0.00  0.00    +0.000 A 
ATOM     14  C   UNL     1       1.796   3.538  19.765  0.00  0.00    +0.000 A 
ATOM     15  C   UNL     1       0.989   2.862  20.705  0.00  0.00    +0.000 A 
ATOM     16  N   UNL     1       1.690   2.366  21.728  0.00  0.00    +0.000 NA
ATOM     17  N   UNL     1       2.954   2.732  21.443  0.00  0.00    +0.000 N 
ATOM     18  C   UNL     1       3.078   3.454  20.286  0.00  0.00    +0.000 A 
ATOM     19  C   UNL     1       4.195   4.025  19.662  0.00  0.00    +0.000 A 
ATOM     20  H   UNL     1       3.693   2.448  22.076  0.00  0.00    +0.000 HD
ENDBRANCH   5  11
BRANCH   1  22
ATOM     21  N   UNL     1       5.842   2.436  12.099  0.00  0.00    +0.000 N 
ATOM     22  C   UNL     1       6.476   3.603  12.440  0.00  0.00    +0.000 C 
ATOM     23  O   UNL     1       7.176   4.199  11.626  0.00  0.00    +0.000 OA
ATOM     24  H   UNL     1       5.931   2.084  11.157  0.00  0.00    +0.000 HD
ATOM     25  H   UNL     1       5.197   1.990  12.742  0.00  0.00    +0.000 HD
ENDBRANCH   1  22
BRANCH  10  26
ATOM     26  N   UNL     1       8.278   5.476  13.859  0.00  0.00    +0.000 N 
ATOM     27  H   UNL     1       8.692   6.307  14.265  0.00  0.00    +0.000 HD
ATOM     28  H   UNL     1       8.224   5.544  12.834  0.00  0.00    +0.000 HD
ENDBRANCH  10  26
TORSDOF 3
ENDMDL
MODEL 3
REMARK VINA RESULT:      -8.1      3.506      7.367
REMARK  Name = 
REMARK  3 active torsions:
REMARK  status: ('A' for Active; 'I' for Inactive)
REMARK    1  A    between atoms: C_2  and  C_4
REMARK    2  A    between atoms: C_8  and  C_9
REMARK    3  A    between atoms: C_22  and  N_23
REMARK                            x       y       z     vdW  Elec       q    Type
REMARK                         _______ _______ _______ _____ _____    ______ ____
ROOT
ATOM      1  C   UNL     1       2.840   3.912  20.619  0.00  0.00    +0.000 A 
ATOM      2  N   UNL     1       1.872   4.799  20.925  0.00  0.00    +0.000 NA
ATOM      3  N   UNL     1       1.784   5.962  20.212  0.00  0.00    +0.000 NA
ATOM      4  C   UNL     1       2.644   6.280  19.224  0.00  0.00    +0.000 A 
ATOM      5  C   UNL     1       2.561   7.531  18.560  0.00  0.00    +0.000 A 
ATOM      6  C   UNL     1       3.463   7.800  17.508  0.00  0.00    +0.000 A 
ATOM      7  C   UNL     1       4.429   6.880  17.127  0.00  0.00    +0.000 A 
ATOM      8  C   UNL     1       4.531   5.676  17.808  0.00  0.00    +0.000 A 
ATOM      9  C   UNL     1       3.650   5.345  18.861  0.00  0.00    +0.000 A 
ATOM     10  C   UNL     1       3.741   4.113  19.567  0.00  0.00    +0.000 A 
ENDROOT
BRANCH   5  11
ATOM     11  C   UNL     1       1.573   8.587  18.953  0.00  0.00    +0.000 A 
ATOM     12  C   UNL     1       1.296   8.860  20.310  0.00  0.00    +0.000 A 
ATOM     13  C   UNL     1       0.357   9.825  20.716  0.00  0.00    +0.000 A 
ATOM     14  C   UNL     1      -0.306  10.575  19.734  0.00  0.00    +0.000 A 
ATOM     15  C   UNL     1      -1.263  11.612  19.704  0.00  0.00    +0.000 A 
ATOM     16  N   UNL     1      -1.562  12.005  18.463  0.00  0.00    +0.000 NA
ATOM     17  N   UNL     1      -0.793  11.212  17.694  0.00  0.00    +0.000 N 
ATOM     18  C   UNL     1      -0.031  10.319  18.400  0.00  0.00    +0.000 A 
ATOM     19  C   UNL     1       0.867   9.329  17.980  0.00  0.00    +0.000 A 
ATOM     20  H   UNL     1      -0.827  11.335  16.688  0.00  0.00    +0.000 HD
ENDBRANCH   5  11
BRANCH   1  22
ATOM     21  N   UNL     1       1.617   2.336  22.019  0.00  0.00    +0.000 N 
ATOM     22  C   UNL     1       2.816   2.661  21.439  0.00  0.00    +0.000 C 
ATOM     23  O   UNL     1       3.797   1.933  21.573  0.00  0.00    +0.000 OA
ATOM     24  H   UNL     1       1.537   1.471  22.535  0.00  0.00    +0.000 HD
ATOM     25  H   UNL     1       0.788   2.891  21.839  0.00  0.00    +0.000 HD
ENDBRANCH   1  22
BRANCH  10  26
ATOM     26  N   UNL     1       4.829   3.228  19.342  0.00  0.00    +0.000 N 
ATOM     27  H   UNL     1       5.458   3.110  20.127  0.00  0.00    +0.000 HD
ATOM     28  H   UNL     1       5.343   3.454  18.479  0.00  0.00    +0.000 HD
ENDBRANCH  10  26
TORSDOF 3
ENDMDL
MODEL 4
REMARK VINA RESULT:      -8.0      2.852      6.988
REMARK  Name = 
REMARK  3 active torsions:
REMARK  status: ('A' for Active; 'I' for Inactive)
REMARK    1  A    between atoms: C_2  and  C_4
REMARK    2  A    between atoms: C_8  and  C_9
REMARK    3  A    between atoms: C_22  and  N_23
REMARK                            x       y       z     vdW  Elec       q    Type
REMARK                         _______ _______ _______ _____ _____    ______ ____
ROOT
ATOM      1  C   UNL     1       5.958   5.082  16.707  0.00  0.00    +0.000 A 
ATOM      2  N   UNL     1       5.718   6.330  17.157  0.00  0.00    +0.000 NA
ATOM      3  N   UNL     1       4.509   6.610  17.732  0.00  0.00    +0.000 NA
ATOM      4  C   UNL     1       3.526   5.695  17.848  0.00  0.00    +0.000 A 
ATOM      5  C   UNL     1       2.261   6.049  18.383  0.00  0.00    +0.000 A 
ATOM      6  C   UNL     1       1.278   5.045  18.517  0.00  0.00    +0.000 A 
ATOM      7  C   UNL     1       1.517   3.737  18.122  0.00  0.00    +0.000 A 
ATOM      8  C   UNL     1       2.742   3.407  17.561  0.00  0.00    +0.000 A 
ATOM      9  C   UNL     1       3.769   4.365  17.412  0.00  0.00    +0.000 A 
ATOM     10  C   UNL     1       5.032   4.041  16.841  0.00  0.00    +0.000 A 
ENDROOT
BRANCH   5  11
ATOM     11  C   UNL     1       1.920   7.453  18.785  0.00  0.00    +0.000 A 
ATOM     12  C   UNL     1       1.843   8.487  17.828  0.00  0.00    +0.000 A 
ATOM     13  C   UNL     1       1.552   9.820  18.171  0.00  0.00    +0.000 A 
ATOM     14  C   UNL     1       1.290  10.128  19.513  0.00  0.00    +0.000 A 
ATOM     15  C   UNL     1       0.949  11.280  20.255  0.00  0.00    +0.000 A 
ATOM     16  N   UNL     1       0.785  11.027  21.556  0.00  0.00    +0.000 NA
ATOM     17  N   UNL     1       1.026   9.706  21.647  0.00  0.00    +0.000 N 
ATOM     18  C   UNL     1       1.354   9.115  20.456  0.00  0.00    +0.000 A 
ATOM     19  C   UNL     1       1.689   7.793  20.136  0.00  0.00    +0.000 A 
ATOM     20  H   UNL     1       0.943   9.261  22.555  0.00  0.00    +0.000 HD
ENDBRANCH   5  11
BRANCH   1  22
ATOM     21  N   UNL     1       7.581   5.507  14.940  0.00  0.00    +0.000 N 
ATOM     22  C   UNL     1       7.325   4.882  16.133  0.00  0.00    +0.000 C 
ATOM     23  O   UNL     1       8.196   4.224  16.698  0.00  0.00    +0.000 OA
ATOM     24  H   UNL     1       8.507   5.448  14.541  0.00  0.00    +0.000 HD
ATOM     25  H   UNL     1       6.891   6.119  14.518  0.00  0.00    +0.000 HD
ENDBRANCH   1  22
BRANCH  10  26
ATOM     26  N   UNL     1       5.254   2.769  16.250  0.00  0.00    +0.000 N 
ATOM     27  H   UNL     1       4.525   2.084  16.414  0.00  0.00    +0.000 HD
ATOM     28  H   UNL     1       6.184   2.390  16.475  0.00  0.00    +0.000 HD
ENDBRANCH  10  26
TORSDOF 3
ENDMDL
MODEL 5
REMARK VINA RESULT:      -7.9      2.805      6.844
REMARK  Name = 
REMARK  3 active torsions:
REMARK  status: ('A' for Active; 'I' for Inactive)
REMARK    1  A    between atoms: C_2  and  C_4
REMARK    2  A    between atoms: C_8  and  C_9
REMARK    3  A    between atoms: C_22  and  N_23
REMARK                            x       y       z     vdW  Elec       q    Type
REMARK                         _______ _______ _______ _____ _____    ______ ____
ROOT
ATOM      1  C   UNL     1       6.002   5.033  16.777  0.00  0.00    +0.000 A 
ATOM      2  N   UNL     1       5.749   6.248  17.304  0.00  0.00    +0.000 NA
ATOM      3  N   UNL     1       4.527   6.486  17.869  0.00  0.00    +0.000 NA
ATOM      4  C   UNL     1       3.545   5.565  17.903  0.00  0.00    +0.000 A 
ATOM      5  C   UNL     1       2.267   5.880  18.433  0.00  0.00    +0.000 A 
ATOM      6  C   UNL     1       1.285   4.867  18.478  0.00  0.00    +0.000 A 
ATOM      7  C   UNL     1       1.537   3.588  18.003  0.00  0.00    +0.000 A 
ATOM      8  C   UNL     1       2.775   3.299  17.447  0.00  0.00    +0.000 A 
ATOM      9  C   UNL     1       3.802   4.266  17.385  0.00  0.00    +0.000 A 
ATOM     10  C   UNL     1       5.077   3.984  16.821  0.00  0.00    +0.000 A 
ENDROOT
BRANCH   5  11
ATOM     11  C   UNL     1       1.914   7.253  18.920  0.00  0.00    +0.000 A 
ATOM     12  C   UNL     1       1.637   7.495  20.282  0.00  0.00    +0.000 A 
ATOM     13  C   UNL     1       1.278   8.764  20.771  0.00  0.00    +0.000 A 
ATOM     14  C   UNL     1       1.229   9.842  19.876  0.00  0.00    +0.000 A 
ATOM     15  C   UNL     1       0.950  11.224  19.946  0.00  0.00    +0.000 A 
ATOM     16  N   UNL     1       1.063  11.835  18.764  0.00  0.00    +0.000 NA
ATOM     17  N   UNL     1       1.414  10.837  17.932  0.00  0.00    +0.000 N 
ATOM     18  C   UNL     1       1.511   9.613  18.539  0.00  0.00    +0.000 A 
ATOM     19  C   UNL     1       1.824   8.346  18.030  0.00  0.00    +0.000 A 
ATOM     20  H   UNL     1       1.583  11.057  16.957  0.00  0.00    +0.000 HD
ENDBRANCH   5  11
BRANCH   1  22
ATOM     21  N   UNL     1       7.649   5.547  15.055  0.00  0.00    +0.000 N 
ATOM     22  C   UNL     1       7.383   4.874  16.220  0.00  0.00    +0.000 C 
ATOM     23  O   UNL     1       8.253   4.209  16.776  0.00  0.00    +0.000 OA
ATOM     24  H   UNL     1       8.583   5.516  14.672  0.00  0.00    +0.000 HD
ATOM     25  H   UNL     1       6.958   6.163  14.644  0.00  0.00    +0.000 HD
ENDBRANCH   1  22
BRANCH  10  26
ATOM     26  N   UNL     1       5.316   2.754  16.151  0.00  0.00    +0.000 N 
ATOM     27  H   UNL     1       5.797   2.051  16.699  0.00  0.00    +0.000 HD
ATOM     28  H   UNL     1       5.765   2.890  15.235  0.00  0.00    +0.000 HD
ENDBRANCH  10  26
TORSDOF 3
ENDMDL
MODEL 6
REMARK VINA RESULT:      -7.9      2.582      6.688
REMARK  Name = 
REMARK  3 active torsions:
REMARK  status: ('A' for Active; 'I' for Inactive)
REMARK    1  A    between atoms: C_2  and  C_4
REMARK    2  A    between atoms: C_8  and  C_9
REMARK    3  A    between atoms: C_22  and  N_23
REMARK                            x       y       z     vdW  Elec       q    Type
REMARK                         _______ _______ _______ _____ _____    ______ ____
ROOT
ATOM      1  C   UNL     1       4.987   5.389  16.662  0.00  0.00    +0.000 A 
ATOM      2  N   UNL     1       4.613   6.671  16.846  0.00  0.00    +0.000 NA
ATOM      3  N   UNL     1       3.767   6.977  17.876  0.00  0.00    +0.000 NA
ATOM      4  C   UNL     1       3.263   6.045  18.708  0.00  0.00    +0.000 A 
ATOM      5  C   UNL     1       2.329   6.397  19.717  0.00  0.00    +0.000 A 
ATOM      6  C   UNL     1       1.859   5.389  20.586  0.00  0.00    +0.000 A 
ATOM      7  C   UNL     1       2.276   4.071  20.462  0.00  0.00    +0.000 A 
ATOM      8  C   UNL     1       3.156   3.726  19.447  0.00  0.00    +0.000 A 
ATOM      9  C   UNL     1       3.670   4.692  18.554  0.00  0.00    +0.000 A 
ATOM     10  C   UNL     1       4.576   4.354  17.510  0.00  0.00    +0.000 A 
ENDROOT
BRANCH   5  11
ATOM     11  C   UNL     1       1.804   7.792  19.875  0.00  0.00    +0.000 A 
ATOM     12  C   UNL     1       1.381   8.274  21.133  0.00  0.00    +0.000 A 
ATOM     13  C   UNL     1       0.859   9.567  21.315  0.00  0.00    +0.000 A 
ATOM     14  C   UNL     1       0.790  10.428  20.210  0.00  0.00    +0.000 A 
ATOM     15  C   UNL     1       0.375  11.755  19.965  0.00  0.00    +0.000 A 
ATOM     16  N   UNL     1       0.537  12.121  18.691  0.00  0.00    +0.000 NA
ATOM     17  N   UNL     1       1.056  11.020  18.117  0.00  0.00    +0.000 N 
ATOM     18  C   UNL     1       1.213   9.964  18.975  0.00  0.00    +0.000 A 
ATOM     19  C   UNL     1       1.691   8.664  18.770  0.00  0.00    +0.000 A 
ATOM     20  H   UNL     1       1.292  11.055  17.131  0.00  0.00    +0.000 HD
ENDBRANCH   5  11
BRANCH   1  22
ATOM     21  N   UNL     1       7.178   5.758  15.661  0.00  0.00    +0.000 N 
ATOM     22  C   UNL     1       5.943   5.178  15.530  0.00  0.00    +0.000 C 
ATOM     23  O   UNL     1       5.668   4.499  14.543  0.00  0.00    +0.000 OA
ATOM     24  H   UNL     1       7.876   5.597  14.950  0.00  0.00    +0.000 HD
ATOM     25  H   UNL     1       7.433   6.245  16.512  0.00  0.00    +0.000 HD
ENDBRANCH   1  22
BRANCH  10  26
ATOM     26  N   UNL     1       4.878   2.996  17.226  0.00  0.00    +0.000 N 
ATOM     27  H   UNL     1       4.329   2.316  17.739  0.00  0.00    +0.000 HD
ATOM     28  H   UNL     1       5.886   2.797  17.297  0.00  0.00    +0.000 HD
ENDBRANCH  10  26
TORSDOF 3
ENDMDL
MODEL 7
REMARK VINA RESULT:      -7.9      2.755      6.940
REMARK  Name = 
REMARK  3 active torsions:
REMARK  status: ('A' for Active; 'I' for Inactive)
REMARK    1  A    between atoms: C_2  and  C_4
REMARK    2  A    between atoms: C_8  and  C_9
REMARK    3  A    between atoms: C_22  and  N_23
REMARK                            x       y       z     vdW  Elec       q    Type
REMARK                         _______ _______ _______ _____ _____    ______ ____
ROOT
ATOM      1  C   UNL     1       5.656   5.078  15.489  0.00  0.00    +0.000 A 
ATOM      2  N   UNL     1       5.270   6.348  15.724  0.00  0.00    +0.000 NA
ATOM      3  N   UNL     1       4.392   6.600  16.741  0.00  0.00    +0.000 NA
ATOM      4  C   UNL     1       3.868   5.627  17.511  0.00  0.00    +0.000 A 
ATOM      5  C   UNL     1       2.902   5.926  18.507  0.00  0.00    +0.000 A 
ATOM      6  C   UNL     1       2.412   4.875  19.312  0.00  0.00    +0.000 A 
ATOM      7  C   UNL     1       2.839   3.566  19.137  0.00  0.00    +0.000 A 
ATOM      8  C   UNL     1       3.752   3.274  18.133  0.00  0.00    +0.000 A 
ATOM      9  C   UNL     1       4.287   4.285  17.304  0.00  0.00    +0.000 A 
ATOM     10  C   UNL     1       5.226   4.002  16.273  0.00  0.00    +0.000 A 
ENDROOT
BRANCH   5  11
ATOM     11  C   UNL     1       2.364   7.309  18.717  0.00  0.00    +0.000 A 
ATOM     12  C   UNL     1       2.333   8.247  17.664  0.00  0.00    +0.000 A 
ATOM     13  C   UNL     1       1.859   9.561  17.830  0.00  0.00    +0.000 A 
ATOM     14  C   UNL     1       1.362   9.945  19.083  0.00  0.00    +0.000 A 
ATOM     15  C   UNL     1       0.795  11.106  19.653  0.00  0.00    +0.000 A 
ATOM     16  N   UNL     1       0.458  10.941  20.935  0.00  0.00    +0.000 NA
ATOM     17  N   UNL     1       0.814   9.668  21.187  0.00  0.00    +0.000 N 
ATOM     18  C   UNL     1       1.380   9.025  20.119  0.00  0.00    +0.000 A 
ATOM     19  C   UNL     1       1.892   7.728  19.981  0.00  0.00    +0.000 A 
ATOM     20  H   UNL     1       0.636   9.291  22.112  0.00  0.00    +0.000 HD
ENDBRANCH   5  11
BRANCH   1  22
ATOM     21  N   UNL     1       7.846   5.571  14.540  0.00  0.00    +0.000 N 
ATOM     22  C   UNL     1       6.647   4.926  14.377  0.00  0.00    +0.000 C 
ATOM     23  O   UNL     1       6.431   4.241  13.380  0.00  0.00    +0.000 OA
ATOM     24  H   UNL     1       8.568   5.452  13.843  0.00  0.00    +0.000 HD
ATOM     25  H   UNL     1       8.056   6.065  15.400  0.00  0.00    +0.000 HD
ENDBRANCH   1  22
BRANCH  10  26
ATOM     26  N   UNL     1       5.544   2.660  15.932  0.00  0.00    +0.000 N 
ATOM     27  H   UNL     1       5.889   2.524  14.990  0.00  0.00    +0.000 HD
ATOM     28  H   UNL     1       4.775   2.010  16.149  0.00  0.00    +0.000 HD
ENDBRANCH  10  26
TORSDOF 3
ENDMDL
MODEL 8
REMARK VINA RESULT:      -7.9      3.483      7.455
REMARK  Name = 
REMARK  3 active torsions:
REMARK  status: ('A' for Active; 'I' for Inactive)
REMARK    1  A    between atoms: C_2  and  C_4
REMARK    2  A    between atoms: C_8  and  C_9
REMARK    3  A    between atoms: C_22  and  N_23
REMARK                            x       y       z     vdW  Elec       q    Type
REMARK                         _______ _______ _______ _____ _____    ______ ____
ROOT
ATOM      1  C   UNL     1       2.901   3.899  20.611  0.00  0.00    +0.000 A 
ATOM      2  N   UNL     1       1.944   4.790  20.938  0.00  0.00    +0.000 NA
ATOM      3  N   UNL     1       1.849   5.956  20.231  0.00  0.00    +0.000 NA
ATOM      4  C   UNL     1       2.692   6.273  19.228  0.00  0.00    +0.000 A 
ATOM      5  C   UNL     1       2.604   7.527  18.570  0.00  0.00    +0.000 A 
ATOM      6  C   UNL     1       3.487   7.794  17.502  0.00  0.00    +0.000 A 
ATOM      7  C   UNL     1       4.440   6.870  17.099  0.00  0.00    +0.000 A 
ATOM      8  C   UNL     1       4.549   5.663  17.774  0.00  0.00    +0.000 A 
ATOM      9  C   UNL     1       3.687   5.334  18.843  0.00  0.00    +0.000 A 
ATOM     10  C   UNL     1       3.784   4.098  19.543  0.00  0.00    +0.000 A 
ENDROOT
BRANCH   5  11
ATOM     11  C   UNL     1       1.628   8.586  18.985  0.00  0.00    +0.000 A 
ATOM     12  C   UNL     1       0.972   9.389  18.028  0.00  0.00    +0.000 A 
ATOM     13  C   UNL     1       0.070  10.409  18.380  0.00  0.00    +0.000 A 
ATOM     14  C   UNL     1      -0.219  10.614  19.737  0.00  0.00    +0.000 A 
ATOM     15  C   UNL     1      -1.044  11.473  20.494  0.00  0.00    +0.000 A 
ATOM     16  N   UNL     1      -0.968  11.241  21.807  0.00  0.00    +0.000 NA
ATOM     17  N   UNL     1      -0.084  10.228  21.890  0.00  0.00    +0.000 N 
ATOM     18  C   UNL     1       0.414   9.822  20.681  0.00  0.00    +0.000 A 
ATOM     19  C   UNL     1       1.350   8.834  20.347  0.00  0.00    +0.000 A 
ATOM     20  H   UNL     1       0.132   9.850  22.806  0.00  0.00    +0.000 HD
ENDBRANCH   5  11
BRANCH   1  22
ATOM     21  N   UNL     1       1.685   2.300  21.991  0.00  0.00    +0.000 N 
ATOM     22  C   UNL     1       2.887   2.645  21.427  0.00  0.00    +0.000 C 
ATOM     23  O   UNL     1       3.877   1.931  21.571  0.00  0.00    +0.000 OA
ATOM     24  H   UNL     1       1.612   1.433  22.503  0.00  0.00    +0.000 HD
ATOM     25  H   UNL     1       0.850   2.843  21.802  0.00  0.00    +0.000 HD
ENDBRANCH   1  22
BRANCH  10  26
ATOM     26  N   UNL     1       4.863   3.209  19.294  0.00  0.00    +0.000 N 
ATOM     27  H   UNL     1       5.775   3.548  19.575  0.00  0.00    +0.000 HD
ATOM     28  H   UNL     1       4.871   2.868  18.323  0.00  0.00    +0.000 HD
ENDBRANCH  10  26
TORSDOF 3
ENDMDL
MODEL 9
REMARK VINA RESULT:      -7.9      2.619      6.932
REMARK  Name = 
REMARK  3 active torsions:
REMARK  status: ('A' for Active; 'I' for Inactive)
REMARK    1  A    between atoms: C_2  and  C_4
REMARK    2  A    between atoms: C_8  and  C_9
REMARK    3  A    between atoms: C_22  and  N_23
REMARK                            x       y       z     vdW  Elec       q    Type
REMARK                         _______ _______ _______ _____ _____    ______ ____
ROOT
ATOM      1  C   UNL     1       4.993   5.388  16.582  0.00  0.00    +0.000 A 
ATOM      2  N   UNL     1       4.615   6.669  16.764  0.00  0.00    +0.000 NA
ATOM      3  N   UNL     1       3.767   6.974  17.793  0.00  0.00    +0.000 NA
ATOM      4  C   UNL     1       3.267   6.041  18.627  0.00  0.00    +0.000 A 
ATOM      5  C   UNL     1       2.332   6.392  19.635  0.00  0.00    +0.000 A 
ATOM      6  C   UNL     1       1.866   5.385  20.506  0.00  0.00    +0.000 A 
ATOM      7  C   UNL     1       2.287   4.068  20.385  0.00  0.00    +0.000 A 
ATOM      8  C   UNL     1       3.169   3.724  19.370  0.00  0.00    +0.000 A 
ATOM      9  C   UNL     1       3.679   4.690  18.476  0.00  0.00    +0.000 A 
ATOM     10  C   UNL     1       4.586   4.353  17.432  0.00  0.00    +0.000 A 
ENDROOT
BRANCH   5  11
ATOM     11  C   UNL     1       1.801   7.785  19.791  0.00  0.00    +0.000 A 
ATOM     12  C   UNL     1       1.692   8.653  18.683  0.00  0.00    +0.000 A 
ATOM     13  C   UNL     1       1.223   9.974  18.795  0.00  0.00    +0.000 A 
ATOM     14  C   UNL     1       0.810  10.438  20.052  0.00  0.00    +0.000 A 
ATOM     15  C   UNL     1       0.276  11.633  20.582  0.00  0.00    +0.000 A 
ATOM     16  N   UNL     1       0.028  11.552  21.892  0.00  0.00    +0.000 NA
ATOM     17  N   UNL     1       0.409  10.299  22.202  0.00  0.00    +0.000 N 
ATOM     18  C   UNL     1       0.904   9.588  21.142  0.00  0.00    +0.000 A 
ATOM     19  C   UNL     1       1.414   8.286  21.054  0.00  0.00    +0.000 A 
ATOM     20  H   UNL     1       0.296   9.983  23.159  0.00  0.00    +0.000 HD
ENDBRANCH   5  11
BRANCH   1  22
ATOM     21  N   UNL     1       7.197   5.728  15.599  0.00  0.00    +0.000 N 
ATOM     22  C   UNL     1       5.950   5.178  15.450  0.00  0.00    +0.000 C 
ATOM     23  O   UNL     1       5.665   4.526  14.449  0.00  0.00    +0.000 OA
ATOM     24  H   UNL     1       7.895   5.565  14.887  0.00  0.00    +0.000 HD
ATOM     25  H   UNL     1       7.458   6.192  16.461  0.00  0.00    +0.000 HD
ENDBRANCH   1  22
BRANCH  10  26
ATOM     26  N   UNL     1       4.893   2.995  17.151  0.00  0.00    +0.000 N 
ATOM     27  H   UNL     1       4.102   2.363  17.163  0.00  0.00    +0.000 HD
ATOM     28  H   UNL     1       5.666   2.642  17.732  0.00  0.00    +0.000 HD
ENDBRANCH  10  26
TORSDOF 3
ENDMDL
