MODEL 1
REMARK VINA RESULT:      -8.2      0.000      0.000
REMARK  Name = 
REMARK  8 active torsions:
REMARK  status: ('A' for Active; 'I' for Inactive)
REMARK    1  A    between atoms: C_1  and  C_2
REMARK    2  A    between atoms: C_2  and  C_3
REMARK    3  A    between atoms: C_4  and  C_5
REMARK    4  A    between atoms: N_10  and  N_11
REMARK    5  A    between atoms: C_12  and  C_14
REMARK    6  A    between atoms: C_14  and  N_15
REMARK    7  A    between atoms: N_15  and  C_16
REMARK    8  A    between atoms: C_20  and  C_21
REMARK                            x       y       z     vdW  Elec       q    Type
REMARK                         _______ _______ _______ _____ _____    ______ ____
ROOT
ATOM      1  N   UNL     1       6.005   6.172  16.813  0.00  0.00    +0.000 N 
ATOM      2  C   UNL     1       6.410   5.158  15.949  0.00  0.00    +0.000 C 
ATOM      3  O   UNL     1       7.365   5.206  15.175  0.00  0.00    +0.000 OA
ATOM      4  H   UNL     1       4.992   6.267  16.886  0.00  0.00    +0.000 HD
ENDROOT
BRANCH   1   7
ATOM      5  C   UNL     1       8.002   6.546  18.829  0.00  0.00    +0.000 C 
ATOM      6  C   UNL     1       7.580   7.569  17.790  0.00  0.00    +0.000 C 
ATOM      7  N   UNL     1       6.644   7.380  16.895  0.00  0.00    +0.000 NA
BRANCH   6   8
ATOM      8  C   UNL     1       8.216   8.924  17.795  0.00  0.00    +0.000 C 
ATOM      9  C   UNL     1       8.880   9.433  18.841  0.00  0.00    +0.000 C 
BRANCH   9  10
ATOM     10  C   UNL     1       9.380  10.763  18.834  0.00  0.00    +0.000 A 
ATOM     11  C   UNL     1      10.149  11.385  19.812  0.00  0.00    +0.000 A 
ATOM     12  C   UNL     1      10.395  12.711  19.397  0.00  0.00    +0.000 A 
ATOM     13  C   UNL     1       9.770  12.841  18.181  0.00  0.00    +0.000 A 
ATOM     14  O   UNL     1       9.158  11.684  17.835  0.00  0.00    +0.000 OA
ENDBRANCH   9  10
ENDBRANCH   6   8
ENDBRANCH   1   7
BRANCH   2  15
ATOM     15  C   UNL     1       5.494   3.937  15.992  0.00  0.00    +0.000 C 
BRANCH  15  16
ATOM     16  N   UNL     1       5.283   3.599  17.391  0.00  0.00    +0.000 N 
ATOM     17  H   UNL     1       6.000   4.012  17.993  0.00  0.00    +0.000 HD
BRANCH  16  18
ATOM     18  C   UNL     1       4.021   3.684  17.970  0.00  0.00    +0.000 A 
ATOM     19  C   UNL     1       2.858   4.010  17.271  0.00  0.00    +0.000 A 
ATOM     20  C   UNL     1       1.610   3.986  17.904  0.00  0.00    +0.000 A 
ATOM     21  C   UNL     1       1.512   3.599  19.240  0.00  0.00    +0.000 A 
ATOM     22  C   UNL     1       2.654   3.237  19.953  0.00  0.00    +0.000 A 
ATOM     23  C   UNL     1       2.580   2.787  21.379  0.00  0.00    +0.000 C 
ATOM     24  C   UNL     1       3.898   3.288  19.308  0.00  0.00    +0.000 A 
ENDBRANCH  16  18
ENDBRANCH  15  16
ENDBRANCH   2  15
TORSDOF 6
ENDMDL
MODEL 2
REMARK VINA RESULT:      -7.9      0.985      1.341
REMARK  Name = 
REMARK  8 active torsions:
REMARK  status: ('A' for Active; 'I' for Inactive)
REMARK    1  A    between atoms: C_1  and  C_2
REMARK    2  A    between atoms: C_2  and  C_3
REMARK    3  A    between atoms: C_4  and  C_5
REMARK    4  A    between atoms: N_10  and  N_11
REMARK    5  A    between atoms: C_12  and  C_14
REMARK    6  A    between atoms: C_14  and  N_15
REMARK    7  A    between atoms: N_15  and  C_16
REMARK    8  A    between atoms: C_20  and  C_21
REMARK                            x       y       z     vdW  Elec       q    Type
REMARK                         _______ _______ _______ _____ _____    ______ ____
ROOT
ATOM      1  N   UNL     1       6.090   6.160  16.861  0.00  0.00    +0.000 N 
ATOM      2  C   UNL     1       6.448   5.150  15.973  0.00  0.00    +0.000 C 
ATOM      3  O   UNL     1       7.336   5.214  15.123  0.00  0.00    +0.000 OA
ATOM      4  H   UNL     1       5.085   6.234  17.015  0.00  0.00    +0.000 HD
ENDROOT
BRANCH   1   7
ATOM      5  C   UNL     1       8.080   6.668  18.855  0.00  0.00    +0.000 C 
ATOM      6  C   UNL     1       7.639   7.633  17.768  0.00  0.00    +0.000 C 
ATOM      7  N   UNL     1       6.706   7.383  16.885  0.00  0.00    +0.000 NA
BRANCH   6   8
ATOM      8  C   UNL     1       8.249   8.999  17.708  0.00  0.00    +0.000 C 
ATOM      9  C   UNL     1       8.888   9.576  18.733  0.00  0.00    +0.000 C 
BRANCH   9  10
ATOM     10  C   UNL     1       9.363  10.913  18.661  0.00  0.00    +0.000 A 
ATOM     11  C   UNL     1       8.862  11.950  17.881  0.00  0.00    +0.000 A 
ATOM     12  C   UNL     1       9.657  13.093  18.111  0.00  0.00    +0.000 A 
ATOM     13  C   UNL     1      10.605  12.708  19.026  0.00  0.00    +0.000 A 
ATOM     14  O   UNL     1      10.441  11.406  19.360  0.00  0.00    +0.000 OA
ENDBRANCH   9  10
ENDBRANCH   6   8
ENDBRANCH   1   7
BRANCH   2  15
ATOM     15  C   UNL     1       5.566   3.910  16.095  0.00  0.00    +0.000 C 
BRANCH  15  16
ATOM     16  N   UNL     1       4.227   4.359  16.445  0.00  0.00    +0.000 N 
ATOM     17  H   UNL     1       3.648   4.505  15.614  0.00  0.00    +0.000 HD
BRANCH  16  18
ATOM     18  C   UNL     1       3.506   3.747  17.466  0.00  0.00    +0.000 A 
ATOM     19  C   UNL     1       3.472   2.370  17.685  0.00  0.00    +0.000 A 
ATOM     20  C   UNL     1       2.797   1.836  18.789  0.00  0.00    +0.000 A 
ATOM     21  C   UNL     1       2.177   2.684  19.706  0.00  0.00    +0.000 A 
ATOM     22  C   UNL     1       2.223   4.066  19.527  0.00  0.00    +0.000 A 
ATOM     23  C   UNL     1       1.595   5.005  20.510  0.00  0.00    +0.000 C 
ATOM     24  C   UNL     1       2.885   4.582  18.405  0.00  0.00    +0.000 A 
ENDBRANCH  16  18
ENDBRANCH  15  16
ENDBRANCH   2  15
TORSDOF 6
ENDMDL
MODEL 3
REMARK VINA RESULT:      -7.7      1.322      1.384
REMARK  Name = 
REMARK  8 active torsions:
REMARK  status: ('A' for Active; 'I' for Inactive)
REMARK    1  A    between atoms: C_1  and  C_2
REMARK    2  A    between atoms: C_2  and  C_3
REMARK    3  A    between atoms: C_4  and  C_5
REMARK    4  A    between atoms: N_10  and  N_11
REMARK    5  A    between atoms: C_12  and  C_14
REMARK    6  A    between atoms: C_14  and  N_15
REMARK    7  A    between atoms: N_15  and  C_16
REMARK    8  A    between atoms: C_20  and  C_21
REMARK                            x       y       z     vdW  Elec       q    Type
REMARK                         _______ _______ _______ _____ _____    ______ ____
ROOT
ATOM      1  N   UNL     1       6.598   6.392  16.472  0.00  0.00    +0.000 N 
ATOM      2  C   UNL     1       5.215   6.230  16.501  0.00  0.00    +0.000 C 
ATOM      3  O   UNL     1       4.399   7.044  16.932  0.00  0.00    +0.000 OA
ATOM      4  H   UNL     1       7.115   5.542  16.694  0.00  0.00    +0.000 HD
ENDROOT
BRANCH   1   7
ATOM      5  C   UNL     1       7.965   6.265  18.984  0.00  0.00    +0.000 C 
ATOM      6  C   UNL     1       7.881   7.478  18.075  0.00  0.00    +0.000 C 
ATOM      7  N   UNL     1       7.225   7.515  16.942  0.00  0.00    +0.000 NA
BRANCH   6   8
ATOM      8  C   UNL     1       8.530   8.758  18.498  0.00  0.00    +0.000 C 
ATOM      9  C   UNL     1       8.401   9.915  17.836  0.00  0.00    +0.000 C 
BRANCH   9  10
ATOM     10  C   UNL     1       9.117  11.080  18.219  0.00  0.00    +0.000 A 
ATOM     11  C   UNL     1      10.183  11.166  19.109  0.00  0.00    +0.000 A 
ATOM     12  C   UNL     1      10.565  12.522  19.202  0.00  0.00    +0.000 A 
ATOM     13  C   UNL     1       9.720  13.204  18.362  0.00  0.00    +0.000 A 
ATOM     14  O   UNL     1       8.849  12.354  17.770  0.00  0.00    +0.000 OA
ENDBRANCH   9  10
ENDBRANCH   6   8
ENDBRANCH   1   7
BRANCH   2  15
ATOM     15  C   UNL     1       4.766   4.865  15.987  0.00  0.00    +0.000 C 
BRANCH  15  16
ATOM     16  N   UNL     1       4.691   3.970  17.132  0.00  0.00    +0.000 N 
ATOM     17  H   UNL     1       5.450   4.141  17.796  0.00  0.00    +0.000 HD
BRANCH  16  18
ATOM     18  C   UNL     1       3.485   3.736  17.786  0.00  0.00    +0.000 A 
ATOM     19  C   UNL     1       2.660   2.639  17.540  0.00  0.00    +0.000 A 
ATOM     20  C   UNL     1       1.507   2.423  18.302  0.00  0.00    +0.000 A 
ATOM     21  C   UNL     1       1.188   3.289  19.347  0.00  0.00    +0.000 A 
ATOM     22  C   UNL     1       2.012   4.376  19.635  0.00  0.00    +0.000 A 
ATOM     23  C   UNL     1       1.716   5.308  20.769  0.00  0.00    +0.000 C 
ATOM     24  C   UNL     1       3.152   4.589  18.846  0.00  0.00    +0.000 A 
ENDBRANCH  16  18
ENDBRANCH  15  16
ENDBRANCH   2  15
TORSDOF 6
ENDMDL
MODEL 4
REMARK VINA RESULT:      -7.6      1.323      1.572
REMARK  Name = 
REMARK  8 active torsions:
REMARK  status: ('A' for Active; 'I' for Inactive)
REMARK    1  A    between atoms: C_1  and  C_2
REMARK    2  A    between atoms: C_2  and  C_3
REMARK    3  A    between atoms: C_4  and  C_5
REMARK    4  A    between atoms: N_10  and  N_11
REMARK    5  A    between atoms: C_12  and  C_14
REMARK    6  A    between atoms: C_14  and  N_15
REMARK    7  A    between atoms: N_15  and  C_16
REMARK    8  A    between atoms: C_20  and  C_21
REMARK                            x       y       z     vdW  Elec       q    Type
REMARK                         _______ _______ _______ _____ _____    ______ ____
ROOT
ATOM      1  N   UNL     1       6.798   5.454  16.597  0.00  0.00    +0.000 N 
ATOM      2  C   UNL     1       5.675   5.590  15.785  0.00  0.00    +0.000 C 
ATOM      3  O   UNL     1       5.207   6.648  15.368  0.00  0.00    +0.000 OA
ATOM      4  H   UNL     1       6.704   4.731  17.309  0.00  0.00    +0.000 HD
ENDROOT
BRANCH   1   7
ATOM      5  C   UNL     1       7.215   5.771  19.411  0.00  0.00    +0.000 C 
ATOM      6  C   UNL     1       7.758   6.678  18.321  0.00  0.00    +0.000 C 
ATOM      7  N   UNL     1       7.529   6.524  17.041  0.00  0.00    +0.000 NA
BRANCH   6   8
ATOM      8  C   UNL     1       8.567   7.879  18.701  0.00  0.00    +0.000 C 
ATOM      9  C   UNL     1       8.273   9.128  18.319  0.00  0.00    +0.000 C 
BRANCH   9  10
ATOM     10  C   UNL     1       9.126  10.223  18.620  0.00  0.00    +0.000 A 
ATOM     11  C   UNL     1       9.764  11.073  17.723  0.00  0.00    +0.000 A 
ATOM     12  C   UNL     1      10.527  12.000  18.466  0.00  0.00    +0.000 A 
ATOM     13  C   UNL     1      10.319  11.678  19.784  0.00  0.00    +0.000 A 
ATOM     14  O   UNL     1       9.485  10.617  19.890  0.00  0.00    +0.000 OA
ENDBRANCH   9  10
ENDBRANCH   6   8
ENDBRANCH   1   7
BRANCH   2  15
ATOM     15  C   UNL     1       4.994   4.257  15.484  0.00  0.00    +0.000 C 
BRANCH  15  16
ATOM     16  N   UNL     1       4.842   3.550  16.747  0.00  0.00    +0.000 N 
ATOM     17  H   UNL     1       5.638   3.712  17.370  0.00  0.00    +0.000 HD
BRANCH  16  18
ATOM     18  C   UNL     1       3.638   3.570  17.444  0.00  0.00    +0.000 A 
ATOM     19  C   UNL     1       2.688   2.550  17.399  0.00  0.00    +0.000 A 
ATOM     20  C   UNL     1       1.542   2.600  18.199  0.00  0.00    +0.000 A 
ATOM     21  C   UNL     1       1.353   3.662  19.083  0.00  0.00    +0.000 A 
ATOM     22  C   UNL     1       2.302   4.680  19.171  0.00  0.00    +0.000 A 
ATOM     23  C   UNL     1       2.146   5.818  20.131  0.00  0.00    +0.000 C 
ATOM     24  C   UNL     1       3.434   4.623  18.346  0.00  0.00    +0.000 A 
ENDBRANCH  16  18
ENDBRANCH  15  16
ENDBRANCH   2  15
TORSDOF 6
ENDMDL
MODEL 5
REMARK VINA RESULT:      -7.5      0.887      1.098
REMARK  Name = 
REMARK  8 active torsions:
REMARK  status: ('A' for Active; 'I' for Inactive)
REMARK    1  A    between atoms: C_1  and  C_2
REMARK    2  A    between atoms: C_2  and  C_3
REMARK    3  A    between atoms: C_4  and  C_5
REMARK    4  A    between atoms: N_10  and  N_11
REMARK    5  A    between atoms: C_12  and  C_14
REMARK    6  A    between atoms: C_14  and  N_15
REMARK    7  A    between atoms: N_15  and  C_16
REMARK    8  A    between atoms: C_20  and  C_21
REMARK                            x       y       z     vdW  Elec       q    Type
REMARK                         _______ _______ _______ _____ _____    ______ ____
ROOT
ATOM      1  N   UNL     1       6.354   6.004  16.849  0.00  0.00    +0.000 N 
ATOM      2  C   UNL     1       6.447   5.187  15.725  0.00  0.00    +0.000 C 
ATOM      3  O   UNL     1       7.021   5.466  14.673  0.00  0.00    +0.000 OA
ATOM      4  H   UNL     1       5.446   5.964  17.311  0.00  0.00    +0.000 HD
ENDROOT
BRANCH   1   7
ATOM      5  C   UNL     1       8.072   6.654  19.044  0.00  0.00    +0.000 C 
ATOM      6  C   UNL     1       7.719   7.570  17.886  0.00  0.00    +0.000 C 
ATOM      7  N   UNL     1       6.909   7.255  16.908  0.00  0.00    +0.000 NA
BRANCH   6   8
ATOM      8  C   UNL     1       8.271   8.961  17.857  0.00  0.00    +0.000 C 
ATOM      9  C   UNL     1       9.021   9.487  18.834  0.00  0.00    +0.000 C 
BRANCH   9  10
ATOM     10  C   UNL     1       9.438  10.844  18.808  0.00  0.00    +0.000 A 
ATOM     11  C   UNL     1      10.199  11.480  17.832  0.00  0.00    +0.000 A 
ATOM     12  C   UNL     1      10.390  12.820  18.231  0.00  0.00    +0.000 A 
ATOM     13  C   UNL     1       9.734  12.947  19.430  0.00  0.00    +0.000 A 
ATOM     14  O   UNL     1       9.163  11.772  19.787  0.00  0.00    +0.000 OA
ENDBRANCH   9  10
ENDBRANCH   6   8
ENDBRANCH   1   7
BRANCH   2  15
ATOM     15  C   UNL     1       5.687   3.873  15.880  0.00  0.00    +0.000 C 
BRANCH  15  16
ATOM     16  N   UNL     1       4.280   4.199  16.054  0.00  0.00    +0.000 N 
ATOM     17  H   UNL     1       3.739   4.009  15.206  0.00  0.00    +0.000 HD
BRANCH  16  18
ATOM     18  C   UNL     1       3.587   3.813  17.197  0.00  0.00    +0.000 A 
ATOM     19  C   UNL     1       2.199   3.871  17.330  0.00  0.00    +0.000 A 
ATOM     20  C   UNL     1       1.567   3.379  18.477  0.00  0.00    +0.000 A 
ATOM     21  C   UNL     1       2.320   2.788  19.491  0.00  0.00    +0.000 A 
ATOM     22  C   UNL     1       3.706   2.688  19.370  0.00  0.00    +0.000 A 
ATOM     23  C   UNL     1       4.541   2.032  20.425  0.00  0.00    +0.000 C 
ATOM     24  C   UNL     1       4.324   3.207  18.223  0.00  0.00    +0.000 A 
ENDBRANCH  16  18
ENDBRANCH  15  16
ENDBRANCH   2  15
TORSDOF 6
ENDMDL
MODEL 6
REMARK VINA RESULT:      -7.4      1.173      1.619
REMARK  Name = 
REMARK  8 active torsions:
REMARK  status: ('A' for Active; 'I' for Inactive)
REMARK    1  A    between atoms: C_1  and  C_2
REMARK    2  A    between atoms: C_2  and  C_3
REMARK    3  A    between atoms: C_4  and  C_5
REMARK    4  A    between atoms: N_10  and  N_11
REMARK    5  A    between atoms: C_12  and  C_14
REMARK    6  A    between atoms: C_14  and  N_15
REMARK    7  A    between atoms: N_15  and  C_16
REMARK    8  A    between atoms: C_20  and  C_21
REMARK                            x       y       z     vdW  Elec       q    Type
REMARK                         _______ _______ _______ _____ _____    ______ ____
ROOT
ATOM      1  N   UNL     1       6.770   6.374  16.497  0.00  0.00    +0.000 N 
ATOM      2  C   UNL     1       5.425   6.017  16.548  0.00  0.00    +0.000 C 
ATOM      3  O   UNL     1       4.489   6.761  16.839  0.00  0.00    +0.000 OA
ATOM      4  H   UNL     1       7.398   5.656  16.855  0.00  0.00    +0.000 HD
ENDROOT
BRANCH   1   7
ATOM      5  C   UNL     1       8.189   6.823  18.943  0.00  0.00    +0.000 C 
ATOM      6  C   UNL     1       7.891   7.865  17.880  0.00  0.00    +0.000 C 
ATOM      7  N   UNL     1       7.216   7.638  16.781  0.00  0.00    +0.000 NA
BRANCH   6   8
ATOM      8  C   UNL     1       8.333   9.279  18.095  0.00  0.00    +0.000 C 
ATOM      9  C   UNL     1       9.143   9.665  19.089  0.00  0.00    +0.000 C 
BRANCH   9  10
ATOM     10  C   UNL     1       9.454  11.033  19.312  0.00  0.00    +0.000 A 
ATOM     11  C   UNL     1      10.202  11.574  20.352  0.00  0.00    +0.000 A 
ATOM     12  C   UNL     1      10.233  12.975  20.187  0.00  0.00    +0.000 A 
ATOM     13  C   UNL     1       9.505  13.230  19.050  0.00  0.00    +0.000 A 
ATOM     14  O   UNL     1       9.033  12.077  18.520  0.00  0.00    +0.000 OA
ENDBRANCH   9  10
ENDBRANCH   6   8
ENDBRANCH   1   7
BRANCH   2  15
ATOM     15  C   UNL     1       5.191   4.537  16.260  0.00  0.00    +0.000 C 
BRANCH  15  16
ATOM     16  N   UNL     1       3.845   4.212  16.707  0.00  0.00    +0.000 N 
ATOM     17  H   UNL     1       3.304   3.747  15.973  0.00  0.00    +0.000 HD
BRANCH  16  18
ATOM     18  C   UNL     1       3.620   3.631  17.951  0.00  0.00    +0.000 A 
ATOM     19  C   UNL     1       4.604   2.999  18.711  0.00  0.00    +0.000 A 
ATOM     20  C   UNL     1       4.322   2.518  19.994  0.00  0.00    +0.000 A 
ATOM     21  C   UNL     1       3.053   2.699  20.544  0.00  0.00    +0.000 A 
ATOM     22  C   UNL     1       2.060   3.355  19.819  0.00  0.00    +0.000 A 
ATOM     23  C   UNL     1       0.697   3.594  20.392  0.00  0.00    +0.000 C 
ATOM     24  C   UNL     1       2.355   3.811  18.526  0.00  0.00    +0.000 A 
ENDBRANCH  16  18
ENDBRANCH  15  16
ENDBRANCH   2  15
TORSDOF 6
ENDMDL
MODEL 7
REMARK VINA RESULT:      -7.4      5.050      7.095
REMARK  Name = 
REMARK  8 active torsions:
REMARK  status: ('A' for Active; 'I' for Inactive)
REMARK    1  A    between atoms: C_1  and  C_2
REMARK    2  A    between atoms: C_2  and  C_3
REMARK    3  A    between atoms: C_4  and  C_5
REMARK    4  A    between atoms: N_10  and  N_11
REMARK    5  A    between atoms: C_12  and  C_14
REMARK    6  A    between atoms: C_14  and  N_15
REMARK    7  A    between atoms: N_15  and  C_16
REMARK    8  A    between atoms: C_20  and  C_21
REMARK                            x       y       z     vdW  Elec       q    Type
REMARK                         _______ _______ _______ _____ _____    ______ ____
ROOT
ATOM      1  N   UNL     1       3.025   5.121  19.537  0.00  0.00    +0.000 N 
ATOM      2  C   UNL     1       3.075   3.885  20.177  0.00  0.00    +0.000 C 
ATOM      3  O   UNL     1       2.549   3.604  21.253  0.00  0.00    +0.000 OA
ATOM      4  H   UNL     1       3.901   5.386  19.088  0.00  0.00    +0.000 HD
ENDROOT
BRANCH   1   7
ATOM      5  C   UNL     1       2.917   7.541  18.013  0.00  0.00    +0.000 C 
ATOM      6  C   UNL     1       2.275   7.312  19.370  0.00  0.00    +0.000 C 
ATOM      7  N   UNL     1       2.364   6.201  20.058  0.00  0.00    +0.000 NA
BRANCH   6   8
ATOM      8  C   UNL     1       1.532   8.432  20.029  0.00  0.00    +0.000 C 
ATOM      9  C   UNL     1       1.066   8.382  21.284  0.00  0.00    +0.000 C 
BRANCH   9  10
ATOM     10  C   UNL     1       0.279   9.430  21.831  0.00  0.00    +0.000 A 
ATOM     11  C   UNL     1       0.112  10.716  21.329  0.00  0.00    +0.000 A 
ATOM     12  C   UNL     1      -0.736  11.422  22.210  0.00  0.00    +0.000 A 
ATOM     13  C   UNL     1      -1.053  10.536  23.209  0.00  0.00    +0.000 A 
ATOM     14  O   UNL     1      -0.451   9.342  22.995  0.00  0.00    +0.000 OA
ENDBRANCH   9  10
ENDBRANCH   6   8
ENDBRANCH   1   7
BRANCH   2  15
ATOM     15  C   UNL     1       3.932   2.864  19.432  0.00  0.00    +0.000 C 
BRANCH  15  16
ATOM     16  N   UNL     1       5.259   3.439  19.275  0.00  0.00    +0.000 N 
ATOM     17  H   UNL     1       5.994   2.765  19.505  0.00  0.00    +0.000 HD
BRANCH  16  18
ATOM     18  C   UNL     1       5.591   4.190  18.152  0.00  0.00    +0.000 A 
ATOM     19  C   UNL     1       5.059   3.975  16.880  0.00  0.00    +0.000 A 
ATOM     20  C   UNL     1       5.371   4.830  15.818  0.00  0.00    +0.000 A 
ATOM     21  C   UNL     1       6.196   5.935  16.029  0.00  0.00    +0.000 A 
ATOM     22  C   UNL     1       6.715   6.191  17.297  0.00  0.00    +0.000 A 
ATOM     23  C   UNL     1       7.578   7.385  17.566  0.00  0.00    +0.000 C 
ATOM     24  C   UNL     1       6.409   5.311  18.345  0.00  0.00    +0.000 A 
ENDBRANCH  16  18
ENDBRANCH  15  16
ENDBRANCH   2  15
TORSDOF 6
ENDMDL
MODEL 8
REMARK VINA RESULT:      -7.3      1.066      1.297
REMARK  Name = 
REMARK  8 active torsions:
REMARK  status: ('A' for Active; 'I' for Inactive)
REMARK    1  A    between atoms: C_1  and  C_2
REMARK    2  A    between atoms: C_2  and  C_3
REMARK    3  A    between atoms: C_4  and  C_5
REMARK    4  A    between atoms: N_10  and  N_11
REMARK    5  A    between atoms: C_12  and  C_14
REMARK    6  A    between atoms: C_14  and  N_15
REMARK    7  A    between atoms: N_15  and  C_16
REMARK    8  A    between atoms: C_20  and  C_21
REMARK                            x       y       z     vdW  Elec       q    Type
REMARK                         _______ _______ _______ _____ _____    ______ ____
ROOT
ATOM      1  N   UNL     1       6.742   5.486  17.907  0.00  0.00    +0.000 N 
ATOM      2  C   UNL     1       6.828   4.739  16.735  0.00  0.00    +0.000 C 
ATOM      3  O   UNL     1       7.732   4.801  15.902  0.00  0.00    +0.000 OA
ATOM      4  H   UNL     1       5.796   5.796  18.126  0.00  0.00    +0.000 HD
ENDROOT
BRANCH   1   7
ATOM      5  C   UNL     1       6.388   8.214  17.116  0.00  0.00    +0.000 C 
ATOM      6  C   UNL     1       7.534   7.668  17.947  0.00  0.00    +0.000 C 
ATOM      7  N   UNL     1       7.685   6.409  18.272  0.00  0.00    +0.000 NA
BRANCH   6   8
ATOM      8  C   UNL     1       8.621   8.594  18.396  0.00  0.00    +0.000 C 
ATOM      9  C   UNL     1       8.559   9.927  18.284  0.00  0.00    +0.000 C 
BRANCH   9  10
ATOM     10  C   UNL     1       9.657  10.759  18.631  0.00  0.00    +0.000 A 
ATOM     11  C   UNL     1      10.537  11.406  17.770  0.00  0.00    +0.000 A 
ATOM     12  C   UNL     1      11.483  12.101  18.553  0.00  0.00    +0.000 A 
ATOM     13  C   UNL     1      11.138  11.853  19.858  0.00  0.00    +0.000 A 
ATOM     14  O   UNL     1      10.050  11.050  19.918  0.00  0.00    +0.000 OA
ENDBRANCH   9  10
ENDBRANCH   6   8
ENDBRANCH   1   7
BRANCH   2  15
ATOM     15  C   UNL     1       5.620   3.832  16.516  0.00  0.00    +0.000 C 
BRANCH  15  16
ATOM     16  N   UNL     1       5.195   3.350  17.821  0.00  0.00    +0.000 N 
ATOM     17  H   UNL     1       5.870   3.589  18.552  0.00  0.00    +0.000 HD
BRANCH  16  18
ATOM     18  C   UNL     1       3.886   3.523  18.262  0.00  0.00    +0.000 A 
ATOM     19  C   UNL     1       2.805   3.789  17.422  0.00  0.00    +0.000 A 
ATOM     20  C   UNL     1       1.503   3.861  17.929  0.00  0.00    +0.000 A 
ATOM     21  C   UNL     1       1.267   3.629  19.283  0.00  0.00    +0.000 A 
ATOM     22  C   UNL     1       2.326   3.330  20.139  0.00  0.00    +0.000 A 
ATOM     23  C   UNL     1       2.104   3.046  21.593  0.00  0.00    +0.000 C 
ATOM     24  C   UNL     1       3.626   3.284  19.618  0.00  0.00    +0.000 A 
ENDBRANCH  16  18
ENDBRANCH  15  16
ENDBRANCH   2  15
TORSDOF 6
ENDMDL
MODEL 9
REMARK VINA RESULT:      -7.3      1.187      1.539
REMARK  Name = 
REMARK  8 active torsions:
REMARK  status: ('A' for Active; 'I' for Inactive)
REMARK    1  A    between atoms: C_1  and  C_2
REMARK    2  A    between atoms: C_2  and  C_3
REMARK    3  A    between atoms: C_4  and  C_5
REMARK    4  A    between atoms: N_10  and  N_11
REMARK    5  A    between atoms: C_12  and  C_14
REMARK    6  A    between atoms: C_14  and  N_15
REMARK    7  A    between atoms: N_15  and  C_16
REMARK    8  A    between atoms: C_20  and  C_21
REMARK                            x       y       z     vdW  Elec       q    Type
REMARK                         _______ _______ _______ _____ _____    ______ ____
ROOT
ATOM      1  N   UNL     1       6.667   5.954  16.472  0.00  0.00    +0.000 N 
ATOM      2  C   UNL     1       5.294   5.728  16.516  0.00  0.00    +0.000 C 
ATOM      3  O   UNL     1       4.421   6.589  16.613  0.00  0.00    +0.000 OA
ATOM      4  H   UNL     1       7.212   5.265  16.990  0.00  0.00    +0.000 HD
ENDROOT
BRANCH   1   7
ATOM      5  C   UNL     1       8.044   6.729  18.859  0.00  0.00    +0.000 C 
ATOM      6  C   UNL     1       7.876   7.577  17.610  0.00  0.00    +0.000 C 
ATOM      7  N   UNL     1       7.217   7.206  16.541  0.00  0.00    +0.000 NA
BRANCH   6   8
ATOM      8  C   UNL     1       8.439   8.963  17.584  0.00  0.00    +0.000 C 
ATOM      9  C   UNL     1       8.773   9.654  18.681  0.00  0.00    +0.000 C 
BRANCH   9  10
ATOM     10  C   UNL     1       9.208  11.004  18.611  0.00  0.00    +0.000 A 
ATOM     11  C   UNL     1      10.331  11.566  19.211  0.00  0.00    +0.000 A 
ATOM     12  C   UNL     1      10.357  12.940  18.890  0.00  0.00    +0.000 A 
ATOM     13  C   UNL     1       9.251  13.158  18.105  0.00  0.00    +0.000 A 
ATOM     14  O   UNL     1       8.556  12.010  17.933  0.00  0.00    +0.000 OA
ENDBRANCH   9  10
ENDBRANCH   6   8
ENDBRANCH   1   7
BRANCH   2  15
ATOM     15  C   UNL     1       4.934   4.244  16.494  0.00  0.00    +0.000 C 
BRANCH  15  16
ATOM     16  N   UNL     1       5.012   3.756  17.863  0.00  0.00    +0.000 N 
ATOM     17  H   UNL     1       5.863   4.078  18.331  0.00  0.00    +0.000 HD
BRANCH  16  18
ATOM     18  C   UNL     1       3.911   3.813  18.712  0.00  0.00    +0.000 A 
ATOM     19  C   UNL     1       3.783   4.712  19.771  0.00  0.00    +0.000 A 
ATOM     20  C   UNL     1       2.606   4.771  20.524  0.00  0.00    +0.000 A 
ATOM     21  C   UNL     1       1.527   3.949  20.200  0.00  0.00    +0.000 A 
ATOM     22  C   UNL     1       1.617   3.063  19.127  0.00  0.00    +0.000 A 
ATOM     23  C   UNL     1       0.467   2.189  18.732  0.00  0.00    +0.000 C 
ATOM     24  C   UNL     1       2.812   3.003  18.397  0.00  0.00    +0.000 A 
ENDBRANCH  16  18
ENDBRANCH  15  16
ENDBRANCH   2  15
TORSDOF 6
ENDMDL
