MODEL 1
REMARK VINA RESULT:      -8.8      0.000      0.000
REMARK  Name = 
REMARK  4 active torsions:
REMARK  status: ('A' for Active; 'I' for Inactive)
REMARK    1  A    between atoms: C_2  and  C_3
REMARK    2  A    between atoms: C_2  and  C_12
REMARK    3  A    between atoms: C_4  and  C_5
REMARK    4  A    between atoms: C_15  and  N_16
REMARK                            x       y       z     vdW  Elec       q    Type
REMARK                         _______ _______ _______ _____ _____    ______ ____
ROOT
ATOM      1  O   UNL     1       7.748   6.497  16.191  0.00  0.00    +0.000 OA
ATOM      2  C   UNL     1       7.303   6.899  17.258  0.00  0.00    +0.000 C 
ENDROOT
BRANCH   2   3
ATOM      3  C   UNL     1       6.033   6.361  17.819  0.00  0.00    +0.000 A 
ATOM      4  C   UNL     1       6.033   5.404  18.834  0.00  0.00    +0.000 A 
ATOM      5  C   UNL     1       4.826   4.902  19.333  0.00  0.00    +0.000 A 
ATOM      6  C   UNL     1       3.582   5.287  18.815  0.00  0.00    +0.000 A 
ATOM      7  C   UNL     1       3.613   6.266  17.803  0.00  0.00    +0.000 A 
ATOM      8  C   UNL     1       4.813   6.794  17.303  0.00  0.00    +0.000 A 
BRANCH   6   9
ATOM      9  N   UNL     1       2.393   4.747  19.268  0.00  0.00    +0.000 N 
ATOM     10  C   UNL     1       1.890   4.887  20.636  0.00  0.00    +0.000 C 
ATOM     11  C   UNL     1       1.368   3.500  20.982  0.00  0.00    +0.000 C 
ATOM     12  C   UNL     1       0.829   3.000  19.657  0.00  0.00    +0.000 C 
ATOM     13  C   UNL     1       1.818   3.554  18.632  0.00  0.00    +0.000 C 
ENDBRANCH   6   9
ENDBRANCH   2   3
BRANCH   2  14
ATOM     14  C   UNL     1       7.982   7.956  18.053  0.00  0.00    +0.000 C 
ATOM     15  C   UNL     1       8.036   9.224  17.620  0.00  0.00    +0.000 C 
BRANCH  15  16
ATOM     16  C   UNL     1       8.721  10.291  18.362  0.00  0.00    +0.000 A 
ATOM     17  C   UNL     1       9.338  10.065  19.603  0.00  0.00    +0.000 A 
ATOM     18  C   UNL     1       9.958  11.106  20.297  0.00  0.00    +0.000 A 
ATOM     19  C   UNL     1       9.987  12.383  19.739  0.00  0.00    +0.000 A 
ATOM     20 CL   UNL     1      10.730  13.672  20.603  0.00  0.00    +0.000 Cl
ATOM     21  C   UNL     1       9.416  12.619  18.492  0.00  0.00    +0.000 A 
ATOM     22  C   UNL     1       8.791  11.574  17.803  0.00  0.00    +0.000 A 
ENDBRANCH  15  16
ENDBRANCH   2  14
TORSDOF 4
ENDMDL
MODEL 2
REMARK VINA RESULT:      -8.5      0.447      1.103
REMARK  Name = 
REMARK  4 active torsions:
REMARK  status: ('A' for Active; 'I' for Inactive)
REMARK    1  A    between atoms: C_2  and  C_3
REMARK    2  A    between atoms: C_2  and  C_12
REMARK    3  A    between atoms: C_4  and  C_5
REMARK    4  A    between atoms: C_15  and  N_16
REMARK                            x       y       z     vdW  Elec       q    Type
REMARK                         _______ _______ _______ _____ _____    ______ ____
ROOT
ATOM      1  O   UNL     1       7.753   6.426  16.404  0.00  0.00    +0.000 OA
ATOM      2  C   UNL     1       7.077   7.066  17.200  0.00  0.00    +0.000 C 
ENDROOT
BRANCH   2   3
ATOM      3  C   UNL     1       5.854   6.486  17.818  0.00  0.00    +0.000 A 
ATOM      4  C   UNL     1       5.932   5.516  18.817  0.00  0.00    +0.000 A 
ATOM      5  C   UNL     1       4.766   4.975  19.371  0.00  0.00    +0.000 A 
ATOM      6  C   UNL     1       3.487   5.334  18.925  0.00  0.00    +0.000 A 
ATOM      7  C   UNL     1       3.439   6.328  17.929  0.00  0.00    +0.000 A 
ATOM      8  C   UNL     1       4.597   6.894  17.375  0.00  0.00    +0.000 A 
BRANCH   6   9
ATOM      9  N   UNL     1       2.338   4.756  19.432  0.00  0.00    +0.000 N 
ATOM     10  C   UNL     1       1.995   4.708  20.855  0.00  0.00    +0.000 C 
ATOM     11  C   UNL     1       1.468   3.295  21.060  0.00  0.00    +0.000 C 
ATOM     12  C   UNL     1       0.767   3.000  19.749  0.00  0.00    +0.000 C 
ATOM     13  C   UNL     1       1.655   3.678  18.705  0.00  0.00    +0.000 C 
ENDBRANCH   6   9
ENDBRANCH   2   3
BRANCH   2  14
ATOM     14  C   UNL     1       7.417   8.461  17.587  0.00  0.00    +0.000 C 
ATOM     15  C   UNL     1       8.553   8.742  18.240  0.00  0.00    +0.000 C 
BRANCH  15  16
ATOM     16  C   UNL     1       8.912  10.102  18.666  0.00  0.00    +0.000 A 
ATOM     17  C   UNL     1       8.731  11.220  17.836  0.00  0.00    +0.000 A 
ATOM     18  C   UNL     1       9.106  12.497  18.259  0.00  0.00    +0.000 A 
ATOM     19  C   UNL     1       9.645  12.669  19.533  0.00  0.00    +0.000 A 
ATOM     20 CL   UNL     1      10.130  14.237  20.047  0.00  0.00    +0.000 Cl
ATOM     21  C   UNL     1       9.796  11.579  20.385  0.00  0.00    +0.000 A 
ATOM     22  C   UNL     1       9.424  10.301  19.955  0.00  0.00    +0.000 A 
ENDBRANCH  15  16
ENDBRANCH   2  14
TORSDOF 4
ENDMDL
MODEL 3
REMARK VINA RESULT:      -8.4      0.471      1.121
REMARK  Name = 
REMARK  4 active torsions:
REMARK  status: ('A' for Active; 'I' for Inactive)
REMARK    1  A    between atoms: C_2  and  C_3
REMARK    2  A    between atoms: C_2  and  C_12
REMARK    3  A    between atoms: C_4  and  C_5
REMARK    4  A    between atoms: C_15  and  N_16
REMARK                            x       y       z     vdW  Elec       q    Type
REMARK                         _______ _______ _______ _____ _____    ______ ____
ROOT
ATOM      1  O   UNL     1       7.746   6.576  16.328  0.00  0.00    +0.000 OA
ATOM      2  C   UNL     1       7.067   7.144  17.173  0.00  0.00    +0.000 C 
ENDROOT
BRANCH   2   3
ATOM      3  C   UNL     1       5.848   6.507  17.743  0.00  0.00    +0.000 A 
ATOM      4  C   UNL     1       4.572   6.839  17.288  0.00  0.00    +0.000 A 
ATOM      5  C   UNL     1       3.441   6.238  17.852  0.00  0.00    +0.000 A 
ATOM      6  C   UNL     1       3.526   5.329  18.915  0.00  0.00    +0.000 A 
ATOM      7  C   UNL     1       4.827   5.000  19.342  0.00  0.00    +0.000 A 
ATOM      8  C   UNL     1       5.973   5.579  18.775  0.00  0.00    +0.000 A 
BRANCH   6   9
ATOM      9  N   UNL     1       2.406   4.779  19.511  0.00  0.00    +0.000 N 
ATOM     10  C   UNL     1       2.188   4.710  20.957  0.00  0.00    +0.000 C 
ATOM     11  C   UNL     1       1.631   3.311  21.180  0.00  0.00    +0.000 C 
ATOM     12  C   UNL     1       0.807   3.071  19.930  0.00  0.00    +0.000 C 
ATOM     13  C   UNL     1       1.623   3.741  18.826  0.00  0.00    +0.000 C 
ENDBRANCH   6   9
ENDBRANCH   2   3
BRANCH   2  14
ATOM     14  C   UNL     1       7.397   8.505  17.673  0.00  0.00    +0.000 C 
ATOM     15  C   UNL     1       8.608   8.785  18.175  0.00  0.00    +0.000 C 
BRANCH  15  16
ATOM     16  C   UNL     1       8.964  10.109  18.704  0.00  0.00    +0.000 A 
ATOM     17  C   UNL     1       9.402  10.296  20.025  0.00  0.00    +0.000 A 
ATOM     18  C   UNL     1       9.708  11.570  20.506  0.00  0.00    +0.000 A 
ATOM     19  C   UNL     1       9.600  12.671  19.658  0.00  0.00    +0.000 A 
ATOM     20 CL   UNL     1       9.954  14.244  20.256  0.00  0.00    +0.000 Cl
ATOM     21  C   UNL     1       9.206  12.501  18.334  0.00  0.00    +0.000 A 
ATOM     22  C   UNL     1       8.895  11.223  17.857  0.00  0.00    +0.000 A 
ENDBRANCH  15  16
ENDBRANCH   2  14
TORSDOF 4
ENDMDL
MODEL 4
REMARK VINA RESULT:      -8.3      0.825      1.494
REMARK  Name = 
REMARK  4 active torsions:
REMARK  status: ('A' for Active; 'I' for Inactive)
REMARK    1  A    between atoms: C_2  and  C_3
REMARK    2  A    between atoms: C_2  and  C_12
REMARK    3  A    between atoms: C_4  and  C_5
REMARK    4  A    between atoms: C_15  and  N_16
REMARK                            x       y       z     vdW  Elec       q    Type
REMARK                         _______ _______ _______ _____ _____    ______ ____
ROOT
ATOM      1  O   UNL     1       7.712   6.356  16.014  0.00  0.00    +0.000 OA
ATOM      2  C   UNL     1       7.265   6.561  17.135  0.00  0.00    +0.000 C 
ENDROOT
BRANCH   2   3
ATOM      3  C   UNL     1       6.179   5.714  17.701  0.00  0.00    +0.000 A 
ATOM      4  C   UNL     1       5.092   5.309  16.927  0.00  0.00    +0.000 A 
ATOM      5  C   UNL     1       4.076   4.527  17.487  0.00  0.00    +0.000 A 
ATOM      6  C   UNL     1       4.072   4.159  18.839  0.00  0.00    +0.000 A 
ATOM      7  C   UNL     1       5.190   4.567  19.592  0.00  0.00    +0.000 A 
ATOM      8  C   UNL     1       6.227   5.337  19.042  0.00  0.00    +0.000 A 
BRANCH   6   9
ATOM      9  N   UNL     1       3.039   3.436  19.406  0.00  0.00    +0.000 N 
ATOM     10  C   UNL     1       2.078   2.633  18.647  0.00  0.00    +0.000 C 
ATOM     11  C   UNL     1       0.739   2.946  19.299  0.00  0.00    +0.000 C 
ATOM     12  C   UNL     1       1.106   3.134  20.757  0.00  0.00    +0.000 C 
ATOM     13  C   UNL     1       2.465   3.831  20.700  0.00  0.00    +0.000 C 
ENDBRANCH   6   9
ENDBRANCH   2   3
BRANCH   2  14
ATOM     14  C   UNL     1       7.755   7.670  17.995  0.00  0.00    +0.000 C 
ATOM     15  C   UNL     1       8.109   8.851  17.470  0.00  0.00    +0.000 C 
BRANCH  15  16
ATOM     16  C   UNL     1       8.624   9.962  18.283  0.00  0.00    +0.000 A 
ATOM     17  C   UNL     1       9.162   9.767  19.565  0.00  0.00    +0.000 A 
ATOM     18  C   UNL     1       9.619  10.847  20.323  0.00  0.00    +0.000 A 
ATOM     19  C   UNL     1       9.565  12.134  19.790  0.00  0.00    +0.000 A 
ATOM     20 CL   UNL     1      10.106  13.468  20.732  0.00  0.00    +0.000 Cl
ATOM     21  C   UNL     1       9.073  12.343  18.505  0.00  0.00    +0.000 A 
ATOM     22  C   UNL     1       8.610  11.259  17.751  0.00  0.00    +0.000 A 
ENDBRANCH  15  16
ENDBRANCH   2  14
TORSDOF 4
ENDMDL
MODEL 5
REMARK VINA RESULT:      -8.1      0.765      1.705
REMARK  Name = 
REMARK  4 active torsions:
REMARK  status: ('A' for Active; 'I' for Inactive)
REMARK    1  A    between atoms: C_2  and  C_3
REMARK    2  A    between atoms: C_2  and  C_12
REMARK    3  A    between atoms: C_4  and  C_5
REMARK    4  A    between atoms: C_15  and  N_16
REMARK                            x       y       z     vdW  Elec       q    Type
REMARK                         _______ _______ _______ _____ _____    ______ ____
ROOT
ATOM      1  O   UNL     1       7.852   6.666  16.253  0.00  0.00    +0.000 OA
ATOM      2  C   UNL     1       7.215   7.145  17.181  0.00  0.00    +0.000 C 
ENDROOT
BRANCH   2   3
ATOM      3  C   UNL     1       6.127   6.378  17.850  0.00  0.00    +0.000 A 
ATOM      4  C   UNL     1       4.783   6.658  17.606  0.00  0.00    +0.000 A 
ATOM      5  C   UNL     1       3.779   5.934  18.259  0.00  0.00    +0.000 A 
ATOM      6  C   UNL     1       4.066   4.946  19.211  0.00  0.00    +0.000 A 
ATOM      7  C   UNL     1       5.431   4.673  19.424  0.00  0.00    +0.000 A 
ATOM      8  C   UNL     1       6.450   5.377  18.764  0.00  0.00    +0.000 A 
BRANCH   6   9
ATOM      9  N   UNL     1       3.074   4.272  19.899  0.00  0.00    +0.000 N 
ATOM     10  C   UNL     1       3.074   2.828  20.145  0.00  0.00    +0.000 C 
ATOM     11  C   UNL     1       1.635   2.408  19.878  0.00  0.00    +0.000 C 
ATOM     12  C   UNL     1       0.838   3.606  20.355  0.00  0.00    +0.000 C 
ATOM     13  C   UNL     1       1.704   4.799  19.952  0.00  0.00    +0.000 C 
ENDBRANCH   6   9
ENDBRANCH   2   3
BRANCH   2  14
ATOM     14  C   UNL     1       7.465   8.519  17.691  0.00  0.00    +0.000 C 
ATOM     15  C   UNL     1       8.684   8.894  18.105  0.00  0.00    +0.000 C 
BRANCH  15  16
ATOM     16  C   UNL     1       8.965  10.233  18.641  0.00  0.00    +0.000 A 
ATOM     17  C   UNL     1       8.819  11.397  17.870  0.00  0.00    +0.000 A 
ATOM     18  C   UNL     1       9.121  12.653  18.401  0.00  0.00    +0.000 A 
ATOM     19  C   UNL     1       9.549  12.756  19.723  0.00  0.00    +0.000 A 
ATOM     20 CL   UNL     1       9.944  14.299  20.371  0.00  0.00    +0.000 Cl
ATOM     21  C   UNL     1       9.663  11.618  20.516  0.00  0.00    +0.000 A 
ATOM     22  C   UNL     1       9.365  10.361  19.979  0.00  0.00    +0.000 A 
ENDBRANCH  15  16
ENDBRANCH   2  14
TORSDOF 4
ENDMDL
MODEL 6
REMARK VINA RESULT:      -7.2      6.436      8.690
REMARK  Name = 
REMARK  4 active torsions:
REMARK  status: ('A' for Active; 'I' for Inactive)
REMARK    1  A    between atoms: C_2  and  C_3
REMARK    2  A    between atoms: C_2  and  C_12
REMARK    3  A    between atoms: C_4  and  C_5
REMARK    4  A    between atoms: C_15  and  N_16
REMARK                            x       y       z     vdW  Elec       q    Type
REMARK                         _______ _______ _______ _____ _____    ______ ____
ROOT
ATOM      1  O   UNL     1       2.387  10.581  17.556  0.00  0.00    +0.000 OA
ATOM      2  C   UNL     1       1.574   9.936  18.204  0.00  0.00    +0.000 C 
ENDROOT
BRANCH   2   3
ATOM      3  C   UNL     1       1.889   8.567  18.698  0.00  0.00    +0.000 A 
ATOM      4  C   UNL     1       2.384   7.581  17.845  0.00  0.00    +0.000 A 
ATOM      5  C   UNL     1       2.657   6.297  18.330  0.00  0.00    +0.000 A 
ATOM      6  C   UNL     1       2.404   5.928  19.658  0.00  0.00    +0.000 A 
ATOM      7  C   UNL     1       1.921   6.948  20.500  0.00  0.00    +0.000 A 
ATOM      8  C   UNL     1       1.658   8.246  20.034  0.00  0.00    +0.000 A 
BRANCH   6   9
ATOM      9  N   UNL     1       2.619   4.643  20.123  0.00  0.00    +0.000 N 
ATOM     10  C   UNL     1       2.999   3.511  19.276  0.00  0.00    +0.000 C 
ATOM     11  C   UNL     1       2.139   2.363  19.786  0.00  0.00    +0.000 C 
ATOM     12  C   UNL     1       2.046   2.644  21.273  0.00  0.00    +0.000 C 
ATOM     13  C   UNL     1       1.963   4.168  21.348  0.00  0.00    +0.000 C 
ENDBRANCH   6   9
ENDBRANCH   2   3
BRANCH   2  14
ATOM     14  C   UNL     1       0.220  10.460  18.526  0.00  0.00    +0.000 C 
ATOM     15  C   UNL     1      -0.854  10.095  17.811  0.00  0.00    +0.000 C 
BRANCH  15  16
ATOM     16  C   UNL     1      -2.203  10.612  18.079  0.00  0.00    +0.000 A 
ATOM     17  C   UNL     1      -2.436  11.681  18.960  0.00  0.00    +0.000 A 
ATOM     18  C   UNL     1      -3.732  12.132  19.214  0.00  0.00    +0.000 A 
ATOM     19  C   UNL     1      -4.810  11.529  18.567  0.00  0.00    +0.000 A 
ATOM     20 CL   UNL     1      -6.410  12.067  18.898  0.00  0.00    +0.000 Cl
ATOM     21  C   UNL     1      -4.596  10.494  17.661  0.00  0.00    +0.000 A 
ATOM     22  C   UNL     1      -3.296  10.042  17.413  0.00  0.00    +0.000 A 
ENDBRANCH  15  16
ENDBRANCH   2  14
TORSDOF 4
ENDMDL
MODEL 7
REMARK VINA RESULT:      -7.2      6.344      8.548
REMARK  Name = 
REMARK  4 active torsions:
REMARK  status: ('A' for Active; 'I' for Inactive)
REMARK    1  A    between atoms: C_2  and  C_3
REMARK    2  A    between atoms: C_2  and  C_12
REMARK    3  A    between atoms: C_4  and  C_5
REMARK    4  A    between atoms: C_15  and  N_16
REMARK                            x       y       z     vdW  Elec       q    Type
REMARK                         _______ _______ _______ _____ _____    ______ ____
ROOT
ATOM      1  O   UNL     1       2.532  10.394  17.579  0.00  0.00    +0.000 OA
ATOM      2  C   UNL     1       1.669   9.818  18.228  0.00  0.00    +0.000 C 
ENDROOT
BRANCH   2   3
ATOM      3  C   UNL     1       1.879   8.435  18.738  0.00  0.00    +0.000 A 
ATOM      4  C   UNL     1       1.600   8.098  20.062  0.00  0.00    +0.000 A 
ATOM      5  C   UNL     1       1.822   6.794  20.522  0.00  0.00    +0.000 A 
ATOM      6  C   UNL     1       2.372   5.795  19.708  0.00  0.00    +0.000 A 
ATOM      7  C   UNL     1       2.627   6.160  18.372  0.00  0.00    +0.000 A 
ATOM      8  C   UNL     1       2.394   7.457  17.890  0.00  0.00    +0.000 A 
BRANCH   6   9
ATOM      9  N   UNL     1       2.644   4.524  20.179  0.00  0.00    +0.000 N 
ATOM     10  C   UNL     1       2.923   3.368  19.324  0.00  0.00    +0.000 C 
ATOM     11  C   UNL     1       2.134   2.236  19.966  0.00  0.00    +0.000 C 
ATOM     12  C   UNL     1       2.219   2.557  21.444  0.00  0.00    +0.000 C 
ATOM     13  C   UNL     1       2.142   4.083  21.487  0.00  0.00    +0.000 C 
ENDBRANCH   6   9
ENDBRANCH   2   3
BRANCH   2  14
ATOM     14  C   UNL     1       0.356  10.444  18.535  0.00  0.00    +0.000 C 
ATOM     15  C   UNL     1      -0.771  10.017  17.947  0.00  0.00    +0.000 C 
BRANCH  15  16
ATOM     16  C   UNL     1      -2.083  10.627  18.201  0.00  0.00    +0.000 A 
ATOM     17  C   UNL     1      -3.239  10.238  17.505  0.00  0.00    +0.000 A 
ATOM     18  C   UNL     1      -4.467  10.856  17.752  0.00  0.00    +0.000 A 
ATOM     19  C   UNL     1      -4.552  11.856  18.719  0.00  0.00    +0.000 A 
ATOM     20 CL   UNL     1      -6.059  12.634  19.007  0.00  0.00    +0.000 Cl
ATOM     21  C   UNL     1      -3.426  12.227  19.448  0.00  0.00    +0.000 A 
ATOM     22  C   UNL     1      -2.196  11.609  19.194  0.00  0.00    +0.000 A 
ENDBRANCH  15  16
ENDBRANCH   2  14
TORSDOF 4
ENDMDL
MODEL 8
REMARK VINA RESULT:      -7.1      6.700      8.862
REMARK  Name = 
REMARK  4 active torsions:
REMARK  status: ('A' for Active; 'I' for Inactive)
REMARK    1  A    between atoms: C_2  and  C_3
REMARK    2  A    between atoms: C_2  and  C_12
REMARK    3  A    between atoms: C_4  and  C_5
REMARK    4  A    between atoms: C_15  and  N_16
REMARK                            x       y       z     vdW  Elec       q    Type
REMARK                         _______ _______ _______ _____ _____    ______ ____
ROOT
ATOM      1  O   UNL     1       2.140  10.859  18.018  0.00  0.00    +0.000 OA
ATOM      2  C   UNL     1       1.340   9.959  18.235  0.00  0.00    +0.000 C 
ENDROOT
BRANCH   2   3
ATOM      3  C   UNL     1       1.785   8.639  18.761  0.00  0.00    +0.000 A 
ATOM      4  C   UNL     1       2.485   7.735  17.962  0.00  0.00    +0.000 A 
ATOM      5  C   UNL     1       2.879   6.494  18.475  0.00  0.00    +0.000 A 
ATOM      6  C   UNL     1       2.552   6.081  19.774  0.00  0.00    +0.000 A 
ATOM      7  C   UNL     1       1.860   7.020  20.562  0.00  0.00    +0.000 A 
ATOM      8  C   UNL     1       1.473   8.277  20.070  0.00  0.00    +0.000 A 
BRANCH   6   9
ATOM      9  N   UNL     1       2.889   4.832  20.260  0.00  0.00    +0.000 N 
ATOM     10  C   UNL     1       3.608   3.813  19.493  0.00  0.00    +0.000 C 
ATOM     11  C   UNL     1       2.874   2.519  19.819  0.00  0.00    +0.000 C 
ATOM     12  C   UNL     1       2.457   2.720  21.262  0.00  0.00    +0.000 C 
ATOM     13  C   UNL     1       2.105   4.206  21.333  0.00  0.00    +0.000 C 
ENDBRANCH   6   9
ENDBRANCH   2   3
BRANCH   2  14
ATOM     14  C   UNL     1      -0.116  10.110  17.976  0.00  0.00    +0.000 C 
ATOM     15  C   UNL     1      -0.786  11.196  18.389  0.00  0.00    +0.000 C 
BRANCH  15  16
ATOM     16  C   UNL     1      -2.229  11.370  18.178  0.00  0.00    +0.000 A 
ATOM     17  C   UNL     1      -2.865  10.985  16.986  0.00  0.00    +0.000 A 
ATOM     18  C   UNL     1      -4.234  11.189  16.806  0.00  0.00    +0.000 A 
ATOM     19  C   UNL     1      -4.987  11.759  17.831  0.00  0.00    +0.000 A 
ATOM     20 CL   UNL     1      -6.669  12.032  17.601  0.00  0.00    +0.000 Cl
ATOM     21  C   UNL     1      -4.382  12.110  19.034  0.00  0.00    +0.000 A 
ATOM     22  C   UNL     1      -3.009  11.910  19.210  0.00  0.00    +0.000 A 
ENDBRANCH  15  16
ENDBRANCH   2  14
TORSDOF 4
ENDMDL
MODEL 9
REMARK VINA RESULT:      -7.1      7.083      9.061
REMARK  Name = 
REMARK  4 active torsions:
REMARK  status: ('A' for Active; 'I' for Inactive)
REMARK    1  A    between atoms: C_2  and  C_3
REMARK    2  A    between atoms: C_2  and  C_12
REMARK    3  A    between atoms: C_4  and  C_5
REMARK    4  A    between atoms: C_15  and  N_16
REMARK                            x       y       z     vdW  Elec       q    Type
REMARK                         _______ _______ _______ _____ _____    ______ ____
ROOT
ATOM      1  O   UNL     1       2.222  10.879  18.200  0.00  0.00    +0.000 OA
ATOM      2  C   UNL     1       1.333  10.043  18.294  0.00  0.00    +0.000 C 
ENDROOT
BRANCH   2   3
ATOM      3  C   UNL     1      -0.101  10.441  18.349  0.00  0.00    +0.000 A 
ATOM      4  C   UNL     1      -1.052   9.853  17.516  0.00  0.00    +0.000 A 
ATOM      5  C   UNL     1      -2.391  10.255  17.575  0.00  0.00    +0.000 A 
ATOM      6  C   UNL     1      -2.828  11.285  18.420  0.00  0.00    +0.000 A 
ATOM      7  C   UNL     1      -1.849  11.848  19.261  0.00  0.00    +0.000 A 
ATOM      8  C   UNL     1      -0.506  11.444  19.227  0.00  0.00    +0.000 A 
BRANCH   6   9
ATOM      9  N   UNL     1      -4.139  11.723  18.437  0.00  0.00    +0.000 N 
ATOM     10  C   UNL     1      -4.797  12.319  19.601  0.00  0.00    +0.000 C 
ATOM     11  C   UNL     1      -6.176  11.674  19.617  0.00  0.00    +0.000 C 
ATOM     12  C   UNL     1      -6.488  11.504  18.144  0.00  0.00    +0.000 C 
ATOM     13  C   UNL     1      -5.137  11.142  17.528  0.00  0.00    +0.000 C 
ENDBRANCH   6   9
ENDBRANCH   2   3
BRANCH   2  14
ATOM     14  C   UNL     1       1.618   8.587  18.378  0.00  0.00    +0.000 C 
ATOM     15  C   UNL     1       2.692   8.054  17.777  0.00  0.00    +0.000 C 
BRANCH  15  16
ATOM     16  C   UNL     1       2.994   6.617  17.813  0.00  0.00    +0.000 A 
ATOM     17  C   UNL     1       4.296   6.119  17.643  0.00  0.00    +0.000 A 
ATOM     18  C   UNL     1       4.546   4.745  17.655  0.00  0.00    +0.000 A 
ATOM     19  C   UNL     1       3.493   3.855  17.864  0.00  0.00    +0.000 A 
ATOM     20 CL   UNL     1       3.796   2.162  17.857  0.00  0.00    +0.000 Cl
ATOM     21  C   UNL     1       2.202   4.331  18.075  0.00  0.00    +0.000 A 
ATOM     22  C   UNL     1       1.955   5.708  18.056  0.00  0.00    +0.000 A 
ENDBRANCH  15  16
ENDBRANCH   2  14
TORSDOF 4
ENDMDL
