MODEL 1
REMARK VINA RESULT:      -7.2      0.000      0.000
REMARK  Name = 
REMARK  6 active torsions:
REMARK  status: ('A' for Active; 'I' for Inactive)
REMARK    1  A    between atoms: C_1  and  C_2
REMARK    2  A    between atoms: C_2  and  C_3
REMARK    3  A    between atoms: C_2  and  C_4
REMARK    4  A    between atoms: C_2  and  N_5
REMARK    5  A    between atoms: C_17  and  C_19
REMARK    6  A    between atoms: C_25  and  C_26
REMARK                            x       y       z     vdW  Elec       q    Type
REMARK                         _______ _______ _______ _____ _____    ______ ____
ROOT
ATOM      1  N   UNL     1      -1.963  16.087  23.796  0.00  0.00    +0.000 N 
ATOM      2  C   UNL     1      -2.159  14.728  23.800  0.00  0.00    +0.000 A 
ATOM      3  C   UNL     1      -3.510  14.536  23.951  0.00  0.00    +0.000 A 
ATOM      4  C   UNL     1      -4.067  15.837  24.048  0.00  0.00    +0.000 A 
ATOM      5  N   UNL     1      -3.119  16.779  23.921  0.00  0.00    +0.000 NA
ATOM      6  C   UNL     1      -5.506  16.072  24.203  0.00  0.00    +0.000 C 
ATOM      7  O   UNL     1      -6.047  17.165  24.341  0.00  0.00    +0.000 OA
ATOM      8  N   UNL     1      -6.292  14.906  24.179  0.00  0.00    +0.000 N 
ATOM      9  C   UNL     1      -5.817  13.663  23.497  0.00  0.00    +0.000 C 
ATOM     10  C   UNL     1      -5.752  13.965  21.985  0.00  0.00    +0.000 C 
ATOM     11  C   UNL     1      -7.145  13.885  21.415  0.00  0.00    +0.000 C 
ATOM     12  N   UNL     1      -7.508  12.493  21.461  0.00  0.00    +0.000 N 
ATOM     13  C   UNL     1      -7.134  11.558  20.500  0.00  0.00    +0.000 C 
ATOM     14  O   UNL     1      -7.517  10.386  20.578  0.00  0.00    +0.000 OA
ATOM     15  C   UNL     1      -7.827  12.043  22.802  0.00  0.00    +0.000 C 
ATOM     16  C   UNL     1      -6.759  12.458  23.847  0.00  0.00    +0.000 C 
ATOM     17  C   UNL     1      -4.371  13.328  24.018  0.00  0.00    +0.000 C 
ATOM     18  H   UNL     1      -7.282  15.128  24.198  0.00  0.00    +0.000 HD
ENDROOT
BRANCH  13  19
ATOM     19  C   UNL     1      -6.148  11.847  19.385  0.00  0.00    +0.000 A 
ATOM     20  C   UNL     1      -6.761  12.213  18.184  0.00  0.00    +0.000 A 
ATOM     21  C   UNL     1      -6.013  12.548  17.063  0.00  0.00    +0.000 A 
ATOM     22  C   UNL     1      -4.802  11.895  17.017  0.00  0.00    +0.000 A 
ATOM     23  N   UNL     1      -4.051  11.436  15.967  0.00  0.00    +0.000 N 
ATOM     24  N   UNL     1      -2.838  10.992  16.324  0.00  0.00    +0.000 NA
ATOM     25  C   UNL     1      -2.840  11.103  17.662  0.00  0.00    +0.000 A 
ATOM     26  C   UNL     1      -4.098  11.540  18.170  0.00  0.00    +0.000 A 
ATOM     27  C   UNL     1      -4.747  11.710  19.419  0.00  0.00    +0.000 A 
ATOM     28  H   UNL     1      -4.339  11.376  15.000  0.00  0.00    +0.000 HD
BRANCH  25  29
ATOM     29  C   UNL     1      -1.644  10.737  18.368  0.00  0.00    +0.000 C 
ATOM     30  N   UNL     1      -0.666  10.442  18.912  0.00  0.00    +0.000 NA
ENDBRANCH  25  29
ENDBRANCH  13  19
BRANCH   1  32
ATOM     31  C   UNL     1       0.310  16.065  22.807  0.00  0.00    +0.000 C 
ATOM     32  C   UNL     1      -0.663  16.787  23.757  0.00  0.00    +0.000 C 
ATOM     33  C   UNL     1      -0.067  16.814  25.176  0.00  0.00    +0.000 C 
ATOM     34  C   UNL     1      -0.802  18.244  23.267  0.00  0.00    +0.000 C 
ENDBRANCH   1  32
TORSDOF 3
ENDMDL
MODEL 2
REMARK VINA RESULT:      -7.1      2.652      5.480
REMARK  Name = 
REMARK  6 active torsions:
REMARK  status: ('A' for Active; 'I' for Inactive)
REMARK    1  A    between atoms: C_1  and  C_2
REMARK    2  A    between atoms: C_2  and  C_3
REMARK    3  A    between atoms: C_2  and  C_4
REMARK    4  A    between atoms: C_2  and  N_5
REMARK    5  A    between atoms: C_17  and  C_19
REMARK    6  A    between atoms: C_25  and  C_26
REMARK                            x       y       z     vdW  Elec       q    Type
REMARK                         _______ _______ _______ _____ _____    ______ ____
ROOT
ATOM      1  N   UNL     1      -0.360  10.892  21.890  0.00  0.00    +0.000 N 
ATOM      2  C   UNL     1      -1.164  11.061  22.991  0.00  0.00    +0.000 A 
ATOM      3  C   UNL     1      -1.419  12.408  23.077  0.00  0.00    +0.000 A 
ATOM      4  C   UNL     1      -0.715  12.994  21.994  0.00  0.00    +0.000 A 
ATOM      5  N   UNL     1      -0.097  12.059  21.256  0.00  0.00    +0.000 NA
ATOM      6  C   UNL     1      -0.743  14.434  21.720  0.00  0.00    +0.000 C 
ATOM      7  O   UNL     1      -0.121  15.011  20.834  0.00  0.00    +0.000 OA
ATOM      8  N   UNL     1      -1.577  15.174  22.577  0.00  0.00    +0.000 N 
ATOM      9  C   UNL     1      -2.732  14.535  23.280  0.00  0.00    +0.000 C 
ATOM     10  C   UNL     1      -3.759  14.132  22.200  0.00  0.00    +0.000 C 
ATOM     11  C   UNL     1      -4.536  15.356  21.791  0.00  0.00    +0.000 C 
ATOM     12  N   UNL     1      -5.358  15.697  22.921  0.00  0.00    +0.000 N 
ATOM     13  C   UNL     1      -6.582  15.097  23.203  0.00  0.00    +0.000 C 
ATOM     14  O   UNL     1      -7.258  15.467  24.168  0.00  0.00    +0.000 OA
ATOM     15  C   UNL     1      -4.602  16.304  23.999  0.00  0.00    +0.000 C 
ATOM     16  C   UNL     1      -3.320  15.510  24.359  0.00  0.00    +0.000 C 
ATOM     17  C   UNL     1      -2.219  13.240  24.011  0.00  0.00    +0.000 C 
ATOM     18  H   UNL     1      -1.632  16.146  22.291  0.00  0.00    +0.000 HD
ENDROOT
BRANCH  13  19
ATOM     19  C   UNL     1      -7.117  13.887  22.460  0.00  0.00    +0.000 A 
ATOM     20  C   UNL     1      -7.385  12.799  23.293  0.00  0.00    +0.000 A 
ATOM     21  C   UNL     1      -7.914  11.617  22.792  0.00  0.00    +0.000 A 
ATOM     22  C   UNL     1      -7.539  11.377  21.489  0.00  0.00    +0.000 A 
ATOM     23  N   UNL     1      -7.290  10.215  20.808  0.00  0.00    +0.000 N 
ATOM     24  N   UNL     1      -7.106  10.388  19.492  0.00  0.00    +0.000 NA
ATOM     25  C   UNL     1      -7.165  11.720  19.336  0.00  0.00    +0.000 A 
ATOM     26  C   UNL     1      -7.303  12.408  20.577  0.00  0.00    +0.000 A 
ATOM     27  C   UNL     1      -7.284  13.738  21.070  0.00  0.00    +0.000 A 
ATOM     28  H   UNL     1      -7.205   9.289  21.206  0.00  0.00    +0.000 HD
BRANCH  25  29
ATOM     29  C   UNL     1      -7.040  12.246  18.005  0.00  0.00    +0.000 C 
ATOM     30  N   UNL     1      -6.912  12.660  16.932  0.00  0.00    +0.000 NA
ENDBRANCH  25  29
ENDBRANCH  13  19
BRANCH   1  32
ATOM     31  C   UNL     1       0.708   9.743  19.972  0.00  0.00    +0.000 C 
ATOM     32  C   UNL     1       0.262   9.630  21.441  0.00  0.00    +0.000 C 
ATOM     33  C   UNL     1      -0.765   8.491  21.578  0.00  0.00    +0.000 C 
ATOM     34  C   UNL     1       1.503   9.262  22.281  0.00  0.00    +0.000 C 
ENDBRANCH   1  32
TORSDOF 3
ENDMDL
MODEL 3
REMARK VINA RESULT:      -7.0      2.526      5.335
REMARK  Name = 
REMARK  6 active torsions:
REMARK  status: ('A' for Active; 'I' for Inactive)
REMARK    1  A    between atoms: C_1  and  C_2
REMARK    2  A    between atoms: C_2  and  C_3
REMARK    3  A    between atoms: C_2  and  C_4
REMARK    4  A    between atoms: C_2  and  N_5
REMARK    5  A    between atoms: C_17  and  C_19
REMARK    6  A    between atoms: C_25  and  C_26
REMARK                            x       y       z     vdW  Elec       q    Type
REMARK                         _______ _______ _______ _____ _____    ______ ____
ROOT
ATOM      1  N   UNL     1      -0.205  11.509  20.177  0.00  0.00    +0.000 N 
ATOM      2  C   UNL     1      -1.001  11.208  21.255  0.00  0.00    +0.000 A 
ATOM      3  C   UNL     1      -1.311  12.407  21.849  0.00  0.00    +0.000 A 
ATOM      4  C   UNL     1      -0.647  13.393  21.075  0.00  0.00    +0.000 A 
ATOM      5  N   UNL     1      -0.001  12.839  20.037  0.00  0.00    +0.000 NA
ATOM      6  C   UNL     1      -0.740  14.825  21.372  0.00  0.00    +0.000 C 
ATOM      7  O   UNL     1      -0.155  15.725  20.776  0.00  0.00    +0.000 OA
ATOM      8  N   UNL     1      -1.592  15.144  22.444  0.00  0.00    +0.000 N 
ATOM      9  C   UNL     1      -2.710  14.234  22.845  0.00  0.00    +0.000 C 
ATOM     10  C   UNL     1      -3.733  14.230  21.690  0.00  0.00    +0.000 C 
ATOM     11  C   UNL     1      -4.567  15.482  21.777  0.00  0.00    +0.000 C 
ATOM     12  N   UNL     1      -5.387  15.327  22.948  0.00  0.00    +0.000 N 
ATOM     13  C   UNL     1      -6.581  14.612  22.976  0.00  0.00    +0.000 C 
ATOM     14  O   UNL     1      -7.259  14.555  24.007  0.00  0.00    +0.000 OA
ATOM     15  C   UNL     1      -4.643  15.510  24.180  0.00  0.00    +0.000 C 
ATOM     16  C   UNL     1      -3.323  14.696  24.213  0.00  0.00    +0.000 C 
ATOM     17  C   UNL     1      -2.132  12.782  23.027  0.00  0.00    +0.000 C 
ATOM     18  H   UNL     1      -1.692  16.148  22.552  0.00  0.00    +0.000 HD
ENDROOT
BRANCH  13  19
ATOM     19  C   UNL     1      -7.074  13.755  21.824  0.00  0.00    +0.000 A 
ATOM     20  C   UNL     1      -7.284  12.421  22.177  0.00  0.00    +0.000 A 
ATOM     21  C   UNL     1      -7.769  11.498  21.260  0.00  0.00    +0.000 A 
ATOM     22  C   UNL     1      -7.403  11.791  19.965  0.00  0.00    +0.000 A 
ATOM     23  N   UNL     1      -7.114  10.990  18.893  0.00  0.00    +0.000 N 
ATOM     24  N   UNL     1      -6.956  11.660  17.744  0.00  0.00    +0.000 NA
ATOM     25  C   UNL     1      -7.074  12.948  18.109  0.00  0.00    +0.000 A 
ATOM     26  C   UNL     1      -7.223  13.102  19.518  0.00  0.00    +0.000 A 
ATOM     27  C   UNL     1      -7.254  14.141  20.482  0.00  0.00    +0.000 A 
ATOM     28  H   UNL     1      -6.985   9.987  18.907  0.00  0.00    +0.000 HD
BRANCH  25  29
ATOM     29  C   UNL     1      -6.989  13.947  17.081  0.00  0.00    +0.000 C 
ATOM     30  N   UNL     1      -6.903  14.767  16.269  0.00  0.00    +0.000 NA
ENDBRANCH  25  29
ENDBRANCH  13  19
BRANCH   1  32
ATOM     31  C   UNL     1      -0.506  10.067  18.184  0.00  0.00    +0.000 C 
ATOM     32  C   UNL     1       0.463  10.543  19.281  0.00  0.00    +0.000 C 
ATOM     33  C   UNL     1       0.931   9.333  20.111  0.00  0.00    +0.000 C 
ATOM     34  C   UNL     1       1.698  11.154  18.584  0.00  0.00    +0.000 C 
ENDBRANCH   1  32
TORSDOF 3
ENDMDL
MODEL 4
REMARK VINA RESULT:      -7.0      2.777      5.229
REMARK  Name = 
REMARK  6 active torsions:
REMARK  status: ('A' for Active; 'I' for Inactive)
REMARK    1  A    between atoms: C_1  and  C_2
REMARK    2  A    between atoms: C_2  and  C_3
REMARK    3  A    between atoms: C_2  and  C_4
REMARK    4  A    between atoms: C_2  and  N_5
REMARK    5  A    between atoms: C_17  and  C_19
REMARK    6  A    between atoms: C_25  and  C_26
REMARK                            x       y       z     vdW  Elec       q    Type
REMARK                         _______ _______ _______ _____ _____    ______ ____
ROOT
ATOM      1  N   UNL     1      -0.344  10.903  22.045  0.00  0.00    +0.000 N 
ATOM      2  C   UNL     1      -1.367  10.915  22.962  0.00  0.00    +0.000 A 
ATOM      3  C   UNL     1      -1.629  12.237  23.226  0.00  0.00    +0.000 A 
ATOM      4  C   UNL     1      -0.705  12.969  22.437  0.00  0.00    +0.000 A 
ATOM      5  N   UNL     1       0.055  12.148  21.695  0.00  0.00    +0.000 NA
ATOM      6  C   UNL     1      -0.667  14.434  22.420  0.00  0.00    +0.000 C 
ATOM      7  O   UNL     1       0.135  15.127  21.801  0.00  0.00    +0.000 OA
ATOM      8  N   UNL     1      -1.663  15.052  23.196  0.00  0.00    +0.000 N 
ATOM      9  C   UNL     1      -2.946  14.352  23.514  0.00  0.00    +0.000 C 
ATOM     10  C   UNL     1      -3.716  14.181  22.188  0.00  0.00    +0.000 C 
ATOM     11  C   UNL     1      -4.381  15.489  21.843  0.00  0.00    +0.000 C 
ATOM     12  N   UNL     1      -5.427  15.666  22.815  0.00  0.00    +0.000 N 
ATOM     13  C   UNL     1      -6.686  15.079  22.721  0.00  0.00    +0.000 C 
ATOM     14  O   UNL     1      -7.553  15.308  23.570  0.00  0.00    +0.000 OA
ATOM     15  C   UNL     1      -4.920  16.050  24.118  0.00  0.00    +0.000 C 
ATOM     16  C   UNL     1      -3.749  15.153  24.597  0.00  0.00    +0.000 C 
ATOM     17  C   UNL     1      -2.608  12.931  24.100  0.00  0.00    +0.000 C 
ATOM     18  H   UNL     1      -1.651  16.060  23.079  0.00  0.00    +0.000 HD
ENDROOT
BRANCH  13  19
ATOM     19  C   UNL     1      -7.052  14.036  21.681  0.00  0.00    +0.000 A 
ATOM     20  C   UNL     1      -7.023  12.730  22.173  0.00  0.00    +0.000 A 
ATOM     21  C   UNL     1      -7.363  11.648  21.372  0.00  0.00    +0.000 A 
ATOM     22  C   UNL     1      -7.083  11.862  20.040  0.00  0.00    +0.000 A 
ATOM     23  N   UNL     1      -6.687  11.013  19.042  0.00  0.00    +0.000 N 
ATOM     24  N   UNL     1      -6.672  11.576  17.826  0.00  0.00    +0.000 NA
ATOM     25  C   UNL     1      -7.000  12.856  18.067  0.00  0.00    +0.000 A 
ATOM     26  C   UNL     1      -7.141  13.130  19.458  0.00  0.00    +0.000 A 
ATOM     27  C   UNL     1      -7.326  14.244  20.316  0.00  0.00    +0.000 A 
ATOM     28  H   UNL     1      -6.387  10.053  19.150  0.00  0.00    +0.000 HD
BRANCH  25  29
ATOM     29  C   UNL     1      -7.112  13.743  16.942  0.00  0.00    +0.000 C 
ATOM     30  N   UNL     1      -7.181  14.442  16.023  0.00  0.00    +0.000 NA
ENDBRANCH  25  29
ENDBRANCH  13  19
BRANCH   1  32
ATOM     31  C   UNL     1       0.851   9.961  20.089  0.00  0.00    +0.000 C 
ATOM     32  C   UNL     1       0.355   9.710  21.525  0.00  0.00    +0.000 C 
ATOM     33  C   UNL     1      -0.619   8.518  21.529  0.00  0.00    +0.000 C 
ATOM     34  C   UNL     1       1.580   9.333  22.384  0.00  0.00    +0.000 C 
ENDBRANCH   1  32
TORSDOF 3
ENDMDL
MODEL 5
REMARK VINA RESULT:      -6.9      2.729      5.512
REMARK  Name = 
REMARK  6 active torsions:
REMARK  status: ('A' for Active; 'I' for Inactive)
REMARK    1  A    between atoms: C_1  and  C_2
REMARK    2  A    between atoms: C_2  and  C_3
REMARK    3  A    between atoms: C_2  and  C_4
REMARK    4  A    between atoms: C_2  and  N_5
REMARK    5  A    between atoms: C_17  and  C_19
REMARK    6  A    between atoms: C_25  and  C_26
REMARK                            x       y       z     vdW  Elec       q    Type
REMARK                         _______ _______ _______ _____ _____    ______ ____
ROOT
ATOM      1  N   UNL     1       0.090  11.051  19.939  0.00  0.00    +0.000 N 
ATOM      2  C   UNL     1      -0.814  10.684  20.906  0.00  0.00    +0.000 A 
ATOM      3  C   UNL     1      -1.103  11.825  21.613  0.00  0.00    +0.000 A 
ATOM      4  C   UNL     1      -0.316  12.846  21.019  0.00  0.00    +0.000 A 
ATOM      5  N   UNL     1       0.385  12.371  19.978  0.00  0.00    +0.000 NA
ATOM      6  C   UNL     1      -0.349  14.237  21.479  0.00  0.00    +0.000 C 
ATOM      7  O   UNL     1       0.339  15.156  21.045  0.00  0.00    +0.000 OA
ATOM      8  N   UNL     1      -1.272  14.489  22.510  0.00  0.00    +0.000 N 
ATOM      9  C   UNL     1      -2.472  13.619  22.707  0.00  0.00    +0.000 C 
ATOM     10  C   UNL     1      -3.389  13.819  21.481  0.00  0.00    +0.000 C 
ATOM     11  C   UNL     1      -4.150  15.107  21.651  0.00  0.00    +0.000 C 
ATOM     12  N   UNL     1      -5.078  14.877  22.726  0.00  0.00    +0.000 N 
ATOM     13  C   UNL     1      -6.310  14.248  22.571  0.00  0.00    +0.000 C 
ATOM     14  O   UNL     1      -7.078  14.120  23.530  0.00  0.00    +0.000 OA
ATOM     15  C   UNL     1      -4.436  14.864  24.026  0.00  0.00    +0.000 C 
ATOM     16  C   UNL     1      -3.175  13.962  24.067  0.00  0.00    +0.000 C 
ATOM     17  C   UNL     1      -2.000  12.119  22.758  0.00  0.00    +0.000 C 
ATOM     18  H   UNL     1      -1.320  15.478  22.729  0.00  0.00    +0.000 HD
ENDROOT
BRANCH  13  19
ATOM     19  C   UNL     1      -6.751  13.566  21.289  0.00  0.00    +0.000 A 
ATOM     20  C   UNL     1      -6.756  12.172  21.376  0.00  0.00    +0.000 A 
ATOM     21  C   UNL     1      -7.165  11.382  20.310  0.00  0.00    +0.000 A 
ATOM     22  C   UNL     1      -6.920  11.969  19.088  0.00  0.00    +0.000 A 
ATOM     23  N   UNL     1      -6.590  11.439  17.869  0.00  0.00    +0.000 N 
ATOM     24  N   UNL     1      -6.593  12.334  16.872  0.00  0.00    +0.000 NA
ATOM     25  C   UNL     1      -6.864  13.496  17.489  0.00  0.00    +0.000 A 
ATOM     26  C   UNL     1      -6.948  13.354  18.904  0.00  0.00    +0.000 A 
ATOM     27  C   UNL     1      -7.061  14.172  20.057  0.00  0.00    +0.000 A 
ATOM     28  H   UNL     1      -6.325  10.482  17.680  0.00  0.00    +0.000 HD
BRANCH  25  29
ATOM     29  C   UNL     1      -6.978  14.675  16.677  0.00  0.00    +0.000 C 
ATOM     30  N   UNL     1      -7.053  15.613  16.004  0.00  0.00    +0.000 NA
ENDBRANCH  25  29
ENDBRANCH  13  19
BRANCH   1  32
ATOM     31  C   UNL     1       1.952  10.877  18.312  0.00  0.00    +0.000 C 
ATOM     32  C   UNL     1       0.776  10.150  18.990  0.00  0.00    +0.000 C 
ATOM     33  C   UNL     1      -0.231   9.695  17.917  0.00  0.00    +0.000 C 
ATOM     34  C   UNL     1       1.339   8.893  19.685  0.00  0.00    +0.000 C 
ENDBRANCH   1  32
TORSDOF 3
ENDMDL
MODEL 6
REMARK VINA RESULT:      -6.8      7.923     11.248
REMARK  Name = 
REMARK  6 active torsions:
REMARK  status: ('A' for Active; 'I' for Inactive)
REMARK    1  A    between atoms: C_1  and  C_2
REMARK    2  A    between atoms: C_2  and  C_3
REMARK    3  A    between atoms: C_2  and  C_4
REMARK    4  A    between atoms: C_2  and  N_5
REMARK    5  A    between atoms: C_17  and  C_19
REMARK    6  A    between atoms: C_25  and  C_26
REMARK                            x       y       z     vdW  Elec       q    Type
REMARK                         _______ _______ _______ _____ _____    ______ ____
ROOT
ATOM      1  N   UNL     1       9.542  12.918  19.453  0.00  0.00    +0.000 N 
ATOM      2  C   UNL     1       8.755  13.170  20.550  0.00  0.00    +0.000 A 
ATOM      3  C   UNL     1       8.219  14.419  20.359  0.00  0.00    +0.000 A 
ATOM      4  C   UNL     1       8.744  14.869  19.120  0.00  0.00    +0.000 A 
ATOM      5  N   UNL     1       9.526  13.933  18.558  0.00  0.00    +0.000 NA
ATOM      6  C   UNL     1       8.397  16.170  18.540  0.00  0.00    +0.000 C 
ATOM      7  O   UNL     1       8.852  16.640  17.501  0.00  0.00    +0.000 OA
ATOM      8  N   UNL     1       7.451  16.903  19.277  0.00  0.00    +0.000 N 
ATOM      9  C   UNL     1       6.484  16.223  20.193  0.00  0.00    +0.000 C 
ATOM     10  C   UNL     1       5.535  15.381  19.314  0.00  0.00    +0.000 C 
ATOM     11  C   UNL     1       4.499  16.293  18.709  0.00  0.00    +0.000 C 
ATOM     12  N   UNL     1       3.659  16.712  19.799  0.00  0.00    +0.000 N 
ATOM     13  C   UNL     1       2.603  15.958  20.304  0.00  0.00    +0.000 C 
ATOM     14  O   UNL     1       1.894  16.397  21.215  0.00  0.00    +0.000 OA
ATOM     15  C   UNL     1       4.299  17.693  20.653  0.00  0.00    +0.000 C 
ATOM     16  C   UNL     1       5.734  17.282  21.075  0.00  0.00    +0.000 C 
ATOM     17  C   UNL     1       7.288  15.265  21.148  0.00  0.00    +0.000 C 
ATOM     18  H   UNL     1       7.178  17.750  18.790  0.00  0.00    +0.000 HD
ENDROOT
BRANCH  13  19
ATOM     19  C   UNL     1       2.319  14.526  19.890  0.00  0.00    +0.000 A 
ATOM     20  C   UNL     1       2.253  14.352  18.506  0.00  0.00    +0.000 A 
ATOM     21  C   UNL     1       2.036  13.101  17.944  0.00  0.00    +0.000 A 
ATOM     22  C   UNL     1       1.284  12.278  18.752  0.00  0.00    +0.000 A 
ATOM     23  N   UNL     1       0.369  11.301  18.462  0.00  0.00    +0.000 N 
ATOM     24  N   UNL     1      -0.035  10.604  19.533  0.00  0.00    +0.000 NA
ATOM     25  C   UNL     1       0.590  11.206  20.558  0.00  0.00    +0.000 A 
ATOM     26  C   UNL     1       1.331  12.352  20.146  0.00  0.00    +0.000 A 
ATOM     27  C   UNL     1       2.048  13.428  20.728  0.00  0.00    +0.000 A 
ATOM     28  H   UNL     1      -0.031  11.099  17.556  0.00  0.00    +0.000 HD
BRANCH  25  29
ATOM     29  C   UNL     1       0.395  10.665  21.873  0.00  0.00    +0.000 C 
ATOM     30  N   UNL     1       0.241  10.202  22.923  0.00  0.00    +0.000 NA
ENDBRANCH  25  29
ENDBRANCH  13  19
BRANCH   1  32
ATOM     31  C   UNL     1      10.801  11.617  17.760  0.00  0.00    +0.000 C 
ATOM     32  C   UNL     1      10.407  11.739  19.244  0.00  0.00    +0.000 C 
ATOM     33  C   UNL     1       9.642  10.475  19.676  0.00  0.00    +0.000 C 
ATOM     34  C   UNL     1      11.709  11.819  20.069  0.00  0.00    +0.000 C 
ENDBRANCH   1  32
TORSDOF 3
ENDMDL
MODEL 7
REMARK VINA RESULT:      -6.8      1.007      1.121
REMARK  Name = 
REMARK  6 active torsions:
REMARK  status: ('A' for Active; 'I' for Inactive)
REMARK    1  A    between atoms: C_1  and  C_2
REMARK    2  A    between atoms: C_2  and  C_3
REMARK    3  A    between atoms: C_2  and  C_4
REMARK    4  A    between atoms: C_2  and  N_5
REMARK    5  A    between atoms: C_17  and  C_19
REMARK    6  A    between atoms: C_25  and  C_26
REMARK                            x       y       z     vdW  Elec       q    Type
REMARK                         _______ _______ _______ _____ _____    ______ ____
ROOT
ATOM      1  N   UNL     1      -1.239  16.496  22.867  0.00  0.00    +0.000 N 
ATOM      2  C   UNL     1      -1.428  15.144  23.013  0.00  0.00    +0.000 A 
ATOM      3  C   UNL     1      -2.698  14.986  23.510  0.00  0.00    +0.000 A 
ATOM      4  C   UNL     1      -3.213  16.300  23.655  0.00  0.00    +0.000 A 
ATOM      5  N   UNL     1      -2.327  17.215  23.230  0.00  0.00    +0.000 NA
ATOM      6  C   UNL     1      -4.566  16.569  24.148  0.00  0.00    +0.000 C 
ATOM      7  O   UNL     1      -5.055  17.678  24.343  0.00  0.00    +0.000 OA
ATOM      8  N   UNL     1      -5.334  15.418  24.402  0.00  0.00    +0.000 N 
ATOM      9  C   UNL     1      -5.045  14.125  23.709  0.00  0.00    +0.000 C 
ATOM     10  C   UNL     1      -5.362  14.325  22.212  0.00  0.00    +0.000 C 
ATOM     11  C   UNL     1      -6.853  14.231  22.016  0.00  0.00    +0.000 C 
ATOM     12  N   UNL     1      -7.193  12.853  22.246  0.00  0.00    +0.000 N 
ATOM     13  C   UNL     1      -7.072  11.849  21.289  0.00  0.00    +0.000 C 
ATOM     14  O   UNL     1      -7.424  10.692  21.540  0.00  0.00    +0.000 OA
ATOM     15  C   UNL     1      -7.165  12.497  23.652  0.00  0.00    +0.000 C 
ATOM     16  C   UNL     1      -5.869  12.962  24.365  0.00  0.00    +0.000 C 
ATOM     17  C   UNL     1      -3.514  13.800  23.873  0.00  0.00    +0.000 C 
ATOM     18  H   UNL     1      -6.287  15.658  24.653  0.00  0.00    +0.000 HD
ENDROOT
BRANCH  13  19
ATOM     19  C   UNL     1      -6.397  12.047  19.944  0.00  0.00    +0.000 A 
ATOM     20  C   UNL     1      -7.290  12.037  18.870  0.00  0.00    +0.000 A 
ATOM     21  C   UNL     1      -6.855  12.238  17.567  0.00  0.00    +0.000 A 
ATOM     22  C   UNL     1      -5.565  11.799  17.362  0.00  0.00    +0.000 A 
ATOM     23  N   UNL     1      -4.949  11.253  16.268  0.00  0.00    +0.000 N 
ATOM     24  N   UNL     1      -3.625  11.104  16.412  0.00  0.00    +0.000 NA
ATOM     25  C   UNL     1      -3.396  11.501  17.674  0.00  0.00    +0.000 A 
ATOM     26  C   UNL     1      -4.598  11.825  18.369  0.00  0.00    +0.000 A 
ATOM     27  C   UNL     1      -5.018  12.154  19.683  0.00  0.00    +0.000 A 
ATOM     28  H   UNL     1      -5.396  10.937  15.418  0.00  0.00    +0.000 HD
BRANCH  25  29
ATOM     29  C   UNL     1      -2.038  11.500  18.143  0.00  0.00    +0.000 C 
ATOM     30  N   UNL     1      -0.952  11.480  18.540  0.00  0.00    +0.000 NA
ENDBRANCH  25  29
ENDBRANCH  13  19
BRANCH   1  32
ATOM     31  C   UNL     1       0.130  17.191  20.921  0.00  0.00    +0.000 C 
ATOM     32  C   UNL     1       0.010  17.170  22.456  0.00  0.00    +0.000 C 
ATOM     33  C   UNL     1       1.208  16.410  23.053  0.00  0.00    +0.000 C 
ATOM     34  C   UNL     1       0.073  18.631  22.951  0.00  0.00    +0.000 C 
ENDBRANCH   1  32
TORSDOF 3
ENDMDL
MODEL 8
REMARK VINA RESULT:      -6.7      2.367      3.532
REMARK  Name = 
REMARK  6 active torsions:
REMARK  status: ('A' for Active; 'I' for Inactive)
REMARK    1  A    between atoms: C_1  and  C_2
REMARK    2  A    between atoms: C_2  and  C_3
REMARK    3  A    between atoms: C_2  and  C_4
REMARK    4  A    between atoms: C_2  and  N_5
REMARK    5  A    between atoms: C_17  and  C_19
REMARK    6  A    between atoms: C_25  and  C_26
REMARK                            x       y       z     vdW  Elec       q    Type
REMARK                         _______ _______ _______ _____ _____    ______ ____
ROOT
ATOM      1  N   UNL     1      -0.716  15.038  20.644  0.00  0.00    +0.000 N 
ATOM      2  C   UNL     1      -1.096  13.780  21.045  0.00  0.00    +0.000 A 
ATOM      3  C   UNL     1      -2.036  13.958  22.030  0.00  0.00    +0.000 A 
ATOM      4  C   UNL     1      -2.161  15.364  22.181  0.00  0.00    +0.000 A 
ATOM      5  N   UNL     1      -1.375  16.015  21.309  0.00  0.00    +0.000 NA
ATOM      6  C   UNL     1      -3.089  15.976  23.135  0.00  0.00    +0.000 C 
ATOM      7  O   UNL     1      -3.212  17.178  23.351  0.00  0.00    +0.000 OA
ATOM      8  N   UNL     1      -3.892  15.060  23.838  0.00  0.00    +0.000 N 
ATOM      9  C   UNL     1      -4.195  13.706  23.280  0.00  0.00    +0.000 C 
ATOM     10  C   UNL     1      -5.071  13.913  22.026  0.00  0.00    +0.000 C 
ATOM     11  C   UNL     1      -6.488  14.178  22.465  0.00  0.00    +0.000 C 
ATOM     12  N   UNL     1      -6.971  12.936  23.006  0.00  0.00    +0.000 N 
ATOM     13  C   UNL     1      -7.476  11.893  22.235  0.00  0.00    +0.000 C 
ATOM     14  O   UNL     1      -7.914  10.869  22.768  0.00  0.00    +0.000 OA
ATOM     15  C   UNL     1      -6.420  12.645  24.315  0.00  0.00    +0.000 C 
ATOM     16  C   UNL     1      -4.878  12.809  24.371  0.00  0.00    +0.000 C 
ATOM     17  C   UNL     1      -2.842  13.025  22.856  0.00  0.00    +0.000 C 
ATOM     18  H   UNL     1      -4.576  15.536  24.416  0.00  0.00    +0.000 HD
ENDROOT
BRANCH  13  19
ATOM     19  C   UNL     1      -7.414  11.862  20.719  0.00  0.00    +0.000 A 
ATOM     20  C   UNL     1      -7.003  10.629  20.207  0.00  0.00    +0.000 A 
ATOM     21  C   UNL     1      -6.921  10.405  18.839  0.00  0.00    +0.000 A 
ATOM     22  C   UNL     1      -6.629  11.549  18.129  0.00  0.00    +0.000 A 
ATOM     23  N   UNL     1      -5.911  11.754  16.981  0.00  0.00    +0.000 N 
ATOM     24  N   UNL     1      -5.991  13.005  16.510  0.00  0.00    +0.000 NA
ATOM     25  C   UNL     1      -6.728  13.646  17.432  0.00  0.00    +0.000 A 
ATOM     26  C   UNL     1      -7.048  12.815  18.545  0.00  0.00    +0.000 A 
ATOM     27  C   UNL     1      -7.641  12.927  19.828  0.00  0.00    +0.000 A 
ATOM     28  H   UNL     1      -5.328  11.078  16.505  0.00  0.00    +0.000 HD
BRANCH  25  29
ATOM     29  C   UNL     1      -7.036  15.029  17.202  0.00  0.00    +0.000 C 
ATOM     30  N   UNL     1      -7.261  16.146  17.000  0.00  0.00    +0.000 NA
ENDBRANCH  25  29
ENDBRANCH  13  19
BRANCH   1  32
ATOM     31  C   UNL     1       0.362  14.343  18.524  0.00  0.00    +0.000 C 
ATOM     32  C   UNL     1       0.346  15.367  19.673  0.00  0.00    +0.000 C 
ATOM     33  C   UNL     1       1.707  15.349  20.394  0.00  0.00    +0.000 C 
ATOM     34  C   UNL     1       0.151  16.766  19.051  0.00  0.00    +0.000 C 
ENDBRANCH   1  32
TORSDOF 3
ENDMDL
MODEL 9
REMARK VINA RESULT:      -6.6      1.358      1.784
REMARK  Name = 
REMARK  6 active torsions:
REMARK  status: ('A' for Active; 'I' for Inactive)
REMARK    1  A    between atoms: C_1  and  C_2
REMARK    2  A    between atoms: C_2  and  C_3
REMARK    3  A    between atoms: C_2  and  C_4
REMARK    4  A    between atoms: C_2  and  N_5
REMARK    5  A    between atoms: C_17  and  C_19
REMARK    6  A    between atoms: C_25  and  C_26
REMARK                            x       y       z     vdW  Elec       q    Type
REMARK                         _______ _______ _______ _____ _____    ______ ____
ROOT
ATOM      1  N   UNL     1       0.103  15.763  22.509  0.00  0.00    +0.000 N 
ATOM      2  C   UNL     1      -0.317  14.467  22.687  0.00  0.00    +0.000 A 
ATOM      3  C   UNL     1      -1.607  14.541  23.152  0.00  0.00    +0.000 A 
ATOM      4  C   UNL     1      -1.894  15.928  23.245  0.00  0.00    +0.000 A 
ATOM      5  N   UNL     1      -0.856  16.666  22.821  0.00  0.00    +0.000 NA
ATOM      6  C   UNL     1      -3.194  16.437  23.691  0.00  0.00    +0.000 C 
ATOM      7  O   UNL     1      -3.492  17.618  23.842  0.00  0.00    +0.000 OA
ATOM      8  N   UNL     1      -4.151  15.441  23.954  0.00  0.00    +0.000 N 
ATOM      9  C   UNL     1      -4.070  14.096  23.306  0.00  0.00    +0.000 C 
ATOM     10  C   UNL     1      -4.312  14.299  21.796  0.00  0.00    +0.000 C 
ATOM     11  C   UNL     1      -5.793  14.452  21.560  0.00  0.00    +0.000 C 
ATOM     12  N   UNL     1      -6.368  13.159  21.817  0.00  0.00    +0.000 N 
ATOM     13  C   UNL     1      -6.396  12.120  20.892  0.00  0.00    +0.000 C 
ATOM     14  O   UNL     1      -6.944  11.047  21.164  0.00  0.00    +0.000 OA
ATOM     15  C   UNL     1      -6.433  12.848  23.232  0.00  0.00    +0.000 C 
ATOM     16  C   UNL     1      -5.094  13.110  23.970  0.00  0.00    +0.000 C 
ATOM     17  C   UNL     1      -2.621  13.523  23.523  0.00  0.00    +0.000 C 
ATOM     18  H   UNL     1      -5.056  15.846  24.171  0.00  0.00    +0.000 HD
ENDROOT
BRANCH  13  19
ATOM     19  C   UNL     1      -5.666  12.158  19.562  0.00  0.00    +0.000 A 
ATOM     20  C   UNL     1      -6.506  12.411  18.476  0.00  0.00    +0.000 A 
ATOM     21  C   UNL     1      -6.006  12.516  17.185  0.00  0.00    +0.000 A 
ATOM     22  C   UNL     1      -4.878  11.751  16.986  0.00  0.00    +0.000 A 
ATOM     23  N   UNL     1      -4.409  11.083  15.887  0.00  0.00    +0.000 N 
ATOM     24  N   UNL     1      -3.177  10.580  16.045  0.00  0.00    +0.000 NA
ATOM     25  C   UNL     1      -2.876  10.874  17.320  0.00  0.00    +0.000 A 
ATOM     26  C   UNL     1      -3.960  11.494  18.006  0.00  0.00    +0.000 A 
ATOM     27  C   UNL     1      -4.303  11.895  19.323  0.00  0.00    +0.000 A 
ATOM     28  H   UNL     1      -4.908  10.918  15.023  0.00  0.00    +0.000 HD
BRANCH  25  29
ATOM     29  C   UNL     1      -1.578  10.496  17.806  0.00  0.00    +0.000 C 
ATOM     30  N   UNL     1      -0.524  10.189  18.171  0.00  0.00    +0.000 NA
ENDBRANCH  25  29
ENDBRANCH  13  19
BRANCH   1  32
ATOM     31  C   UNL     1       2.324  14.992  21.728  0.00  0.00    +0.000 C 
ATOM     32  C   UNL     1       1.457  16.203  22.116  0.00  0.00    +0.000 C 
ATOM     33  C   UNL     1       2.107  16.940  23.301  0.00  0.00    +0.000 C 
ATOM     34  C   UNL     1       1.428  17.165  20.909  0.00  0.00    +0.000 C 
ENDBRANCH   1  32
TORSDOF 3
ENDMDL
