MODEL 1
REMARK VINA RESULT:      -4.9      0.000      0.000
REMARK  Name = 
REMARK  16 active torsions:
REMARK  status: ('A' for Active; 'I' for Inactive)
REMARK    1  A    between atoms: N_1  and  C_2
REMARK    2  A    between atoms: C_2  and  C_3
REMARK    3  A    between atoms: C_3  and  C_4
REMARK    4  A    between atoms: C_4  and  N_5
REMARK    5  A    between atoms: N_5  and  C_6
REMARK    6  A    between atoms: C_6  and  C_7
REMARK    7  A    between atoms: C_7  and  C_8
REMARK    8  A    between atoms: C_8  and  C_9
REMARK    9  A    between atoms: C_9  and  C_10
REMARK   10  A    between atoms: C_10  and  C_11
REMARK   11  A    between atoms: C_11  and  C_12
REMARK   12  A    between atoms: C_12  and  N_13
REMARK   13  A    between atoms: N_13  and  C_14
REMARK   14  A    between atoms: C_14  and  C_15
REMARK   15  A    between atoms: C_15  and  C_16
REMARK   16  A    between atoms: C_16  and  N_17
REMARK                            x       y       z     vdW  Elec       q    Type
REMARK                         _______ _______ _______ _____ _____    ______ ____
ROOT
ATOM      1  C   UNL     1       3.172   5.428  19.702  0.00  0.00    +0.000 C 
ENDROOT
BRANCH   1   2
ATOM      2  C   UNL     1       3.044   6.145  18.352  0.00  0.00    +0.000 C 
BRANCH   2   3
ATOM      3  C   UNL     1       4.246   5.961  17.415  0.00  0.00    +0.000 C 
BRANCH   3   4
ATOM      4  C   UNL     1       5.559   5.665  18.146  0.00  0.00    +0.000 C 
BRANCH   4   5
ATOM      5  N   UNL     1       6.057   4.358  17.729  0.00  0.00    +0.000 NA
ATOM      6  H   UNL     1       5.272   3.731  17.552  0.00  0.00    +0.000 HD
BRANCH   5   7
ATOM      7  C   UNL     1       6.909   4.443  16.552  0.00  0.00    +0.000 C 
BRANCH   7   8
ATOM      8  C   UNL     1       6.219   3.735  15.386  0.00  0.00    +0.000 C 
BRANCH   8   9
ATOM      9  C   UNL     1       6.581   4.403  14.063  0.00  0.00    +0.000 C 
BRANCH   9  10
ATOM     10  N   UNL     1       7.552   5.469  14.276  0.00  0.00    +0.000 NA
ATOM     11  H   UNL     1       7.579   5.717  15.265  0.00  0.00    +0.000 HD
ATOM     12  H   UNL     1       7.250   6.305  13.779  0.00  0.00    +0.000 HD
ENDBRANCH   9  10
ENDBRANCH   8   9
ENDBRANCH   7   8
ENDBRANCH   5   7
ENDBRANCH   4   5
ENDBRANCH   3   4
ENDBRANCH   2   3
ENDBRANCH   1   2
BRANCH   1  13
ATOM     13  C   UNL     1       1.895   5.434  20.547  0.00  0.00    +0.000 C 
BRANCH  13  14
ATOM     14  C   UNL     1       1.355   4.024  20.782  0.00  0.00    +0.000 C 
BRANCH  14  15
ATOM     15  C   UNL     1       0.728   3.447  19.519  0.00  0.00    +0.000 C 
BRANCH  15  16
ATOM     16  N   UNL     1       1.467   2.243  19.143  0.00  0.00    +0.000 NA
ATOM     17  H   UNL     1       2.142   2.008  19.869  0.00  0.00    +0.000 HD
BRANCH  16  18
ATOM     18  C   UNL     1       2.157   2.432  17.869  0.00  0.00    +0.000 C 
BRANCH  18  19
ATOM     19  C   UNL     1       3.576   1.871  17.965  0.00  0.00    +0.000 C 
BRANCH  19  20
ATOM     20  C   UNL     1       3.958   1.653  19.426  0.00  0.00    +0.000 C 
BRANCH  20  21
ATOM     21  N   UNL     1       5.156   2.414  19.761  0.00  0.00    +0.000 NA
ATOM     22  H   UNL     1       5.849   1.790  20.172  0.00  0.00    +0.000 HD
ATOM     23  H   UNL     1       4.932   3.103  20.480  0.00  0.00    +0.000 HD
ENDBRANCH  20  21
ENDBRANCH  19  20
ENDBRANCH  18  19
ENDBRANCH  16  18
ENDBRANCH  15  16
ENDBRANCH  14  15
ENDBRANCH  13  14
ENDBRANCH   1  13
TORSDOF 16
ENDMDL
MODEL 2
REMARK VINA RESULT:      -4.8      1.057      5.111
REMARK  Name = 
REMARK  16 active torsions:
REMARK  status: ('A' for Active; 'I' for Inactive)
REMARK    1  A    between atoms: N_1  and  C_2
REMARK    2  A    between atoms: C_2  and  C_3
REMARK    3  A    between atoms: C_3  and  C_4
REMARK    4  A    between atoms: C_4  and  N_5
REMARK    5  A    between atoms: N_5  and  C_6
REMARK    6  A    between atoms: C_6  and  C_7
REMARK    7  A    between atoms: C_7  and  C_8
REMARK    8  A    between atoms: C_8  and  C_9
REMARK    9  A    between atoms: C_9  and  C_10
REMARK   10  A    between atoms: C_10  and  C_11
REMARK   11  A    between atoms: C_11  and  C_12
REMARK   12  A    between atoms: C_12  and  N_13
REMARK   13  A    between atoms: N_13  and  C_14
REMARK   14  A    between atoms: C_14  and  C_15
REMARK   15  A    between atoms: C_15  and  C_16
REMARK   16  A    between atoms: C_16  and  N_17
REMARK                            x       y       z     vdW  Elec       q    Type
REMARK                         _______ _______ _______ _____ _____    ______ ____
ROOT
ATOM      1  C   UNL     1       1.755   5.384  19.377  0.00  0.00    +0.000 C 
ENDROOT
BRANCH   1   2
ATOM      2  C   UNL     1       1.864   4.791  20.788  0.00  0.00    +0.000 C 
BRANCH   2   3
ATOM      3  C   UNL     1       1.397   3.334  20.906  0.00  0.00    +0.000 C 
BRANCH   3   4
ATOM      4  C   UNL     1       0.800   2.771  19.613  0.00  0.00    +0.000 C 
BRANCH   4   5
ATOM      5  N   UNL     1       1.697   1.754  19.073  0.00  0.00    +0.000 NA
ATOM      6  H   UNL     1       1.180   0.889  18.914  0.00  0.00    +0.000 HD
BRANCH   5   7
ATOM      7  C   UNL     1       2.343   2.187  17.843  0.00  0.00    +0.000 C 
BRANCH   7   8
ATOM      8  C   UNL     1       3.841   1.901  17.940  0.00  0.00    +0.000 C 
BRANCH   8   9
ATOM      9  C   UNL     1       4.464   2.686  19.090  0.00  0.00    +0.000 C 
BRANCH   9  10
ATOM     10  N   UNL     1       4.965   1.781  20.116  0.00  0.00    +0.000 NA
ATOM     11  H   UNL     1       5.616   1.116  19.700  0.00  0.00    +0.000 HD
ATOM     12  H   UNL     1       4.192   1.230  20.488  0.00  0.00    +0.000 HD
ENDBRANCH   9  10
ENDBRANCH   8   9
ENDBRANCH   7   8
ENDBRANCH   5   7
ENDBRANCH   4   5
ENDBRANCH   3   4
ENDBRANCH   2   3
ENDBRANCH   1   2
BRANCH   1  13
ATOM     13  C   UNL     1       2.838   6.412  19.035  0.00  0.00    +0.000 C 
BRANCH  13  14
ATOM     14  C   UNL     1       3.680   5.981  17.834  0.00  0.00    +0.000 C 
BRANCH  14  15
ATOM     15  C   UNL     1       4.458   7.151  17.247  0.00  0.00    +0.000 C 
BRANCH  15  16
ATOM     16  N   UNL     1       5.822   6.707  16.963  0.00  0.00    +0.000 NA
ATOM     17  H   UNL     1       5.859   6.262  16.047  0.00  0.00    +0.000 HD
BRANCH  16  18
ATOM     18  C   UNL     1       6.290   5.775  17.986  0.00  0.00    +0.000 C 
BRANCH  18  19
ATOM     19  C   UNL     1       7.280   4.788  17.367  0.00  0.00    +0.000 C 
BRANCH  19  20
ATOM     20  C   UNL     1       6.858   4.442  15.942  0.00  0.00    +0.000 C 
BRANCH  20  21
ATOM     21  N   UNL     1       7.601   5.245  14.979  0.00  0.00    +0.000 NA
ATOM     22  H   UNL     1       8.516   5.475  15.364  0.00  0.00    +0.000 HD
ATOM     23  H   UNL     1       7.122   6.135  14.834  0.00  0.00    +0.000 HD
ENDBRANCH  20  21
ENDBRANCH  19  20
ENDBRANCH  18  19
ENDBRANCH  16  18
ENDBRANCH  15  16
ENDBRANCH  14  15
ENDBRANCH  13  14
ENDBRANCH   1  13
TORSDOF 16
ENDMDL
MODEL 3
REMARK VINA RESULT:      -4.7      1.532      2.437
REMARK  Name = 
REMARK  16 active torsions:
REMARK  status: ('A' for Active; 'I' for Inactive)
REMARK    1  A    between atoms: N_1  and  C_2
REMARK    2  A    between atoms: C_2  and  C_3
REMARK    3  A    between atoms: C_3  and  C_4
REMARK    4  A    between atoms: C_4  and  N_5
REMARK    5  A    between atoms: N_5  and  C_6
REMARK    6  A    between atoms: C_6  and  C_7
REMARK    7  A    between atoms: C_7  and  C_8
REMARK    8  A    between atoms: C_8  and  C_9
REMARK    9  A    between atoms: C_9  and  C_10
REMARK   10  A    between atoms: C_10  and  C_11
REMARK   11  A    between atoms: C_11  and  C_12
REMARK   12  A    between atoms: C_12  and  N_13
REMARK   13  A    between atoms: N_13  and  C_14
REMARK   14  A    between atoms: C_14  and  C_15
REMARK   15  A    between atoms: C_15  and  C_16
REMARK   16  A    between atoms: C_16  and  N_17
REMARK                            x       y       z     vdW  Elec       q    Type
REMARK                         _______ _______ _______ _____ _____    ______ ____
ROOT
ATOM      1  C   UNL     1       3.716   5.720  18.080  0.00  0.00    +0.000 C 
ENDROOT
BRANCH   1   2
ATOM      2  C   UNL     1       4.660   5.240  19.191  0.00  0.00    +0.000 C 
BRANCH   2   3
ATOM      3  C   UNL     1       6.138   5.587  18.966  0.00  0.00    +0.000 C 
BRANCH   3   4
ATOM      4  C   UNL     1       6.398   6.379  17.681  0.00  0.00    +0.000 C 
BRANCH   4   5
ATOM      5  N   UNL     1       7.477   5.743  16.934  0.00  0.00    +0.000 NA
ATOM      6  H   UNL     1       8.316   5.696  17.513  0.00  0.00    +0.000 HD
BRANCH   5   7
ATOM      7  C   UNL     1       7.114   4.413  16.466  0.00  0.00    +0.000 C 
BRANCH   7   8
ATOM      8  C   UNL     1       6.045   4.542  15.381  0.00  0.00    +0.000 C 
BRANCH   8   9
ATOM      9  C   UNL     1       6.684   4.549  13.996  0.00  0.00    +0.000 C 
BRANCH   9  10
ATOM     10  N   UNL     1       7.784   5.505  13.944  0.00  0.00    +0.000 NA
ATOM     11  H   UNL     1       7.413   6.453  13.884  0.00  0.00    +0.000 HD
ATOM     12  H   UNL     1       8.323   5.354  13.093  0.00  0.00    +0.000 HD
ENDBRANCH   9  10
ENDBRANCH   8   9
ENDBRANCH   7   8
ENDBRANCH   5   7
ENDBRANCH   4   5
ENDBRANCH   3   4
ENDBRANCH   2   3
ENDBRANCH   1   2
BRANCH   1  13
ATOM     13  C   UNL     1       2.582   4.746  17.746  0.00  0.00    +0.000 C 
BRANCH  13  14
ATOM     14  C   UNL     1       3.109   3.403  17.242  0.00  0.00    +0.000 C 
BRANCH  14  15
ATOM     15  C   UNL     1       2.699   2.259  18.162  0.00  0.00    +0.000 C 
BRANCH  15  16
ATOM     16  N   UNL     1       1.240   2.214  18.224  0.00  0.00    +0.000 NA
ATOM     17  H   UNL     1       0.842   2.820  17.508  0.00  0.00    +0.000 HD
BRANCH  16  18
ATOM     18  C   UNL     1       0.760   2.624  19.541  0.00  0.00    +0.000 C 
BRANCH  18  19
ATOM     19  C   UNL     1       1.859   2.400  20.581  0.00  0.00    +0.000 C 
BRANCH  19  20
ATOM     20  C   UNL     1       2.001   3.630  21.471  0.00  0.00    +0.000 C 
BRANCH  20  21
ATOM     21  N   UNL     1       1.372   4.788  20.848  0.00  0.00    +0.000 NA
ATOM     22  H   UNL     1       1.586   5.623  21.392  0.00  0.00    +0.000 HD
ATOM     23  H   UNL     1       0.356   4.683  20.878  0.00  0.00    +0.000 HD
ENDBRANCH  20  21
ENDBRANCH  19  20
ENDBRANCH  18  19
ENDBRANCH  16  18
ENDBRANCH  15  16
ENDBRANCH  14  15
ENDBRANCH  13  14
ENDBRANCH   1  13
TORSDOF 16
ENDMDL
MODEL 4
REMARK VINA RESULT:      -4.6      1.424      1.917
REMARK  Name = 
REMARK  16 active torsions:
REMARK  status: ('A' for Active; 'I' for Inactive)
REMARK    1  A    between atoms: N_1  and  C_2
REMARK    2  A    between atoms: C_2  and  C_3
REMARK    3  A    between atoms: C_3  and  C_4
REMARK    4  A    between atoms: C_4  and  N_5
REMARK    5  A    between atoms: N_5  and  C_6
REMARK    6  A    between atoms: C_6  and  C_7
REMARK    7  A    between atoms: C_7  and  C_8
REMARK    8  A    between atoms: C_8  and  C_9
REMARK    9  A    between atoms: C_9  and  C_10
REMARK   10  A    between atoms: C_10  and  C_11
REMARK   11  A    between atoms: C_11  and  C_12
REMARK   12  A    between atoms: C_12  and  N_13
REMARK   13  A    between atoms: N_13  and  C_14
REMARK   14  A    between atoms: C_14  and  C_15
REMARK   15  A    between atoms: C_15  and  C_16
REMARK   16  A    between atoms: C_16  and  N_17
REMARK                            x       y       z     vdW  Elec       q    Type
REMARK                         _______ _______ _______ _____ _____    ______ ____
ROOT
ATOM      1  C   UNL     1       3.583   6.206  19.112  0.00  0.00    +0.000 C 
ENDROOT
BRANCH   1   2
ATOM      2  C   UNL     1       3.936   6.096  17.623  0.00  0.00    +0.000 C 
BRANCH   2   3
ATOM      3  C   UNL     1       3.648   4.724  16.998  0.00  0.00    +0.000 C 
BRANCH   3   4
ATOM      4  C   UNL     1       4.852   4.106  16.283  0.00  0.00    +0.000 C 
BRANCH   4   5
ATOM      5  N   UNL     1       5.605   5.160  15.611  0.00  0.00    +0.000 NA
ATOM      6  H   UNL     1       5.303   6.072  15.954  0.00  0.00    +0.000 HD
BRANCH   5   7
ATOM      7  C   UNL     1       7.042   5.008  15.784  0.00  0.00    +0.000 C 
BRANCH   7   8
ATOM      8  C   UNL     1       7.342   4.765  17.263  0.00  0.00    +0.000 C 
BRANCH   8   9
ATOM      9  C   UNL     1       7.562   6.089  17.990  0.00  0.00    +0.000 C 
BRANCH   9  10
ATOM     10  N   UNL     1       7.378   7.211  17.078  0.00  0.00    +0.000 NA
ATOM     11  H   UNL     1       7.386   8.085  17.602  0.00  0.00    +0.000 HD
ATOM     12  H   UNL     1       6.459   7.146  16.643  0.00  0.00    +0.000 HD
ENDBRANCH   9  10
ENDBRANCH   8   9
ENDBRANCH   7   8
ENDBRANCH   5   7
ENDBRANCH   4   5
ENDBRANCH   3   4
ENDBRANCH   2   3
ENDBRANCH   1   2
BRANCH   1  13
ATOM     13  C   UNL     1       2.153   5.781  19.458  0.00  0.00    +0.000 C 
BRANCH  13  14
ATOM     14  C   UNL     1       2.100   4.910  20.714  0.00  0.00    +0.000 C 
BRANCH  14  15
ATOM     15  C   UNL     1       1.118   3.757  20.555  0.00  0.00    +0.000 C 
BRANCH  15  16
ATOM     16  N   UNL     1       1.875   2.508  20.490  0.00  0.00    +0.000 NA
ATOM     17  H   UNL     1       2.830   2.663  20.811  0.00  0.00    +0.000 HD
BRANCH  16  18
ATOM     18  C   UNL     1       1.892   1.978  19.129  0.00  0.00    +0.000 C 
BRANCH  18  19
ATOM     19  C   UNL     1       3.334   1.709  18.700  0.00  0.00    +0.000 C 
BRANCH  19  20
ATOM     20  C   UNL     1       4.280   1.901  19.882  0.00  0.00    +0.000 C 
BRANCH  20  21
ATOM     21  N   UNL     1       5.232   2.970  19.608  0.00  0.00    +0.000 NA
ATOM     22  H   UNL     1       5.988   2.609  19.026  0.00  0.00    +0.000 HD
ATOM     23  H   UNL     1       5.666   3.273  20.481  0.00  0.00    +0.000 HD
ENDBRANCH  20  21
ENDBRANCH  19  20
ENDBRANCH  18  19
ENDBRANCH  16  18
ENDBRANCH  15  16
ENDBRANCH  14  15
ENDBRANCH  13  14
ENDBRANCH   1  13
TORSDOF 16
ENDMDL
MODEL 5
REMARK VINA RESULT:      -4.6      1.643      2.460
REMARK  Name = 
REMARK  16 active torsions:
REMARK  status: ('A' for Active; 'I' for Inactive)
REMARK    1  A    between atoms: N_1  and  C_2
REMARK    2  A    between atoms: C_2  and  C_3
REMARK    3  A    between atoms: C_3  and  C_4
REMARK    4  A    between atoms: C_4  and  N_5
REMARK    5  A    between atoms: N_5  and  C_6
REMARK    6  A    between atoms: C_6  and  C_7
REMARK    7  A    between atoms: C_7  and  C_8
REMARK    8  A    between atoms: C_8  and  C_9
REMARK    9  A    between atoms: C_9  and  C_10
REMARK   10  A    between atoms: C_10  and  C_11
REMARK   11  A    between atoms: C_11  and  C_12
REMARK   12  A    between atoms: C_12  and  N_13
REMARK   13  A    between atoms: N_13  and  C_14
REMARK   14  A    between atoms: C_14  and  C_15
REMARK   15  A    between atoms: C_15  and  C_16
REMARK   16  A    between atoms: C_16  and  N_17
REMARK                            x       y       z     vdW  Elec       q    Type
REMARK                         _______ _______ _______ _____ _____    ______ ____
ROOT
ATOM      1  C   UNL     1       3.852   5.548  18.198  0.00  0.00    +0.000 C 
ENDROOT
BRANCH   1   2
ATOM      2  C   UNL     1       4.106   4.857  16.852  0.00  0.00    +0.000 C 
BRANCH   2   3
ATOM      3  C   UNL     1       5.385   4.010  16.801  0.00  0.00    +0.000 C 
BRANCH   3   4
ATOM      4  C   UNL     1       6.386   4.467  15.737  0.00  0.00    +0.000 C 
BRANCH   4   5
ATOM      5  N   UNL     1       7.538   5.079  16.393  0.00  0.00    +0.000 NA
ATOM      6  H   UNL     1       7.466   6.095  16.337  0.00  0.00    +0.000 HD
BRANCH   5   7
ATOM      7  C   UNL     1       7.669   4.659  17.781  0.00  0.00    +0.000 C 
BRANCH   7   8
ATOM      8  C   UNL     1       7.361   5.846  18.691  0.00  0.00    +0.000 C 
BRANCH   8   9
ATOM      9  C   UNL     1       7.994   7.121  18.143  0.00  0.00    +0.000 C 
BRANCH   9  10
ATOM     10  N   UNL     1       7.070   7.808  17.249  0.00  0.00    +0.000 NA
ATOM     11  H   UNL     1       6.175   7.319  17.236  0.00  0.00    +0.000 HD
ATOM     12  H   UNL     1       7.430   7.770  16.297  0.00  0.00    +0.000 HD
ENDBRANCH   9  10
ENDBRANCH   8   9
ENDBRANCH   7   8
ENDBRANCH   5   7
ENDBRANCH   4   5
ENDBRANCH   3   4
ENDBRANCH   2   3
ENDBRANCH   1   2
BRANCH   1  13
ATOM     13  C   UNL     1       2.372   5.747  18.539  0.00  0.00    +0.000 C 
BRANCH  13  14
ATOM     14  C   UNL     1       2.103   5.598  20.037  0.00  0.00    +0.000 C 
BRANCH  14  15
ATOM     15  C   UNL     1       1.221   4.391  20.331  0.00  0.00    +0.000 C 
BRANCH  15  16
ATOM     16  N   UNL     1       1.251   3.501  19.172  0.00  0.00    +0.000 NA
ATOM     17  H   UNL     1       0.320   3.429  18.764  0.00  0.00    +0.000 HD
BRANCH  16  18
ATOM     18  C   UNL     1       1.731   2.173  19.546  0.00  0.00    +0.000 C 
BRANCH  18  19
ATOM     19  C   UNL     1       3.128   1.950  18.967  0.00  0.00    +0.000 C 
BRANCH  19  20
ATOM     20  C   UNL     1       4.189   2.429  19.954  0.00  0.00    +0.000 C 
BRANCH  20  21
ATOM     21  N   UNL     1       5.193   1.394  20.169  0.00  0.00    +0.000 NA
ATOM     22  H   UNL     1       5.441   1.363  21.157  0.00  0.00    +0.000 HD
ATOM     23  H   UNL     1       6.049   1.639  19.669  0.00  0.00    +0.000 HD
ENDBRANCH  20  21
ENDBRANCH  19  20
ENDBRANCH  18  19
ENDBRANCH  16  18
ENDBRANCH  15  16
ENDBRANCH  14  15
ENDBRANCH  13  14
ENDBRANCH   1  13
TORSDOF 16
ENDMDL
MODEL 6
REMARK VINA RESULT:      -4.5      1.560      6.027
REMARK  Name = 
REMARK  16 active torsions:
REMARK  status: ('A' for Active; 'I' for Inactive)
REMARK    1  A    between atoms: N_1  and  C_2
REMARK    2  A    between atoms: C_2  and  C_3
REMARK    3  A    between atoms: C_3  and  C_4
REMARK    4  A    between atoms: C_4  and  N_5
REMARK    5  A    between atoms: N_5  and  C_6
REMARK    6  A    between atoms: C_6  and  C_7
REMARK    7  A    between atoms: C_7  and  C_8
REMARK    8  A    between atoms: C_8  and  C_9
REMARK    9  A    between atoms: C_9  and  C_10
REMARK   10  A    between atoms: C_10  and  C_11
REMARK   11  A    between atoms: C_11  and  C_12
REMARK   12  A    between atoms: C_12  and  N_13
REMARK   13  A    between atoms: N_13  and  C_14
REMARK   14  A    between atoms: C_14  and  C_15
REMARK   15  A    between atoms: C_15  and  C_16
REMARK   16  A    between atoms: C_16  and  N_17
REMARK                            x       y       z     vdW  Elec       q    Type
REMARK                         _______ _______ _______ _____ _____    ______ ____
ROOT
ATOM      1  C   UNL     1       5.349   5.066  19.166  0.00  0.00    +0.000 C 
ENDROOT
BRANCH   1   2
ATOM      2  C   UNL     1       4.883   3.605  19.138  0.00  0.00    +0.000 C 
BRANCH   2   3
ATOM      3  C   UNL     1       3.963   3.251  17.961  0.00  0.00    +0.000 C 
BRANCH   3   4
ATOM      4  C   UNL     1       3.335   1.858  18.065  0.00  0.00    +0.000 C 
BRANCH   4   5
ATOM      5  N   UNL     1       1.884   1.976  17.964  0.00  0.00    +0.000 NA
ATOM      6  H   UNL     1       1.440   1.240  18.513  0.00  0.00    +0.000 HD
BRANCH   5   7
ATOM      7  C   UNL     1       1.406   3.282  18.393  0.00  0.00    +0.000 C 
BRANCH   7   8
ATOM      8  C   UNL     1       1.001   3.206  19.864  0.00  0.00    +0.000 C 
BRANCH   8   9
ATOM      9  C   UNL     1       1.071   4.585  20.512  0.00  0.00    +0.000 C 
BRANCH   9  10
ATOM     10  N   UNL     1       2.331   4.752  21.227  0.00  0.00    +0.000 NA
ATOM     11  H   UNL     1       2.447   3.995  21.900  0.00  0.00    +0.000 HD
ATOM     12  H   UNL     1       2.301   5.615  21.768  0.00  0.00    +0.000 HD
ENDBRANCH   9  10
ENDBRANCH   8   9
ENDBRANCH   7   8
ENDBRANCH   5   7
ENDBRANCH   4   5
ENDBRANCH   3   4
ENDBRANCH   2   3
ENDBRANCH   1   2
BRANCH   1  13
ATOM     13  C   UNL     1       4.542   6.007  18.266  0.00  0.00    +0.000 C 
BRANCH  13  14
ATOM     14  C   UNL     1       5.400   6.615  17.156  0.00  0.00    +0.000 C 
BRANCH  14  15
ATOM     15  C   UNL     1       6.859   6.194  17.281  0.00  0.00    +0.000 C 
BRANCH  15  16
ATOM     16  N   UNL     1       7.205   5.372  16.123  0.00  0.00    +0.000 NA
ATOM     17  H   UNL     1       8.036   5.746  15.666  0.00  0.00    +0.000 HD
BRANCH  16  18
ATOM     18  C   UNL     1       6.099   5.319  15.171  0.00  0.00    +0.000 C 
BRANCH  18  19
ATOM     19  C   UNL     1       6.162   4.012  14.381  0.00  0.00    +0.000 C 
BRANCH  19  20
ATOM     20  C   UNL     1       6.921   4.222  13.074  0.00  0.00    +0.000 C 
BRANCH  20  21
ATOM     21  N   UNL     1       7.782   5.394  13.165  0.00  0.00    +0.000 NA
ATOM     22  H   UNL     1       7.273   6.154  13.615  0.00  0.00    +0.000 HD
ATOM     23  H   UNL     1       8.012   5.723  12.226  0.00  0.00    +0.000 HD
ENDBRANCH  20  21
ENDBRANCH  19  20
ENDBRANCH  18  19
ENDBRANCH  16  18
ENDBRANCH  15  16
ENDBRANCH  14  15
ENDBRANCH  13  14
ENDBRANCH   1  13
TORSDOF 16
ENDMDL
MODEL 7
REMARK VINA RESULT:      -4.5      1.848      3.259
REMARK  Name = 
REMARK  16 active torsions:
REMARK  status: ('A' for Active; 'I' for Inactive)
REMARK    1  A    between atoms: N_1  and  C_2
REMARK    2  A    between atoms: C_2  and  C_3
REMARK    3  A    between atoms: C_3  and  C_4
REMARK    4  A    between atoms: C_4  and  N_5
REMARK    5  A    between atoms: N_5  and  C_6
REMARK    6  A    between atoms: C_6  and  C_7
REMARK    7  A    between atoms: C_7  and  C_8
REMARK    8  A    between atoms: C_8  and  C_9
REMARK    9  A    between atoms: C_9  and  C_10
REMARK   10  A    between atoms: C_10  and  C_11
REMARK   11  A    between atoms: C_11  and  C_12
REMARK   12  A    between atoms: C_12  and  N_13
REMARK   13  A    between atoms: N_13  and  C_14
REMARK   14  A    between atoms: C_14  and  C_15
REMARK   15  A    between atoms: C_15  and  C_16
REMARK   16  A    between atoms: C_16  and  N_17
REMARK                            x       y       z     vdW  Elec       q    Type
REMARK                         _______ _______ _______ _____ _____    ______ ____
ROOT
ATOM      1  C   UNL     1       4.308   4.878  19.674  0.00  0.00    +0.000 C 
ENDROOT
BRANCH   1   2
ATOM      2  C   UNL     1       3.449   5.979  19.038  0.00  0.00    +0.000 C 
BRANCH   2   3
ATOM      3  C   UNL     1       3.585   6.092  17.513  0.00  0.00    +0.000 C 
BRANCH   3   4
ATOM      4  C   UNL     1       4.850   6.824  17.059  0.00  0.00    +0.000 C 
BRANCH   4   5
ATOM      5  N   UNL     1       5.703   5.897  16.323  0.00  0.00    +0.000 NA
ATOM      6  H   UNL     1       5.546   6.006  15.321  0.00  0.00    +0.000 HD
BRANCH   5   7
ATOM      7  C   UNL     1       7.114   6.080  16.634  0.00  0.00    +0.000 C 
BRANCH   7   8
ATOM      8  C   UNL     1       7.256   6.426  18.116  0.00  0.00    +0.000 C 
BRANCH   8   9
ATOM      9  C   UNL     1       7.939   5.288  18.868  0.00  0.00    +0.000 C 
BRANCH   9  10
ATOM     10  N   UNL     1       7.953   5.557  20.301  0.00  0.00    +0.000 NA
ATOM     11  H   UNL     1       7.079   6.006  20.575  0.00  0.00    +0.000 HD
ATOM     12  H   UNL     1       8.695   6.222  20.513  0.00  0.00    +0.000 HD
ENDBRANCH   9  10
ENDBRANCH   8   9
ENDBRANCH   7   8
ENDBRANCH   5   7
ENDBRANCH   4   5
ENDBRANCH   3   4
ENDBRANCH   2   3
ENDBRANCH   1   2
BRANCH   1  13
ATOM     13  C   UNL     1       4.521   3.648  18.788  0.00  0.00    +0.000 C 
BRANCH  13  14
ATOM     14  C   UNL     1       4.328   2.343  19.561  0.00  0.00    +0.000 C 
BRANCH  14  15
ATOM     15  C   UNL     1       3.613   1.294  18.719  0.00  0.00    +0.000 C 
BRANCH  15  16
ATOM     16  N   UNL     1       2.541   1.950  17.973  0.00  0.00    +0.000 NA
ATOM     17  H   UNL     1       2.827   2.891  17.708  0.00  0.00    +0.000 HD
BRANCH  16  18
ATOM     18  C   UNL     1       1.315   2.010  18.764  0.00  0.00    +0.000 C 
BRANCH  18  19
ATOM     19  C   UNL     1       0.834   3.458  18.856  0.00  0.00    +0.000 C 
BRANCH  19  20
ATOM     20  C   UNL     1       0.824   3.919  20.310  0.00  0.00    +0.000 C 
BRANCH  20  21
ATOM     21  N   UNL     1       1.075   2.796  21.205  0.00  0.00    +0.000 NA
ATOM     22  H   UNL     1       1.050   1.927  20.672  0.00  0.00    +0.000 HD
ATOM     23  H   UNL     1       0.321   2.730  21.890  0.00  0.00    +0.000 HD
ENDBRANCH  20  21
ENDBRANCH  19  20
ENDBRANCH  18  19
ENDBRANCH  16  18
ENDBRANCH  15  16
ENDBRANCH  14  15
ENDBRANCH  13  14
ENDBRANCH   1  13
TORSDOF 16
ENDMDL
MODEL 8
REMARK VINA RESULT:      -4.5      2.507      6.274
REMARK  Name = 
REMARK  16 active torsions:
REMARK  status: ('A' for Active; 'I' for Inactive)
REMARK    1  A    between atoms: N_1  and  C_2
REMARK    2  A    between atoms: C_2  and  C_3
REMARK    3  A    between atoms: C_3  and  C_4
REMARK    4  A    between atoms: C_4  and  N_5
REMARK    5  A    between atoms: N_5  and  C_6
REMARK    6  A    between atoms: C_6  and  C_7
REMARK    7  A    between atoms: C_7  and  C_8
REMARK    8  A    between atoms: C_8  and  C_9
REMARK    9  A    between atoms: C_9  and  C_10
REMARK   10  A    between atoms: C_10  and  C_11
REMARK   11  A    between atoms: C_11  and  C_12
REMARK   12  A    between atoms: C_12  and  N_13
REMARK   13  A    between atoms: N_13  and  C_14
REMARK   14  A    between atoms: C_14  and  C_15
REMARK   15  A    between atoms: C_15  and  C_16
REMARK   16  A    between atoms: C_16  and  N_17
REMARK                            x       y       z     vdW  Elec       q    Type
REMARK                         _______ _______ _______ _____ _____    ______ ____
ROOT
ATOM      1  C   UNL     1       4.788   6.091  16.654  0.00  0.00    +0.000 C 
ENDROOT
BRANCH   1   2
ATOM      2  C   UNL     1       5.752   6.003  17.844  0.00  0.00    +0.000 C 
BRANCH   2   3
ATOM      3  C   UNL     1       5.363   4.965  18.905  0.00  0.00    +0.000 C 
BRANCH   3   4
ATOM      4  C   UNL     1       4.127   5.351  19.722  0.00  0.00    +0.000 C 
BRANCH   4   5
ATOM      5  N   UNL     1       3.104   4.324  19.560  0.00  0.00    +0.000 NA
ATOM      6  H   UNL     1       2.697   4.097  20.467  0.00  0.00    +0.000 HD
BRANCH   5   7
ATOM      7  C   UNL     1       2.061   4.727  18.627  0.00  0.00    +0.000 C 
BRANCH   7   8
ATOM      8  C   UNL     1       1.978   3.699  17.499  0.00  0.00    +0.000 C 
BRANCH   8   9
ATOM      9  C   UNL     1       2.755   2.438  17.864  0.00  0.00    +0.000 C 
BRANCH   9  10
ATOM     10  N   UNL     1       1.953   1.571  18.718  0.00  0.00    +0.000 NA
ATOM     11  H   UNL     1       2.326   0.622  18.691  0.00  0.00    +0.000 HD
ATOM     12  H   UNL     1       1.005   1.517  18.349  0.00  0.00    +0.000 HD
ENDBRANCH   9  10
ENDBRANCH   8   9
ENDBRANCH   7   8
ENDBRANCH   5   7
ENDBRANCH   4   5
ENDBRANCH   3   4
ENDBRANCH   2   3
ENDBRANCH   1   2
BRANCH   1  13
ATOM     13  C   UNL     1       5.236   5.309  15.415  0.00  0.00    +0.000 C 
BRANCH  13  14
ATOM     14  C   UNL     1       6.741   5.043  15.417  0.00  0.00    +0.000 C 
BRANCH  14  15
ATOM     15  C   UNL     1       7.224   4.546  14.061  0.00  0.00    +0.000 C 
BRANCH  15  16
ATOM     16  N   UNL     1       6.288   3.534  13.577  0.00  0.00    +0.000 NA
ATOM     17  H   UNL     1       6.494   2.634  14.010  0.00  0.00    +0.000 HD
BRANCH  16  18
ATOM     18  C   UNL     1       6.357   3.410  12.124  0.00  0.00    +0.000 C 
BRANCH  18  19
ATOM     19  C   UNL     1       5.617   2.149  11.679  0.00  0.00    +0.000 C 
BRANCH  19  20
ATOM     20  C   UNL     1       6.588   1.172  11.023  0.00  0.00    +0.000 C 
BRANCH  20  21
ATOM     21  N   UNL     1       6.180  -0.204  11.276  0.00  0.00    +0.000 NA
ATOM     22  H   UNL     1       7.005  -0.801  11.311  0.00  0.00    +0.000 HD
ATOM     23  H   UNL     1       5.616  -0.543  10.495  0.00  0.00    +0.000 HD
ENDBRANCH  20  21
ENDBRANCH  19  20
ENDBRANCH  18  19
ENDBRANCH  16  18
ENDBRANCH  15  16
ENDBRANCH  14  15
ENDBRANCH  13  14
ENDBRANCH   1  13
TORSDOF 16
ENDMDL
MODEL 9
REMARK VINA RESULT:      -4.5      1.892      2.708
REMARK  Name = 
REMARK  16 active torsions:
REMARK  status: ('A' for Active; 'I' for Inactive)
REMARK    1  A    between atoms: N_1  and  C_2
REMARK    2  A    between atoms: C_2  and  C_3
REMARK    3  A    between atoms: C_3  and  C_4
REMARK    4  A    between atoms: C_4  and  N_5
REMARK    5  A    between atoms: N_5  and  C_6
REMARK    6  A    between atoms: C_6  and  C_7
REMARK    7  A    between atoms: C_7  and  C_8
REMARK    8  A    between atoms: C_8  and  C_9
REMARK    9  A    between atoms: C_9  and  C_10
REMARK   10  A    between atoms: C_10  and  C_11
REMARK   11  A    between atoms: C_11  and  C_12
REMARK   12  A    between atoms: C_12  and  N_13
REMARK   13  A    between atoms: N_13  and  C_14
REMARK   14  A    between atoms: C_14  and  C_15
REMARK   15  A    between atoms: C_15  and  C_16
REMARK   16  A    between atoms: C_16  and  N_17
REMARK                            x       y       z     vdW  Elec       q    Type
REMARK                         _______ _______ _______ _____ _____    ______ ____
ROOT
ATOM      1  C   UNL     1       4.431   4.861  19.516  0.00  0.00    +0.000 C 
ENDROOT
BRANCH   1   2
ATOM      2  C   UNL     1       5.102   4.185  18.313  0.00  0.00    +0.000 C 
BRANCH   2   3
ATOM      3  C   UNL     1       6.364   4.895  17.804  0.00  0.00    +0.000 C 
BRANCH   3   4
ATOM      4  C   UNL     1       6.262   5.370  16.352  0.00  0.00    +0.000 C 
BRANCH   4   5
ATOM      5  N   UNL     1       7.415   4.878  15.604  0.00  0.00    +0.000 NA
ATOM      6  H   UNL     1       7.639   3.929  15.903  0.00  0.00    +0.000 HD
BRANCH   5   7
ATOM      7  C   UNL     1       7.193   4.914  14.165  0.00  0.00    +0.000 C 
BRANCH   7   8
ATOM      8  C   UNL     1       6.167   3.845  13.793  0.00  0.00    +0.000 C 
BRANCH   8   9
ATOM      9  C   UNL     1       6.194   3.576  12.291  0.00  0.00    +0.000 C 
BRANCH   9  10
ATOM     10  N   UNL     1       6.120   2.145  12.026  0.00  0.00    +0.000 NA
ATOM     11  H   UNL     1       6.275   1.970  11.034  0.00  0.00    +0.000 HD
ATOM     12  H   UNL     1       5.180   1.811  12.232  0.00  0.00    +0.000 HD
ENDBRANCH   9  10
ENDBRANCH   8   9
ENDBRANCH   7   8
ENDBRANCH   5   7
ENDBRANCH   4   5
ENDBRANCH   3   4
ENDBRANCH   2   3
ENDBRANCH   1   2
BRANCH   1  13
ATOM     13  C   UNL     1       3.498   6.020  19.154  0.00  0.00    +0.000 C 
BRANCH  13  14
ATOM     14  C   UNL     1       2.249   6.049  20.035  0.00  0.00    +0.000 C 
BRANCH  14  15
ATOM     15  C   UNL     1       2.207   4.860  20.986  0.00  0.00    +0.000 C 
BRANCH  15  16
ATOM     16  N   UNL     1       1.060   4.024  20.634  0.00  0.00    +0.000 NA
ATOM     17  H   UNL     1       0.370   4.047  21.383  0.00  0.00    +0.000 HD
BRANCH  16  18
ATOM     18  C   UNL     1       1.476   2.646  20.386  0.00  0.00    +0.000 C 
BRANCH  18  19
ATOM     19  C   UNL     1       0.962   2.192  19.019  0.00  0.00    +0.000 C 
BRANCH  19  20
ATOM     20  C   UNL     1       1.881   2.704  17.914  0.00  0.00    +0.000 C 
BRANCH  20  21
ATOM     21  N   UNL     1       1.327   3.907  17.304  0.00  0.00    +0.000 NA
ATOM     22  H   UNL     1       0.831   4.447  18.012  0.00  0.00    +0.000 HD
ATOM     23  H   UNL     1       0.630   3.645  16.606  0.00  0.00    +0.000 HD
ENDBRANCH  20  21
ENDBRANCH  19  20
ENDBRANCH  18  19
ENDBRANCH  16  18
ENDBRANCH  15  16
ENDBRANCH  14  15
ENDBRANCH  13  14
ENDBRANCH   1  13
TORSDOF 16
ENDMDL
