MODEL 1
REMARK VINA RESULT:      -7.2      0.000      0.000
REMARK  Name = 
REMARK  7 active torsions:
REMARK  status: ('A' for Active; 'I' for Inactive)
REMARK    1  A    between atoms: C_1  and  N_2
REMARK    2  A    between atoms: N_2  and  C_3
REMARK    3  A    between atoms: N_2  and  C_23
REMARK    4  A    between atoms: C_7  and  C_8
REMARK    5  A    between atoms: C_8  and  O_10
REMARK    6  A    between atoms: C_15  and  C_16
REMARK    7  A    between atoms: C_26  and  O_27
REMARK                            x       y       z     vdW  Elec       q    Type
REMARK                         _______ _______ _______ _____ _____    ______ ____
ROOT
ATOM      1  C   UNL     1      -0.754  10.804  18.767  0.00  0.00    +0.000 A 
ATOM      2  N   UNL     1      -0.934  10.349  17.499  0.00  0.00    +0.000 NA
ATOM      3  C   UNL     1      -2.123  10.576  16.901  0.00  0.00    +0.000 A 
ATOM      4  C   UNL     1      -2.338  10.144  15.595  0.00  0.00    +0.000 A 
ATOM      5  C   UNL     1      -3.565  10.352  14.946  0.00  0.00    +0.000 A 
ATOM      6  C   UNL     1      -4.591  11.019  15.617  0.00  0.00    +0.000 A 
ATOM      7  C   UNL     1      -4.379  11.454  16.928  0.00  0.00    +0.000 A 
ATOM      8  C   UNL     1      -3.164  11.243  17.574  0.00  0.00    +0.000 A 
ATOM      9  N   UNL     1      -3.007  11.710  18.819  0.00  0.00    +0.000 NA
ATOM     10  C   UNL     1      -1.789  11.522  19.408  0.00  0.00    +0.000 A 
ENDROOT
BRANCH  10  11
ATOM     11  C   UNL     1      -1.654  12.229  20.709  0.00  0.00    +0.000 A 
ATOM     12  C   UNL     1      -1.689  13.636  20.764  0.00  0.00    +0.000 A 
ATOM     13  C   UNL     1      -1.487  14.314  21.969  0.00  0.00    +0.000 A 
ATOM     14  C   UNL     1      -1.272  13.588  23.131  0.00  0.00    +0.000 A 
ATOM     15  F   UNL     1      -1.044  14.238  24.280  0.00  0.00    +0.000 F 
ATOM     16  C   UNL     1      -1.272  12.207  23.122  0.00  0.00    +0.000 A 
ATOM     17  C   UNL     1      -1.449  11.531  21.915  0.00  0.00    +0.000 A 
ENDBRANCH  10  11
BRANCH   1  19
ATOM     18  C   UNL     1       1.462  11.580  19.346  0.00  0.00    +0.000 C 
ATOM     19  N   UNL     1       0.466  10.517  19.412  0.00  0.00    +0.000 N 
BRANCH  19  20
ATOM     20  C   UNL     1       0.896   9.101  19.344  0.00  0.00    +0.000 C 
ATOM     21  C   UNL     1       2.026   8.854  18.328  0.00  0.00    +0.000 C 
ATOM     22  C   UNL     1       2.374   7.367  18.262  0.00  0.00    +0.000 C 
ATOM     23  C   UNL     1       2.745   6.821  19.640  0.00  0.00    +0.000 C 
ATOM     24  C   UNL     1       1.627   7.063  20.653  0.00  0.00    +0.000 C 
ATOM     25  C   UNL     1       1.259   8.543  20.731  0.00  0.00    +0.000 C 
BRANCH  23  26
ATOM     26  O   UNL     1       3.015   5.429  19.548  0.00  0.00    +0.000 OA
ATOM     27  H   UNL     1       2.875   5.030  20.423  0.00  0.00    +0.000 HD
ENDBRANCH  23  26
ENDBRANCH  19  20
ENDBRANCH   1  19
BRANCH   5  28
ATOM     28  C   UNL     1      -3.698   9.894  13.540  0.00  0.00    +0.000 C 
ATOM     29  O   UNL     1      -4.789   9.714  13.016  0.00  0.00    +0.000 OA
BRANCH  28  30
ATOM     30  O   UNL     1      -2.536   9.724  12.887  0.00  0.00    +0.000 OA
ATOM     31  H   UNL     1      -2.376   8.838  12.517  0.00  0.00    +0.000 HD
ENDBRANCH  28  30
ENDBRANCH   5  28
TORSDOF 6
ENDMDL
MODEL 2
REMARK VINA RESULT:      -7.2      0.314      1.107
REMARK  Name = 
REMARK  7 active torsions:
REMARK  status: ('A' for Active; 'I' for Inactive)
REMARK    1  A    between atoms: C_1  and  N_2
REMARK    2  A    between atoms: N_2  and  C_3
REMARK    3  A    between atoms: N_2  and  C_23
REMARK    4  A    between atoms: C_7  and  C_8
REMARK    5  A    between atoms: C_8  and  O_10
REMARK    6  A    between atoms: C_15  and  C_16
REMARK    7  A    between atoms: C_26  and  O_27
REMARK                            x       y       z     vdW  Elec       q    Type
REMARK                         _______ _______ _______ _____ _____    ______ ____
ROOT
ATOM      1  C   UNL     1      -0.709  10.793  19.059  0.00  0.00    +0.000 A 
ATOM      2  N   UNL     1      -0.917  10.307  17.807  0.00  0.00    +0.000 NA
ATOM      3  C   UNL     1      -2.080  10.604  17.190  0.00  0.00    +0.000 A 
ATOM      4  C   UNL     1      -2.320  10.142  15.899  0.00  0.00    +0.000 A 
ATOM      5  C   UNL     1      -3.522  10.421  15.232  0.00  0.00    +0.000 A 
ATOM      6  C   UNL     1      -4.497  11.191  15.868  0.00  0.00    +0.000 A 
ATOM      7  C   UNL     1      -4.260  11.657  17.164  0.00  0.00    +0.000 A 
ATOM      8  C   UNL     1      -3.070  11.375  17.829  0.00  0.00    +0.000 A 
ATOM      9  N   UNL     1      -2.884  11.875  19.057  0.00  0.00    +0.000 NA
ATOM     10  C   UNL     1      -1.689  11.614  19.664  0.00  0.00    +0.000 A 
ENDROOT
BRANCH  10  11
ATOM     11  C   UNL     1      -1.506  12.356  20.939  0.00  0.00    +0.000 A 
ATOM     12  C   UNL     1      -1.614  11.688  22.175  0.00  0.00    +0.000 A 
ATOM     13  C   UNL     1      -1.519  12.388  23.380  0.00  0.00    +0.000 A 
ATOM     14  C   UNL     1      -1.293  13.756  23.358  0.00  0.00    +0.000 A 
ATOM     15  F   UNL     1      -1.237  14.433  24.514  0.00  0.00    +0.000 F 
ATOM     16  C   UNL     1      -1.141  14.437  22.167  0.00  0.00    +0.000 A 
ATOM     17  C   UNL     1      -1.261  13.743  20.963  0.00  0.00    +0.000 A 
ENDBRANCH  10  11
BRANCH   1  19
ATOM     18  C   UNL     1       1.477  11.496  19.817  0.00  0.00    +0.000 C 
ATOM     19  N   UNL     1       0.480  10.436  19.725  0.00  0.00    +0.000 N 
BRANCH  19  20
ATOM     20  C   UNL     1       0.915   9.033  19.529  0.00  0.00    +0.000 C 
ATOM     21  C   UNL     1       2.017   8.878  18.465  0.00  0.00    +0.000 C 
ATOM     22  C   UNL     1       2.369   7.404  18.266  0.00  0.00    +0.000 C 
ATOM     23  C   UNL     1       2.781   6.749  19.583  0.00  0.00    +0.000 C 
ATOM     24  C   UNL     1       1.692   6.899  20.644  0.00  0.00    +0.000 C 
ATOM     25  C   UNL     1       1.319   8.365  20.854  0.00  0.00    +0.000 C 
BRANCH  23  26
ATOM     26  O   UNL     1       3.055   5.371  19.369  0.00  0.00    +0.000 OA
ATOM     27  H   UNL     1       3.585   5.044  20.114  0.00  0.00    +0.000 HD
ENDBRANCH  23  26
ENDBRANCH  19  20
ENDBRANCH   1  19
BRANCH   5  28
ATOM     28  C   UNL     1      -3.682   9.923  13.842  0.00  0.00    +0.000 C 
ATOM     29  O   UNL     1      -2.723   9.714  13.112  0.00  0.00    +0.000 OA
BRANCH  28  30
ATOM     30  O   UNL     1      -4.951   9.692  13.466  0.00  0.00    +0.000 OA
ATOM     31  H   UNL     1      -5.560  10.450  13.519  0.00  0.00    +0.000 HD
ENDBRANCH  28  30
ENDBRANCH   5  28
TORSDOF 6
ENDMDL
MODEL 3
REMARK VINA RESULT:      -6.9      1.370      2.177
REMARK  Name = 
REMARK  7 active torsions:
REMARK  status: ('A' for Active; 'I' for Inactive)
REMARK    1  A    between atoms: C_1  and  N_2
REMARK    2  A    between atoms: N_2  and  C_3
REMARK    3  A    between atoms: N_2  and  C_23
REMARK    4  A    between atoms: C_7  and  C_8
REMARK    5  A    between atoms: C_8  and  O_10
REMARK    6  A    between atoms: C_15  and  C_16
REMARK    7  A    between atoms: C_26  and  O_27
REMARK                            x       y       z     vdW  Elec       q    Type
REMARK                         _______ _______ _______ _____ _____    ______ ____
ROOT
ATOM      1  C   UNL     1      -1.088  12.074  19.530  0.00  0.00    +0.000 A 
ATOM      2  N   UNL     1      -1.103  11.553  18.274  0.00  0.00    +0.000 NA
ATOM      3  C   UNL     1      -2.298  11.362  17.675  0.00  0.00    +0.000 A 
ATOM      4  C   UNL     1      -2.352  10.851  16.382  0.00  0.00    +0.000 A 
ATOM      5  C   UNL     1      -3.577  10.628  15.732  0.00  0.00    +0.000 A 
ATOM      6  C   UNL     1      -4.768  10.937  16.390  0.00  0.00    +0.000 A 
ATOM      7  C   UNL     1      -4.717  11.450  17.689  0.00  0.00    +0.000 A 
ATOM      8  C   UNL     1      -3.504  11.666  18.335  0.00  0.00    +0.000 A 
ATOM      9  N   UNL     1      -3.514  12.190  19.568  0.00  0.00    +0.000 NA
ATOM     10  C   UNL     1      -2.306  12.428  20.156  0.00  0.00    +0.000 A 
ENDROOT
BRANCH  10  11
ATOM     11  C   UNL     1      -2.416  13.172  21.439  0.00  0.00    +0.000 A 
ATOM     12  C   UNL     1      -2.671  12.486  22.642  0.00  0.00    +0.000 A 
ATOM     13  C   UNL     1      -2.852  13.182  23.841  0.00  0.00    +0.000 A 
ATOM     14  C   UNL     1      -2.754  14.565  23.848  0.00  0.00    +0.000 A 
ATOM     15  F   UNL     1      -2.962  15.233  24.991  0.00  0.00    +0.000 F 
ATOM     16  C   UNL     1      -2.464  15.267  22.695  0.00  0.00    +0.000 A 
ATOM     17  C   UNL     1      -2.309  14.575  21.494  0.00  0.00    +0.000 A 
ENDBRANCH  10  11
BRANCH   1  19
ATOM     18  C   UNL     1       0.939  13.372  19.749  0.00  0.00    +0.000 C 
ATOM     19  N   UNL     1       0.155  12.220  20.177  0.00  0.00    +0.000 N 
BRANCH  19  20
ATOM     20  C   UNL     1       0.839  10.952  20.521  0.00  0.00    +0.000 C 
ATOM     21  C   UNL     1       0.253  10.262  21.767  0.00  0.00    +0.000 C 
ATOM     22  C   UNL     1       1.045   8.998  22.104  0.00  0.00    +0.000 C 
ATOM     23  C   UNL     1       1.092   8.039  20.916  0.00  0.00    +0.000 C 
ATOM     24  C   UNL     1       1.671   8.717  19.675  0.00  0.00    +0.000 C 
ATOM     25  C   UNL     1       0.899   9.987  19.324  0.00  0.00    +0.000 C 
BRANCH  23  26
ATOM     26  O   UNL     1       1.874   6.900  21.249  0.00  0.00    +0.000 OA
ATOM     27  H   UNL     1       1.513   6.131  20.778  0.00  0.00    +0.000 HD
ENDBRANCH  23  26
ENDBRANCH  19  20
ENDBRANCH   1  19
BRANCH   5  28
ATOM     28  C   UNL     1      -3.545  10.116  14.339  0.00  0.00    +0.000 C 
ATOM     29  O   UNL     1      -2.496   9.946  13.733  0.00  0.00    +0.000 OA
BRANCH  28  30
ATOM     30  O   UNL     1      -4.748   9.829  13.814  0.00  0.00    +0.000 OA
ATOM     31  H   UNL     1      -5.058   8.913  13.923  0.00  0.00    +0.000 HD
ENDBRANCH  28  30
ENDBRANCH   5  28
TORSDOF 6
ENDMDL
MODEL 4
REMARK VINA RESULT:      -6.9      3.877      6.394
REMARK  Name = 
REMARK  7 active torsions:
REMARK  status: ('A' for Active; 'I' for Inactive)
REMARK    1  A    between atoms: C_1  and  N_2
REMARK    2  A    between atoms: N_2  and  C_3
REMARK    3  A    between atoms: N_2  and  C_23
REMARK    4  A    between atoms: C_7  and  C_8
REMARK    5  A    between atoms: C_8  and  O_10
REMARK    6  A    between atoms: C_15  and  C_16
REMARK    7  A    between atoms: C_26  and  O_27
REMARK                            x       y       z     vdW  Elec       q    Type
REMARK                         _______ _______ _______ _____ _____    ______ ____
ROOT
ATOM      1  C   UNL     1      -0.851  12.681  19.694  0.00  0.00    +0.000 A 
ATOM      2  N   UNL     1       0.283  13.015  19.024  0.00  0.00    +0.000 NA
ATOM      3  C   UNL     1       0.823  14.232  19.247  0.00  0.00    +0.000 A 
ATOM      4  C   UNL     1       1.996  14.602  18.595  0.00  0.00    +0.000 A 
ATOM      5  C   UNL     1       2.578  15.863  18.793  0.00  0.00    +0.000 A 
ATOM      6  C   UNL     1       1.978  16.765  19.673  0.00  0.00    +0.000 A 
ATOM      7  C   UNL     1       0.800  16.398  20.329  0.00  0.00    +0.000 A 
ATOM      8  C   UNL     1       0.219  15.149  20.129  0.00  0.00    +0.000 A 
ATOM      9  N   UNL     1      -0.893  14.839  20.808  0.00  0.00    +0.000 NA
ATOM     10  C   UNL     1      -1.413  13.591  20.619  0.00  0.00    +0.000 A 
ENDROOT
BRANCH  10  11
ATOM     11  C   UNL     1      -2.533  13.278  21.546  0.00  0.00    +0.000 A 
ATOM     12  C   UNL     1      -3.855  13.633  21.213  0.00  0.00    +0.000 A 
ATOM     13  C   UNL     1      -4.905  13.412  22.108  0.00  0.00    +0.000 A 
ATOM     14  C   UNL     1      -4.644  12.813  23.331  0.00  0.00    +0.000 A 
ATOM     15  F   UNL     1      -5.645  12.633  24.203  0.00  0.00    +0.000 F 
ATOM     16  C   UNL     1      -3.367  12.414  23.674  0.00  0.00    +0.000 A 
ATOM     17  C   UNL     1      -2.314  12.658  22.791  0.00  0.00    +0.000 A 
ENDBRANCH  10  11
BRANCH   1  19
ATOM     18  C   UNL     1      -0.764  10.284  20.003  0.00  0.00    +0.000 C 
ATOM     19  N   UNL     1      -1.446  11.433  19.419  0.00  0.00    +0.000 N 
BRANCH  19  20
ATOM     20  C   UNL     1      -2.072  11.315  18.082  0.00  0.00    +0.000 C 
ATOM     21  C   UNL     1      -1.714  10.006  17.354  0.00  0.00    +0.000 C 
ATOM     22  C   UNL     1      -2.338   9.980  15.958  0.00  0.00    +0.000 C 
ATOM     23  C   UNL     1      -3.851  10.177  16.022  0.00  0.00    +0.000 C 
ATOM     24  C   UNL     1      -4.214  11.474  16.744  0.00  0.00    +0.000 C 
ATOM     25  C   UNL     1      -3.595  11.525  18.139  0.00  0.00    +0.000 C 
BRANCH  23  26
ATOM     26  O   UNL     1      -4.389  10.195  14.707  0.00  0.00    +0.000 OA
ATOM     27  H   UNL     1      -3.882   9.572  14.159  0.00  0.00    +0.000 HD
ENDBRANCH  23  26
ENDBRANCH  19  20
ENDBRANCH   1  19
BRANCH   5  28
ATOM     28  C   UNL     1       3.850  16.164  18.089  0.00  0.00    +0.000 C 
ATOM     29  O   UNL     1       4.543  17.129  18.382  0.00  0.00    +0.000 OA
BRANCH  28  30
ATOM     30  O   UNL     1       4.192  15.282  17.136  0.00  0.00    +0.000 OA
ATOM     31  H   UNL     1       4.040  14.343  17.344  0.00  0.00    +0.000 HD
ENDBRANCH  28  30
ENDBRANCH   5  28
TORSDOF 6
ENDMDL
MODEL 5
REMARK VINA RESULT:      -6.9      2.586      6.694
REMARK  Name = 
REMARK  7 active torsions:
REMARK  status: ('A' for Active; 'I' for Inactive)
REMARK    1  A    between atoms: C_1  and  N_2
REMARK    2  A    between atoms: N_2  and  C_3
REMARK    3  A    between atoms: N_2  and  C_23
REMARK    4  A    between atoms: C_7  and  C_8
REMARK    5  A    between atoms: C_8  and  O_10
REMARK    6  A    between atoms: C_15  and  C_16
REMARK    7  A    between atoms: C_26  and  O_27
REMARK                            x       y       z     vdW  Elec       q    Type
REMARK                         _______ _______ _______ _____ _____    ______ ____
ROOT
ATOM      1  C   UNL     1       1.577   8.922  18.637  0.00  0.00    +0.000 A 
ATOM      2  N   UNL     1       2.185   8.070  17.770  0.00  0.00    +0.000 NA
ATOM      3  C   UNL     1       2.707   6.925  18.259  0.00  0.00    +0.000 A 
ATOM      4  C   UNL     1       3.318   6.017  17.398  0.00  0.00    +0.000 A 
ATOM      5  C   UNL     1       3.883   4.823  17.873  0.00  0.00    +0.000 A 
ATOM      6  C   UNL     1       3.820   4.528  19.235  0.00  0.00    +0.000 A 
ATOM      7  C   UNL     1       3.207   5.437  20.102  0.00  0.00    +0.000 A 
ATOM      8  C   UNL     1       2.653   6.624  19.633  0.00  0.00    +0.000 A 
ATOM      9  N   UNL     1       2.050   7.443  20.505  0.00  0.00    +0.000 NA
ATOM     10  C   UNL     1       1.480   8.578  20.005  0.00  0.00    +0.000 A 
ENDROOT
BRANCH  10  11
ATOM     11  C   UNL     1       0.684   9.327  21.015  0.00  0.00    +0.000 A 
ATOM     12  C   UNL     1      -0.283   8.663  21.795  0.00  0.00    +0.000 A 
ATOM     13  C   UNL     1      -1.089   9.369  22.692  0.00  0.00    +0.000 A 
ATOM     14  C   UNL     1      -0.917  10.738  22.832  0.00  0.00    +0.000 A 
ATOM     15  F   UNL     1      -1.713  11.419  23.667  0.00  0.00    +0.000 F 
ATOM     16  C   UNL     1       0.049  11.414  22.114  0.00  0.00    +0.000 A 
ATOM     17  C   UNL     1       0.837  10.714  21.200  0.00  0.00    +0.000 A 
ENDBRANCH  10  11
BRANCH   1  19
ATOM     18  C   UNL     1       2.017  11.260  18.204  0.00  0.00    +0.000 C 
ATOM     19  N   UNL     1       1.082  10.143  18.136  0.00  0.00    +0.000 N 
BRANCH  19  20
ATOM     20  C   UNL     1      -0.363  10.377  18.363  0.00  0.00    +0.000 C 
ATOM     21  C   UNL     1      -0.729  11.869  18.471  0.00  0.00    +0.000 C 
ATOM     22  C   UNL     1      -2.219  12.036  18.771  0.00  0.00    +0.000 C 
ATOM     23  C   UNL     1      -3.079  11.333  17.722  0.00  0.00    +0.000 C 
ATOM     24  C   UNL     1      -2.720   9.852  17.609  0.00  0.00    +0.000 C 
ATOM     25  C   UNL     1      -1.234   9.661  17.316  0.00  0.00    +0.000 C 
BRANCH  23  26
ATOM     26  O   UNL     1      -4.453  11.469  18.058  0.00  0.00    +0.000 OA
ATOM     27  H   UNL     1      -4.727  12.381  17.868  0.00  0.00    +0.000 HD
ENDBRANCH  23  26
ENDBRANCH  19  20
ENDBRANCH   1  19
BRANCH   5  28
ATOM     28  C   UNL     1       4.481   3.892  16.883  0.00  0.00    +0.000 C 
ATOM     29  O   UNL     1       4.890   4.274  15.796  0.00  0.00    +0.000 OA
BRANCH  28  30
ATOM     30  O   UNL     1       4.565   2.613  17.287  0.00  0.00    +0.000 OA
ATOM     31  H   UNL     1       3.837   2.027  17.014  0.00  0.00    +0.000 HD
ENDBRANCH  28  30
ENDBRANCH   5  28
TORSDOF 6
ENDMDL
MODEL 6
REMARK VINA RESULT:      -6.8      3.804      6.144
REMARK  Name = 
REMARK  7 active torsions:
REMARK  status: ('A' for Active; 'I' for Inactive)
REMARK    1  A    between atoms: C_1  and  N_2
REMARK    2  A    between atoms: N_2  and  C_3
REMARK    3  A    between atoms: N_2  and  C_23
REMARK    4  A    between atoms: C_7  and  C_8
REMARK    5  A    between atoms: C_8  and  O_10
REMARK    6  A    between atoms: C_15  and  C_16
REMARK    7  A    between atoms: C_26  and  O_27
REMARK                            x       y       z     vdW  Elec       q    Type
REMARK                         _______ _______ _______ _____ _____    ______ ____
ROOT
ATOM      1  C   UNL     1      -0.899  12.434  20.005  0.00  0.00    +0.000 A 
ATOM      2  N   UNL     1       0.207  12.789  19.300  0.00  0.00    +0.000 NA
ATOM      3  C   UNL     1       0.576  14.088  19.300  0.00  0.00    +0.000 A 
ATOM      4  C   UNL     1       1.715  14.486  18.606  0.00  0.00    +0.000 A 
ATOM      5  C   UNL     1       2.123  15.829  18.574  0.00  0.00    +0.000 A 
ATOM      6  C   UNL     1       1.379  16.787  19.264  0.00  0.00    +0.000 A 
ATOM      7  C   UNL     1       0.235  16.391  19.961  0.00  0.00    +0.000 A 
ATOM      8  C   UNL     1      -0.173  15.061  19.988  0.00  0.00    +0.000 A 
ATOM      9  N   UNL     1      -1.260  14.734  20.699  0.00  0.00    +0.000 NA
ATOM     10  C   UNL     1      -1.608  13.415  20.738  0.00  0.00    +0.000 A 
ENDROOT
BRANCH  10  11
ATOM     11  C   UNL     1      -2.712  13.129  21.692  0.00  0.00    +0.000 A 
ATOM     12  C   UNL     1      -4.049  13.397  21.338  0.00  0.00    +0.000 A 
ATOM     13  C   UNL     1      -5.087  13.204  22.252  0.00  0.00    +0.000 A 
ATOM     14  C   UNL     1      -4.799  12.719  23.519  0.00  0.00    +0.000 A 
ATOM     15  F   UNL     1      -5.790  12.567  24.407  0.00  0.00    +0.000 F 
ATOM     16  C   UNL     1      -3.505  12.406  23.888  0.00  0.00    +0.000 A 
ATOM     17  C   UNL     1      -2.465  12.623  22.983  0.00  0.00    +0.000 A 
ENDBRANCH  10  11
BRANCH   1  19
ATOM     18  C   UNL     1      -0.379  10.133  20.534  0.00  0.00    +0.000 C 
ATOM     19  N   UNL     1      -1.317  11.089  19.959  0.00  0.00    +0.000 N 
BRANCH  19  20
ATOM     20  C   UNL     1      -2.108  10.716  18.763  0.00  0.00    +0.000 C 
ATOM     21  C   UNL     1      -2.992  11.861  18.235  0.00  0.00    +0.000 C 
ATOM     22  C   UNL     1      -3.827  11.389  17.044  0.00  0.00    +0.000 C 
ATOM     23  C   UNL     1      -2.943  10.822  15.936  0.00  0.00    +0.000 C 
ATOM     24  C   UNL     1      -2.062   9.685  16.453  0.00  0.00    +0.000 C 
ATOM     25  C   UNL     1      -1.223  10.132  17.648  0.00  0.00    +0.000 C 
BRANCH  23  26
ATOM     26  O   UNL     1      -3.755  10.351  14.868  0.00  0.00    +0.000 OA
ATOM     27  H   UNL     1      -4.669  10.275  15.188  0.00  0.00    +0.000 HD
ENDBRANCH  23  26
ENDBRANCH  19  20
ENDBRANCH   1  19
BRANCH   5  28
ATOM     28  C   UNL     1       3.371  16.163  17.843  0.00  0.00    +0.000 C 
ATOM     29  O   UNL     1       4.039  17.150  18.117  0.00  0.00    +0.000 OA
BRANCH  28  30
ATOM     30  O   UNL     1       3.721  15.285  16.888  0.00  0.00    +0.000 OA
ATOM     31  H   UNL     1       4.605  15.403  16.499  0.00  0.00    +0.000 HD
ENDBRANCH  28  30
ENDBRANCH   5  28
TORSDOF 6
ENDMDL
MODEL 7
REMARK VINA RESULT:      -6.8      3.453      6.096
REMARK  Name = 
REMARK  7 active torsions:
REMARK  status: ('A' for Active; 'I' for Inactive)
REMARK    1  A    between atoms: C_1  and  N_2
REMARK    2  A    between atoms: N_2  and  C_3
REMARK    3  A    between atoms: N_2  and  C_23
REMARK    4  A    between atoms: C_7  and  C_8
REMARK    5  A    between atoms: C_8  and  O_10
REMARK    6  A    between atoms: C_15  and  C_16
REMARK    7  A    between atoms: C_26  and  O_27
REMARK                            x       y       z     vdW  Elec       q    Type
REMARK                         _______ _______ _______ _____ _____    ______ ____
ROOT
ATOM      1  C   UNL     1       0.423  11.697  19.671  0.00  0.00    +0.000 A 
ATOM      2  N   UNL     1       1.011  10.797  18.839  0.00  0.00    +0.000 NA
ATOM      3  C   UNL     1       1.328   9.581  19.333  0.00  0.00    +0.000 A 
ATOM      4  C   UNL     1       1.911   8.626  18.506  0.00  0.00    +0.000 A 
ATOM      5  C   UNL     1       2.265   7.356  18.988  0.00  0.00    +0.000 A 
ATOM      6  C   UNL     1       2.016   7.036  20.323  0.00  0.00    +0.000 A 
ATOM      7  C   UNL     1       1.431   7.993  21.157  0.00  0.00    +0.000 A 
ATOM      8  C   UNL     1       1.085   9.254  20.681  0.00  0.00    +0.000 A 
ATOM      9  N   UNL     1       0.498  10.120  21.517  0.00  0.00    +0.000 NA
ATOM     10  C   UNL     1       0.134  11.333  21.006  0.00  0.00    +0.000 A 
ENDROOT
BRANCH  10  11
ATOM     11  C   UNL     1      -0.668  12.150  21.956  0.00  0.00    +0.000 A 
ATOM     12  C   UNL     1      -1.875  11.652  22.483  0.00  0.00    +0.000 A 
ATOM     13  C   UNL     1      -2.674  12.440  23.316  0.00  0.00    +0.000 A 
ATOM     14  C   UNL     1      -2.259  13.721  23.646  0.00  0.00    +0.000 A 
ATOM     15  F   UNL     1      -3.043  14.488  24.416  0.00  0.00    +0.000 F 
ATOM     16  C   UNL     1      -1.062  14.227  23.181  0.00  0.00    +0.000 A 
ATOM     17  C   UNL     1      -0.276  13.450  22.329  0.00  0.00    +0.000 A 
ENDBRANCH  10  11
BRANCH   1  19
ATOM     18  C   UNL     1      -0.803  13.023  18.064  0.00  0.00    +0.000 C 
ATOM     19  N   UNL     1       0.145  12.985  19.171  0.00  0.00    +0.000 N 
BRANCH  19  20
ATOM     20  C   UNL     1       1.284  13.931  19.198  0.00  0.00    +0.000 C 
ATOM     21  C   UNL     1       2.297  13.698  18.062  0.00  0.00    +0.000 C 
ATOM     22  C   UNL     1       3.477  14.662  18.188  0.00  0.00    +0.000 C 
ATOM     23  C   UNL     1       3.007  16.115  18.214  0.00  0.00    +0.000 C 
ATOM     24  C   UNL     1       2.000  16.354  19.338  0.00  0.00    +0.000 C 
ATOM     25  C   UNL     1       0.816  15.396  19.236  0.00  0.00    +0.000 C 
BRANCH  23  26
ATOM     26  O   UNL     1       4.124  16.978  18.379  0.00  0.00    +0.000 OA
ATOM     27  H   UNL     1       4.863  16.628  17.855  0.00  0.00    +0.000 HD
ENDBRANCH  23  26
ENDBRANCH  19  20
ENDBRANCH   1  19
BRANCH   5  28
ATOM     28  C   UNL     1       2.846   6.382  18.030  0.00  0.00    +0.000 C 
ATOM     29  O   UNL     1       3.902   6.594  17.448  0.00  0.00    +0.000 OA
BRANCH  28  30
ATOM     30  O   UNL     1       2.143   5.248  17.878  0.00  0.00    +0.000 OA
ATOM     31  H   UNL     1       2.603   4.422  18.113  0.00  0.00    +0.000 HD
ENDBRANCH  28  30
ENDBRANCH   5  28
TORSDOF 6
ENDMDL
MODEL 8
REMARK VINA RESULT:      -6.8      3.466      6.043
REMARK  Name = 
REMARK  7 active torsions:
REMARK  status: ('A' for Active; 'I' for Inactive)
REMARK    1  A    between atoms: C_1  and  N_2
REMARK    2  A    between atoms: N_2  and  C_3
REMARK    3  A    between atoms: N_2  and  C_23
REMARK    4  A    between atoms: C_7  and  C_8
REMARK    5  A    between atoms: C_8  and  O_10
REMARK    6  A    between atoms: C_15  and  C_16
REMARK    7  A    between atoms: C_26  and  O_27
REMARK                            x       y       z     vdW  Elec       q    Type
REMARK                         _______ _______ _______ _____ _____    ______ ____
ROOT
ATOM      1  C   UNL     1       0.405  11.745  19.657  0.00  0.00    +0.000 A 
ATOM      2  N   UNL     1       1.009  10.833  18.850  0.00  0.00    +0.000 NA
ATOM      3  C   UNL     1       1.303   9.619  19.364  0.00  0.00    +0.000 A 
ATOM      4  C   UNL     1       1.902   8.653  18.562  0.00  0.00    +0.000 A 
ATOM      5  C   UNL     1       2.233   7.385  19.065  0.00  0.00    +0.000 A 
ATOM      6  C   UNL     1       1.943   7.078  20.395  0.00  0.00    +0.000 A 
ATOM      7  C   UNL     1       1.342   8.047  21.203  0.00  0.00    +0.000 A 
ATOM      8  C   UNL     1       1.019   9.306  20.707  0.00  0.00    +0.000 A 
ATOM      9  N   UNL     1       0.415  10.184  21.518  0.00  0.00    +0.000 NA
ATOM     10  C   UNL     1       0.075  11.394  20.987  0.00  0.00    +0.000 A 
ENDROOT
BRANCH  10  11
ATOM     11  C   UNL     1      -0.747  12.226  21.905  0.00  0.00    +0.000 A 
ATOM     12  C   UNL     1      -0.285  13.485  22.334  0.00  0.00    +0.000 A 
ATOM     13  C   UNL     1      -1.013  14.242  23.255  0.00  0.00    +0.000 A 
ATOM     14  C   UNL     1      -2.219  13.756  23.736  0.00  0.00    +0.000 A 
ATOM     15  F   UNL     1      -2.900  14.466  24.646  0.00  0.00    +0.000 F 
ATOM     16  C   UNL     1      -2.723  12.544  23.307  0.00  0.00    +0.000 A 
ATOM     17  C   UNL     1      -1.984  11.776  22.406  0.00  0.00    +0.000 A 
ENDBRANCH  10  11
BRANCH   1  19
ATOM     18  C   UNL     1      -0.772  13.066  18.009  0.00  0.00    +0.000 C 
ATOM     19  N   UNL     1       0.150  13.030  19.138  0.00  0.00    +0.000 N 
BRANCH  19  20
ATOM     20  C   UNL     1       1.298  13.966  19.181  0.00  0.00    +0.000 C 
ATOM     21  C   UNL     1       2.313  13.738  18.046  0.00  0.00    +0.000 C 
ATOM     22  C   UNL     1       3.500  14.690  18.188  0.00  0.00    +0.000 C 
ATOM     23  C   UNL     1       3.042  16.147  18.232  0.00  0.00    +0.000 C 
ATOM     24  C   UNL     1       2.034  16.380  19.356  0.00  0.00    +0.000 C 
ATOM     25  C   UNL     1       0.842  15.434  19.238  0.00  0.00    +0.000 C 
BRANCH  23  26
ATOM     26  O   UNL     1       4.166  16.998  18.413  0.00  0.00    +0.000 OA
ATOM     27  H   UNL     1       4.884  16.686  17.837  0.00  0.00    +0.000 HD
ENDBRANCH  23  26
ENDBRANCH  19  20
ENDBRANCH   1  19
BRANCH   5  28
ATOM     28  C   UNL     1       2.834   6.398  18.132  0.00  0.00    +0.000 C 
ATOM     29  O   UNL     1       2.298   5.326  17.887  0.00  0.00    +0.000 OA
BRANCH  28  30
ATOM     30  O   UNL     1       3.987   6.787  17.562  0.00  0.00    +0.000 OA
ATOM     31  H   UNL     1       4.492   7.471  18.036  0.00  0.00    +0.000 HD
ENDBRANCH  28  30
ENDBRANCH   5  28
TORSDOF 6
ENDMDL
MODEL 9
REMARK VINA RESULT:      -6.7      4.228      6.407
REMARK  Name = 
REMARK  7 active torsions:
REMARK  status: ('A' for Active; 'I' for Inactive)
REMARK    1  A    between atoms: C_1  and  N_2
REMARK    2  A    between atoms: N_2  and  C_3
REMARK    3  A    between atoms: N_2  and  C_23
REMARK    4  A    between atoms: C_7  and  C_8
REMARK    5  A    between atoms: C_8  and  O_10
REMARK    6  A    between atoms: C_15  and  C_16
REMARK    7  A    between atoms: C_26  and  O_27
REMARK                            x       y       z     vdW  Elec       q    Type
REMARK                         _______ _______ _______ _____ _____    ______ ____
ROOT
ATOM      1  C   UNL     1       0.384  11.960  19.900  0.00  0.00    +0.000 A 
ATOM      2  N   UNL     1       1.510  12.596  20.319  0.00  0.00    +0.000 NA
ATOM      3  C   UNL     1       1.718  13.865  19.907  0.00  0.00    +0.000 A 
ATOM      4  C   UNL     1       2.849  14.556  20.332  0.00  0.00    +0.000 A 
ATOM      5  C   UNL     1       3.104  15.872  19.915  0.00  0.00    +0.000 A 
ATOM      6  C   UNL     1       2.199  16.510  19.066  0.00  0.00    +0.000 A 
ATOM      7  C   UNL     1       1.063  15.819  18.637  0.00  0.00    +0.000 A 
ATOM      8  C   UNL     1       0.812  14.513  19.046  0.00  0.00    +0.000 A 
ATOM      9  N   UNL     1      -0.309  13.910  18.629  0.00  0.00    +0.000 NA
ATOM     10  C   UNL     1      -0.544  12.644  19.082  0.00  0.00    +0.000 A 
ENDROOT
BRANCH  10  11
ATOM     11  C   UNL     1      -1.891  12.132  18.713  0.00  0.00    +0.000 A 
ATOM     12  C   UNL     1      -2.076  11.403  17.522  0.00  0.00    +0.000 A 
ATOM     13  C   UNL     1      -3.349  10.982  17.128  0.00  0.00    +0.000 A 
ATOM     14  C   UNL     1      -4.441  11.266  17.934  0.00  0.00    +0.000 A 
ATOM     15  F   UNL     1      -5.665  10.892  17.539  0.00  0.00    +0.000 F 
ATOM     16  C   UNL     1      -4.291  11.942  19.129  0.00  0.00    +0.000 A 
ATOM     17  C   UNL     1      -3.024  12.385  19.510  0.00  0.00    +0.000 A 
ENDBRANCH  10  11
BRANCH   1  19
ATOM     18  C   UNL     1      -0.368  10.430  21.615  0.00  0.00    +0.000 C 
ATOM     19  N   UNL     1       0.195  10.617  20.283  0.00  0.00    +0.000 N 
BRANCH  19  20
ATOM     20  C   UNL     1       1.213   9.668  19.774  0.00  0.00    +0.000 C 
ATOM     21  C   UNL     1       1.157   8.290  20.457  0.00  0.00    +0.000 C 
ATOM     22  C   UNL     1       2.273   7.385  19.934  0.00  0.00    +0.000 C 
ATOM     23  C   UNL     1       2.209   7.248  18.414  0.00  0.00    +0.000 C 
ATOM     24  C   UNL     1       2.264   8.613  17.729  0.00  0.00    +0.000 C 
ATOM     25  C   UNL     1       1.161   9.536  18.242  0.00  0.00    +0.000 C 
BRANCH  23  26
ATOM     26  O   UNL     1       3.287   6.441  17.960  0.00  0.00    +0.000 OA
ATOM     27  H   UNL     1       2.921   5.631  17.568  0.00  0.00    +0.000 HD
ENDBRANCH  23  26
ENDBRANCH  19  20
ENDBRANCH   1  19
BRANCH   5  28
ATOM     28  C   UNL     1       4.313  16.551  20.446  0.00  0.00    +0.000 C 
ATOM     29  O   UNL     1       4.990  16.066  21.342  0.00  0.00    +0.000 OA
BRANCH  28  30
ATOM     30  O   UNL     1       4.619  17.714  19.846  0.00  0.00    +0.000 OA
ATOM     31  H   UNL     1       3.971  18.049  19.201  0.00  0.00    +0.000 HD
ENDBRANCH  28  30
ENDBRANCH   5  28
TORSDOF 6
ENDMDL
