MODEL 1
REMARK VINA RESULT:      -7.1      0.000      0.000
REMARK  Name = 
REMARK  8 active torsions:
REMARK  status: ('A' for Active; 'I' for Inactive)
REMARK    1  A    between atoms: C_2  and  O_3
REMARK    2  A    between atoms: C_2  and  C_21
REMARK    3  A    between atoms: O_3  and  C_4
REMARK    4  A    between atoms: C_4  and  C_5
REMARK    5  A    between atoms: C_8  and  C_9
REMARK    6  A    between atoms: C_9  and  O_10
REMARK    7  A    between atoms: O_10  and  C_11
REMARK    8  A    between atoms: C_11  and  C_13
REMARK                            x       y       z     vdW  Elec       q    Type
REMARK                         _______ _______ _______ _____ _____    ______ ____
ROOT
ATOM      1  C   UNL     1       4.666   5.336  18.672  0.00  0.00    +0.000 C 
ATOM      2  C   UNL     1       3.789   5.927  19.507  0.00  0.00    +0.000 C 
ATOM      3  C   UNL     1       2.773   6.879  19.102  0.00  0.00    +0.000 C 
ATOM      4  C   UNL     1       2.865   7.700  18.035  0.00  0.00    +0.000 C 
ATOM      5  S   UNL     1       4.303   7.711  17.037  0.00  0.00    +0.000 S 
ATOM      6  S   UNL     1       4.645   5.683  16.953  0.00  0.00    +0.000 S 
ENDROOT
BRANCH   1   7
ATOM      7  C   UNL     1       5.654   4.304  19.168  0.00  0.00    +0.000 C 
BRANCH   7   8
ATOM      8  O   UNL     1       5.210   2.964  18.877  0.00  0.00    +0.000 OA
BRANCH   8  10
ATOM      9  O   UNL     1       5.214   1.595  20.715  0.00  0.00    +0.000 OA
ATOM     10  C   UNL     1       4.635   2.306  19.912  0.00  0.00    +0.000 C 
BRANCH  10  11
ATOM     11  C   UNL     1       3.159   2.537  19.942  0.00  0.00    +0.000 A 
ATOM     12  C   UNL     1       2.563   2.834  21.179  0.00  0.00    +0.000 A 
ATOM     13  C   UNL     1       1.177   2.982  21.281  0.00  0.00    +0.000 A 
ATOM     14  C   UNL     1       0.379   2.859  20.146  0.00  0.00    +0.000 A 
ATOM     15  C   UNL     1       0.965   2.605  18.906  0.00  0.00    +0.000 A 
ATOM     16  C   UNL     1       2.352   2.442  18.802  0.00  0.00    +0.000 A 
ENDBRANCH  10  11
ENDBRANCH   8  10
ENDBRANCH   7   8
ENDBRANCH   1   7
BRANCH   4  17
ATOM     17  C   UNL     1       1.763   8.680  17.707  0.00  0.00    +0.000 C 
BRANCH  17  18
ATOM     18  O   UNL     1       1.492   9.552  18.816  0.00  0.00    +0.000 OA
BRANCH  18  19
ATOM     19  C   UNL     1       0.190   9.898  18.961  0.00  0.00    +0.000 C 
ATOM     20  O   UNL     1      -0.603  10.097  18.052  0.00  0.00    +0.000 OA
BRANCH  19  21
ATOM     21  C   UNL     1      -0.164  10.025  20.398  0.00  0.00    +0.000 A 
ATOM     22  C   UNL     1      -0.522  11.291  20.876  0.00  0.00    +0.000 A 
ATOM     23  C   UNL     1      -0.822  11.477  22.227  0.00  0.00    +0.000 A 
ATOM     24  C   UNL     1      -0.769  10.395  23.105  0.00  0.00    +0.000 A 
ATOM     25  C   UNL     1      -0.431   9.127  22.635  0.00  0.00    +0.000 A 
ATOM     26  C   UNL     1      -0.130   8.938  21.282  0.00  0.00    +0.000 A 
ENDBRANCH  19  21
ENDBRANCH  18  19
ENDBRANCH  17  18
ENDBRANCH   4  17
TORSDOF 8
ENDMDL
MODEL 2
REMARK VINA RESULT:      -7.0      4.455      8.326
REMARK  Name = 
REMARK  8 active torsions:
REMARK  status: ('A' for Active; 'I' for Inactive)
REMARK    1  A    between atoms: C_2  and  O_3
REMARK    2  A    between atoms: C_2  and  C_21
REMARK    3  A    between atoms: O_3  and  C_4
REMARK    4  A    between atoms: C_4  and  C_5
REMARK    5  A    between atoms: C_8  and  C_9
REMARK    6  A    between atoms: C_9  and  O_10
REMARK    7  A    between atoms: O_10  and  C_11
REMARK    8  A    between atoms: C_11  and  C_13
REMARK                            x       y       z     vdW  Elec       q    Type
REMARK                         _______ _______ _______ _____ _____    ______ ____
ROOT
ATOM      1  C   UNL     1       3.275   3.504  18.454  0.00  0.00    +0.000 C 
ATOM      2  C   UNL     1       3.284   3.934  17.177  0.00  0.00    +0.000 C 
ATOM      3  C   UNL     1       4.479   4.253  16.420  0.00  0.00    +0.000 C 
ATOM      4  C   UNL     1       5.640   4.684  16.955  0.00  0.00    +0.000 C 
ATOM      5  S   UNL     1       5.788   4.946  18.679  0.00  0.00    +0.000 S 
ATOM      6  S   UNL     1       4.772   3.282  19.339  0.00  0.00    +0.000 S 
ENDROOT
BRANCH   1   7
ATOM      7  C   UNL     1       1.985   3.132  19.151  0.00  0.00    +0.000 C 
BRANCH   7   8
ATOM      8  O   UNL     1       1.240   4.301  19.544  0.00  0.00    +0.000 OA
BRANCH   8  10
ATOM      9  O   UNL     1       2.342   4.731  21.507  0.00  0.00    +0.000 OA
ATOM     10  C   UNL     1       1.851   5.098  20.454  0.00  0.00    +0.000 C 
BRANCH  10  11
ATOM     11  C   UNL     1       1.829   6.526  20.018  0.00  0.00    +0.000 A 
ATOM     12  C   UNL     1       1.255   7.473  20.883  0.00  0.00    +0.000 A 
ATOM     13  C   UNL     1       1.136   8.809  20.495  0.00  0.00    +0.000 A 
ATOM     14  C   UNL     1       1.610   9.217  19.250  0.00  0.00    +0.000 A 
ATOM     15  C   UNL     1       2.218   8.294  18.399  0.00  0.00    +0.000 A 
ATOM     16  C   UNL     1       2.327   6.951  18.779  0.00  0.00    +0.000 A 
ENDBRANCH  10  11
ENDBRANCH   8  10
ENDBRANCH   7   8
ENDBRANCH   1   7
BRANCH   4  17
ATOM     17  C   UNL     1       6.826   5.018  16.080  0.00  0.00    +0.000 C 
BRANCH  17  18
ATOM     18  O   UNL     1       7.000   4.042  15.041  0.00  0.00    +0.000 OA
BRANCH  18  19
ATOM     19  C   UNL     1       7.087   4.554  13.789  0.00  0.00    +0.000 C 
ATOM     20  O   UNL     1       7.713   5.553  13.467  0.00  0.00    +0.000 OA
BRANCH  19  21
ATOM     21  C   UNL     1       6.294   3.741  12.832  0.00  0.00    +0.000 A 
ATOM     22  C   UNL     1       6.956   2.731  12.124  0.00  0.00    +0.000 A 
ATOM     23  C   UNL     1       6.270   1.965  11.180  0.00  0.00    +0.000 A 
ATOM     24  C   UNL     1       4.916   2.204  10.942  0.00  0.00    +0.000 A 
ATOM     25  C   UNL     1       4.245   3.195  11.655  0.00  0.00    +0.000 A 
ATOM     26  C   UNL     1       4.929   3.964  12.602  0.00  0.00    +0.000 A 
ENDBRANCH  19  21
ENDBRANCH  18  19
ENDBRANCH  17  18
ENDBRANCH   4  17
TORSDOF 8
ENDMDL
MODEL 3
REMARK VINA RESULT:      -6.9      2.664      4.589
REMARK  Name = 
REMARK  8 active torsions:
REMARK  status: ('A' for Active; 'I' for Inactive)
REMARK    1  A    between atoms: C_2  and  O_3
REMARK    2  A    between atoms: C_2  and  C_21
REMARK    3  A    between atoms: O_3  and  C_4
REMARK    4  A    between atoms: C_4  and  C_5
REMARK    5  A    between atoms: C_8  and  C_9
REMARK    6  A    between atoms: C_9  and  O_10
REMARK    7  A    between atoms: O_10  and  C_11
REMARK    8  A    between atoms: C_11  and  C_13
REMARK                            x       y       z     vdW  Elec       q    Type
REMARK                         _______ _______ _______ _____ _____    ______ ____
ROOT
ATOM      1  C   UNL     1       3.082   4.769  18.218  0.00  0.00    +0.000 C 
ATOM      2  C   UNL     1       2.757   6.040  17.909  0.00  0.00    +0.000 C 
ATOM      3  C   UNL     1       2.495   7.086  18.879  0.00  0.00    +0.000 C 
ATOM      4  C   UNL     1       2.015   6.882  20.124  0.00  0.00    +0.000 C 
ATOM      5  S   UNL     1       1.614   5.270  20.675  0.00  0.00    +0.000 S 
ATOM      6  S   UNL     1       3.224   4.257  19.889  0.00  0.00    +0.000 S 
ENDROOT
BRANCH   1   7
ATOM      7  C   UNL     1       3.404   3.755  17.142  0.00  0.00    +0.000 C 
BRANCH   7   8
ATOM      8  O   UNL     1       4.797   3.390  17.159  0.00  0.00    +0.000 OA
BRANCH   8  10
ATOM      9  O   UNL     1       5.694   4.014  15.144  0.00  0.00    +0.000 OA
ATOM     10  C   UNL     1       5.600   4.128  16.354  0.00  0.00    +0.000 C 
BRANCH  10  11
ATOM     11  C   UNL     1       6.399   5.109  17.146  0.00  0.00    +0.000 A 
ATOM     12  C   UNL     1       6.424   6.445  16.711  0.00  0.00    +0.000 A 
ATOM     13  C   UNL     1       7.217   7.390  17.367  0.00  0.00    +0.000 A 
ATOM     14  C   UNL     1       7.972   7.016  18.475  0.00  0.00    +0.000 A 
ATOM     15  C   UNL     1       7.924   5.701  18.941  0.00  0.00    +0.000 A 
ATOM     16  C   UNL     1       7.141   4.748  18.278  0.00  0.00    +0.000 A 
ENDBRANCH  10  11
ENDBRANCH   8  10
ENDBRANCH   7   8
ENDBRANCH   1   7
BRANCH   4  17
ATOM     17  C   UNL     1       1.748   8.040  21.056  0.00  0.00    +0.000 C 
BRANCH  17  18
ATOM     18  O   UNL     1       0.472   8.642  20.789  0.00  0.00    +0.000 OA
BRANCH  18  19
ATOM     19  C   UNL     1       0.431   9.986  20.958  0.00  0.00    +0.000 C 
ATOM     20  O   UNL     1       0.897  10.603  21.905  0.00  0.00    +0.000 OA
BRANCH  19  21
ATOM     21  C   UNL     1      -0.283  10.637  19.829  0.00  0.00    +0.000 A 
ATOM     22  C   UNL     1      -0.224  12.033  19.733  0.00  0.00    +0.000 A 
ATOM     23  C   UNL     1      -0.911  12.699  18.718  0.00  0.00    +0.000 A 
ATOM     24  C   UNL     1      -1.658  11.973  17.791  0.00  0.00    +0.000 A 
ATOM     25  C   UNL     1      -1.708  10.582  17.868  0.00  0.00    +0.000 A 
ATOM     26  C   UNL     1      -1.020   9.911  18.883  0.00  0.00    +0.000 A 
ENDBRANCH  19  21
ENDBRANCH  18  19
ENDBRANCH  17  18
ENDBRANCH   4  17
TORSDOF 8
ENDMDL
MODEL 4
REMARK VINA RESULT:      -6.8      2.851      4.717
REMARK  Name = 
REMARK  8 active torsions:
REMARK  status: ('A' for Active; 'I' for Inactive)
REMARK    1  A    between atoms: C_2  and  O_3
REMARK    2  A    between atoms: C_2  and  C_21
REMARK    3  A    between atoms: O_3  and  C_4
REMARK    4  A    between atoms: C_4  and  C_5
REMARK    5  A    between atoms: C_8  and  C_9
REMARK    6  A    between atoms: C_9  and  O_10
REMARK    7  A    between atoms: O_10  and  C_11
REMARK    8  A    between atoms: C_11  and  C_13
REMARK                            x       y       z     vdW  Elec       q    Type
REMARK                         _______ _______ _______ _____ _____    ______ ____
ROOT
ATOM      1  C   UNL     1       3.527   4.792  18.034  0.00  0.00    +0.000 C 
ATOM      2  C   UNL     1       3.068   6.035  17.788  0.00  0.00    +0.000 C 
ATOM      3  C   UNL     1       2.610   6.964  18.803  0.00  0.00    +0.000 C 
ATOM      4  C   UNL     1       2.075   6.609  19.990  0.00  0.00    +0.000 C 
ATOM      5  S   UNL     1       1.840   4.923  20.396  0.00  0.00    +0.000 S 
ATOM      6  S   UNL     1       3.615   4.173  19.672  0.00  0.00    +0.000 S 
ENDROOT
BRANCH   1   7
ATOM      7  C   UNL     1       4.046   3.910  16.920  0.00  0.00    +0.000 C 
BRANCH   7   8
ATOM      8  O   UNL     1       4.771   4.672  15.935  0.00  0.00    +0.000 OA
BRANCH   8  10
ATOM      9  O   UNL     1       6.713   3.695  15.212  0.00  0.00    +0.000 OA
ATOM     10  C   UNL     1       6.112   4.480  15.925  0.00  0.00    +0.000 C 
BRANCH  10  11
ATOM     11  C   UNL     1       6.787   5.348  16.935  0.00  0.00    +0.000 A 
ATOM     12  C   UNL     1       6.864   6.727  16.674  0.00  0.00    +0.000 A 
ATOM     13  C   UNL     1       7.552   7.576  17.545  0.00  0.00    +0.000 A 
ATOM     14  C   UNL     1       8.147   7.061  18.694  0.00  0.00    +0.000 A 
ATOM     15  C   UNL     1       8.042   5.700  18.984  0.00  0.00    +0.000 A 
ATOM     16  C   UNL     1       7.365   4.844  18.106  0.00  0.00    +0.000 A 
ENDBRANCH  10  11
ENDBRANCH   8  10
ENDBRANCH   7   8
ENDBRANCH   1   7
BRANCH   4  17
ATOM     17  C   UNL     1       1.601   7.651  20.975  0.00  0.00    +0.000 C 
BRANCH  17  18
ATOM     18  O   UNL     1       1.251   8.876  20.312  0.00  0.00    +0.000 OA
BRANCH  18  19
ATOM     19  C   UNL     1       0.104   9.450  20.749  0.00  0.00    +0.000 C 
ATOM     20  O   UNL     1      -0.582   9.061  21.683  0.00  0.00    +0.000 OA
BRANCH  19  21
ATOM     21  C   UNL     1      -0.238  10.637  19.922  0.00  0.00    +0.000 A 
ATOM     22  C   UNL     1      -1.200  10.481  18.917  0.00  0.00    +0.000 A 
ATOM     23  C   UNL     1      -1.528  11.551  18.083  0.00  0.00    +0.000 A 
ATOM     24  C   UNL     1      -0.899  12.783  18.253  0.00  0.00    +0.000 A 
ATOM     25  C   UNL     1       0.047  12.953  19.263  0.00  0.00    +0.000 A 
ATOM     26  C   UNL     1       0.378  11.883  20.101  0.00  0.00    +0.000 A 
ENDBRANCH  19  21
ENDBRANCH  18  19
ENDBRANCH  17  18
ENDBRANCH   4  17
TORSDOF 8
ENDMDL
MODEL 5
REMARK VINA RESULT:      -6.8      2.797      7.900
REMARK  Name = 
REMARK  8 active torsions:
REMARK  status: ('A' for Active; 'I' for Inactive)
REMARK    1  A    between atoms: C_2  and  O_3
REMARK    2  A    between atoms: C_2  and  C_21
REMARK    3  A    between atoms: O_3  and  C_4
REMARK    4  A    between atoms: C_4  and  C_5
REMARK    5  A    between atoms: C_8  and  C_9
REMARK    6  A    between atoms: C_9  and  O_10
REMARK    7  A    between atoms: O_10  and  C_11
REMARK    8  A    between atoms: C_11  and  C_13
REMARK                            x       y       z     vdW  Elec       q    Type
REMARK                         _______ _______ _______ _____ _____    ______ ____
ROOT
ATOM      1  C   UNL     1       1.840   6.143  20.270  0.00  0.00    +0.000 C 
ATOM      2  C   UNL     1       2.685   6.511  19.285  0.00  0.00    +0.000 C 
ATOM      3  C   UNL     1       3.249   5.608  18.300  0.00  0.00    +0.000 C 
ATOM      4  C   UNL     1       3.473   4.292  18.497  0.00  0.00    +0.000 C 
ATOM      5  S   UNL     1       3.125   3.546  20.041  0.00  0.00    +0.000 S 
ATOM      6  S   UNL     1       1.331   4.474  20.442  0.00  0.00    +0.000 S 
ENDROOT
BRANCH   1   7
ATOM      7  C   UNL     1       1.247   7.161  21.218  0.00  0.00    +0.000 C 
BRANCH   7   8
ATOM      8  O   UNL     1       1.729   8.490  20.937  0.00  0.00    +0.000 OA
BRANCH   8  10
ATOM      9  O   UNL     1       1.041   9.572  22.836  0.00  0.00    +0.000 OA
ATOM     10  C   UNL     1       1.118   9.486  21.623  0.00  0.00    +0.000 C 
BRANCH  10  11
ATOM     11  C   UNL     1       0.509  10.483  20.693  0.00  0.00    +0.000 A 
ATOM     12  C   UNL     1      -0.527  10.050  19.847  0.00  0.00    +0.000 A 
ATOM     13  C   UNL     1      -1.080  10.918  18.902  0.00  0.00    +0.000 A 
ATOM     14  C   UNL     1      -0.622  12.230  18.810  0.00  0.00    +0.000 A 
ATOM     15  C   UNL     1       0.378  12.682  19.672  0.00  0.00    +0.000 A 
ATOM     16  C   UNL     1       0.945  11.811  20.611  0.00  0.00    +0.000 A 
ENDBRANCH  10  11
ENDBRANCH   8  10
ENDBRANCH   7   8
ENDBRANCH   1   7
BRANCH   4  17
ATOM     17  C   UNL     1       4.092   3.436  17.417  0.00  0.00    +0.000 C 
BRANCH  17  18
ATOM     18  O   UNL     1       4.472   4.225  16.279  0.00  0.00    +0.000 OA
BRANCH  18  19
ATOM     19  C   UNL     1       5.797   4.209  15.994  0.00  0.00    +0.000 C 
ATOM     20  O   UNL     1       6.335   3.539  15.124  0.00  0.00    +0.000 OA
BRANCH  19  21
ATOM     21  C   UNL     1       6.541   5.119  16.902  0.00  0.00    +0.000 A 
ATOM     22  C   UNL     1       6.502   6.493  16.632  0.00  0.00    +0.000 A 
ATOM     23  C   UNL     1       7.218   7.389  17.426  0.00  0.00    +0.000 A 
ATOM     24  C   UNL     1       7.974   6.916  18.498  0.00  0.00    +0.000 A 
ATOM     25  C   UNL     1       8.006   5.553  18.786  0.00  0.00    +0.000 A 
ATOM     26  C   UNL     1       7.289   4.652  17.992  0.00  0.00    +0.000 A 
ENDBRANCH  19  21
ENDBRANCH  18  19
ENDBRANCH  17  18
ENDBRANCH   4  17
TORSDOF 8
ENDMDL
MODEL 6
REMARK VINA RESULT:      -6.8      2.684      4.324
REMARK  Name = 
REMARK  8 active torsions:
REMARK  status: ('A' for Active; 'I' for Inactive)
REMARK    1  A    between atoms: C_2  and  O_3
REMARK    2  A    between atoms: C_2  and  C_21
REMARK    3  A    between atoms: O_3  and  C_4
REMARK    4  A    between atoms: C_4  and  C_5
REMARK    5  A    between atoms: C_8  and  C_9
REMARK    6  A    between atoms: C_9  and  O_10
REMARK    7  A    between atoms: O_10  and  C_11
REMARK    8  A    between atoms: C_11  and  C_13
REMARK                            x       y       z     vdW  Elec       q    Type
REMARK                         _______ _______ _______ _____ _____    ______ ____
ROOT
ATOM      1  C   UNL     1       3.340   4.837  18.280  0.00  0.00    +0.000 C 
ATOM      2  C   UNL     1       3.004   6.104  17.968  0.00  0.00    +0.000 C 
ATOM      3  C   UNL     1       2.603   7.114  18.929  0.00  0.00    +0.000 C 
ATOM      4  C   UNL     1       2.001   6.860  20.110  0.00  0.00    +0.000 C 
ATOM      5  S   UNL     1       1.601   5.221  20.576  0.00  0.00    +0.000 S 
ATOM      6  S   UNL     1       3.321   4.284  19.944  0.00  0.00    +0.000 S 
ENDROOT
BRANCH   1   7
ATOM      7  C   UNL     1       3.810   3.864  17.221  0.00  0.00    +0.000 C 
BRANCH   7   8
ATOM      8  O   UNL     1       4.455   4.544  16.127  0.00  0.00    +0.000 OA
BRANCH   8  10
ATOM      9  O   UNL     1       6.331   3.535  15.282  0.00  0.00    +0.000 OA
ATOM     10  C   UNL     1       5.790   4.337  16.023  0.00  0.00    +0.000 C 
BRANCH  10  11
ATOM     11  C   UNL     1       6.545   5.215  16.967  0.00  0.00    +0.000 A 
ATOM     12  C   UNL     1       6.608   6.590  16.684  0.00  0.00    +0.000 A 
ATOM     13  C   UNL     1       7.364   7.445  17.488  0.00  0.00    +0.000 A 
ATOM     14  C   UNL     1       8.044   6.941  18.594  0.00  0.00    +0.000 A 
ATOM     15  C   UNL     1       7.956   5.585  18.907  0.00  0.00    +0.000 A 
ATOM     16  C   UNL     1       7.210   4.721  18.096  0.00  0.00    +0.000 A 
ENDBRANCH  10  11
ENDBRANCH   8  10
ENDBRANCH   7   8
ENDBRANCH   1   7
BRANCH   4  17
ATOM     17  C   UNL     1       1.594   7.982  21.036  0.00  0.00    +0.000 C 
BRANCH  17  18
ATOM     18  O   UNL     1       0.371   8.599  20.604  0.00  0.00    +0.000 OA
BRANCH  18  19
ATOM     19  C   UNL     1       0.473   9.917  20.309  0.00  0.00    +0.000 C 
ATOM     20  O   UNL     1       1.259  10.415  19.516  0.00  0.00    +0.000 OA
BRANCH  19  21
ATOM     21  C   UNL     1      -0.502  10.710  21.101  0.00  0.00    +0.000 A 
ATOM     22  C   UNL     1      -1.253  11.684  20.431  0.00  0.00    +0.000 A 
ATOM     23  C   UNL     1      -2.153  12.488  21.134  0.00  0.00    +0.000 A 
ATOM     24  C   UNL     1      -2.309  12.318  22.509  0.00  0.00    +0.000 A 
ATOM     25  C   UNL     1      -1.579  11.339  23.181  0.00  0.00    +0.000 A 
ATOM     26  C   UNL     1      -0.677  10.532  22.480  0.00  0.00    +0.000 A 
ENDBRANCH  19  21
ENDBRANCH  18  19
ENDBRANCH  17  18
ENDBRANCH   4  17
TORSDOF 8
ENDMDL
MODEL 7
REMARK VINA RESULT:      -6.8      2.678      4.538
REMARK  Name = 
REMARK  8 active torsions:
REMARK  status: ('A' for Active; 'I' for Inactive)
REMARK    1  A    between atoms: C_2  and  O_3
REMARK    2  A    between atoms: C_2  and  C_21
REMARK    3  A    between atoms: O_3  and  C_4
REMARK    4  A    between atoms: C_4  and  C_5
REMARK    5  A    between atoms: C_8  and  C_9
REMARK    6  A    between atoms: C_9  and  O_10
REMARK    7  A    between atoms: O_10  and  C_11
REMARK    8  A    between atoms: C_11  and  C_13
REMARK                            x       y       z     vdW  Elec       q    Type
REMARK                         _______ _______ _______ _____ _____    ______ ____
ROOT
ATOM      1  C   UNL     1       3.210   4.895  18.179  0.00  0.00    +0.000 C 
ATOM      2  C   UNL     1       2.821   6.155  17.899  0.00  0.00    +0.000 C 
ATOM      3  C   UNL     1       2.488   7.158  18.893  0.00  0.00    +0.000 C 
ATOM      4  C   UNL     1       2.002   6.894  20.124  0.00  0.00    +0.000 C 
ATOM      5  S   UNL     1       1.680   5.248  20.624  0.00  0.00    +0.000 S 
ATOM      6  S   UNL     1       3.355   4.345  19.837  0.00  0.00    +0.000 S 
ENDROOT
BRANCH   1   7
ATOM      7  C   UNL     1       3.602   3.931  17.081  0.00  0.00    +0.000 C 
BRANCH   7   8
ATOM      8  O   UNL     1       4.977   3.519  17.205  0.00  0.00    +0.000 OA
BRANCH   8  10
ATOM      9  O   UNL     1       5.994   3.882  15.184  0.00  0.00    +0.000 OA
ATOM     10  C   UNL     1       5.845   4.135  16.367  0.00  0.00    +0.000 C 
BRANCH  10  11
ATOM     11  C   UNL     1       6.640   5.175  17.086  0.00  0.00    +0.000 A 
ATOM     12  C   UNL     1       7.270   4.809  18.288  0.00  0.00    +0.000 A 
ATOM     13  C   UNL     1       7.961   5.759  19.044  0.00  0.00    +0.000 A 
ATOM     14  C   UNL     1       8.050   7.075  18.595  0.00  0.00    +0.000 A 
ATOM     15  C   UNL     1       7.463   7.439  17.383  0.00  0.00    +0.000 A 
ATOM     16  C   UNL     1       6.757   6.493  16.630  0.00  0.00    +0.000 A 
ENDBRANCH  10  11
ENDBRANCH   8  10
ENDBRANCH   7   8
ENDBRANCH   1   7
BRANCH   4  17
ATOM     17  C   UNL     1       1.658   8.009  21.082  0.00  0.00    +0.000 C 
BRANCH  17  18
ATOM     18  O   UNL     1       0.241   8.094  21.298  0.00  0.00    +0.000 OA
BRANCH  18  19
ATOM     19  C   UNL     1      -0.189   9.283  21.786  0.00  0.00    +0.000 C 
ATOM     20  O   UNL     1      -0.585   9.490  22.924  0.00  0.00    +0.000 OA
BRANCH  19  21
ATOM     21  C   UNL     1      -0.135  10.333  20.736  0.00  0.00    +0.000 A 
ATOM     22  C   UNL     1       0.541  11.523  21.033  0.00  0.00    +0.000 A 
ATOM     23  C   UNL     1       0.586  12.560  20.099  0.00  0.00    +0.000 A 
ATOM     24  C   UNL     1      -0.041  12.410  18.863  0.00  0.00    +0.000 A 
ATOM     25  C   UNL     1      -0.700  11.222  18.552  0.00  0.00    +0.000 A 
ATOM     26  C   UNL     1      -0.747  10.181  19.484  0.00  0.00    +0.000 A 
ENDBRANCH  19  21
ENDBRANCH  18  19
ENDBRANCH  17  18
ENDBRANCH   4  17
TORSDOF 8
ENDMDL
MODEL 8
REMARK VINA RESULT:      -6.8      2.521      7.922
REMARK  Name = 
REMARK  8 active torsions:
REMARK  status: ('A' for Active; 'I' for Inactive)
REMARK    1  A    between atoms: C_2  and  O_3
REMARK    2  A    between atoms: C_2  and  C_21
REMARK    3  A    between atoms: O_3  and  C_4
REMARK    4  A    between atoms: C_4  and  C_5
REMARK    5  A    between atoms: C_8  and  C_9
REMARK    6  A    between atoms: C_9  and  O_10
REMARK    7  A    between atoms: O_10  and  C_11
REMARK    8  A    between atoms: C_11  and  C_13
REMARK                            x       y       z     vdW  Elec       q    Type
REMARK                         _______ _______ _______ _____ _____    ______ ____
ROOT
ATOM      1  C   UNL     1       1.058   9.165  20.123  0.00  0.00    +0.000 C 
ATOM      2  C   UNL     1       1.362   7.929  20.568  0.00  0.00    +0.000 C 
ATOM      3  C   UNL     1       2.384   7.072  19.997  0.00  0.00    +0.000 C 
ATOM      4  C   UNL     1       2.786   7.102  18.709  0.00  0.00    +0.000 C 
ATOM      5  S   UNL     1       2.041   8.197  17.565  0.00  0.00    +0.000 S 
ATOM      6  S   UNL     1       1.913   9.867  18.762  0.00  0.00    +0.000 S 
ENDROOT
BRANCH   1   7
ATOM      7  C   UNL     1       0.020  10.018  20.817  0.00  0.00    +0.000 C 
BRANCH   7   8
ATOM      8  O   UNL     1      -1.210  10.067  20.070  0.00  0.00    +0.000 OA
BRANCH   8  10
ATOM      9  O   UNL     1      -1.032  12.325  19.719  0.00  0.00    +0.000 OA
ATOM     10  C   UNL     1      -1.434  11.221  19.395  0.00  0.00    +0.000 C 
BRANCH  10  11
ATOM     11  C   UNL     1      -2.276  10.981  18.185  0.00  0.00    +0.000 A 
ATOM     12  C   UNL     1      -1.789  10.098  17.206  0.00  0.00    +0.000 A 
ATOM     13  C   UNL     1      -2.496   9.896  16.019  0.00  0.00    +0.000 A 
ATOM     14  C   UNL     1      -3.706  10.553  15.809  0.00  0.00    +0.000 A 
ATOM     15  C   UNL     1      -4.219  11.399  16.792  0.00  0.00    +0.000 A 
ATOM     16  C   UNL     1      -3.506  11.616  17.977  0.00  0.00    +0.000 A 
ENDBRANCH  10  11
ENDBRANCH   8  10
ENDBRANCH   7   8
ENDBRANCH   1   7
BRANCH   4  17
ATOM     17  C   UNL     1       3.841   6.149  18.199  0.00  0.00    +0.000 C 
BRANCH  17  18
ATOM     18  O   UNL     1       3.264   5.122  17.378  0.00  0.00    +0.000 OA
BRANCH  18  19
ATOM     19  C   UNL     1       3.569   3.856  17.755  0.00  0.00    +0.000 C 
ATOM     20  O   UNL     1       4.342   3.104  17.178  0.00  0.00    +0.000 OA
BRANCH  19  21
ATOM     21  C   UNL     1       2.818   3.476  18.979  0.00  0.00    +0.000 A 
ATOM     22  C   UNL     1       1.420   3.526  18.934  0.00  0.00    +0.000 A 
ATOM     23  C   UNL     1       0.666   3.221  20.068  0.00  0.00    +0.000 A 
ATOM     24  C   UNL     1       1.307   2.861  21.252  0.00  0.00    +0.000 A 
ATOM     25  C   UNL     1       2.698   2.791  21.302  0.00  0.00    +0.000 A 
ATOM     26  C   UNL     1       3.457   3.095  20.168  0.00  0.00    +0.000 A 
ENDBRANCH  19  21
ENDBRANCH  18  19
ENDBRANCH  17  18
ENDBRANCH   4  17
TORSDOF 8
ENDMDL
MODEL 9
REMARK VINA RESULT:      -6.8      2.514      4.083
REMARK  Name = 
REMARK  8 active torsions:
REMARK  status: ('A' for Active; 'I' for Inactive)
REMARK    1  A    between atoms: C_2  and  O_3
REMARK    2  A    between atoms: C_2  and  C_21
REMARK    3  A    between atoms: O_3  and  C_4
REMARK    4  A    between atoms: C_4  and  C_5
REMARK    5  A    between atoms: C_8  and  C_9
REMARK    6  A    between atoms: C_9  and  O_10
REMARK    7  A    between atoms: O_10  and  C_11
REMARK    8  A    between atoms: C_11  and  C_13
REMARK                            x       y       z     vdW  Elec       q    Type
REMARK                         _______ _______ _______ _____ _____    ______ ____
ROOT
ATOM      1  C   UNL     1       2.077   5.084  19.753  0.00  0.00    +0.000 C 
ATOM      2  C   UNL     1       1.889   5.989  20.733  0.00  0.00    +0.000 C 
ATOM      3  C   UNL     1       1.522   7.376  20.518  0.00  0.00    +0.000 C 
ATOM      4  C   UNL     1       1.824   8.093  19.416  0.00  0.00    +0.000 C 
ATOM      5  S   UNL     1       2.763   7.387  18.119  0.00  0.00    +0.000 S 
ATOM      6  S   UNL     1       1.882   5.527  18.068  0.00  0.00    +0.000 S 
ENDROOT
BRANCH   1   7
ATOM      7  C   UNL     1       2.397   3.639  20.068  0.00  0.00    +0.000 C 
BRANCH   7   8
ATOM      8  O   UNL     1       3.195   3.036  19.030  0.00  0.00    +0.000 OA
BRANCH   8  10
ATOM      9  O   UNL     1       5.156   2.447  20.059  0.00  0.00    +0.000 OA
ATOM     10  C   UNL     1       4.535   3.085  19.227  0.00  0.00    +0.000 C 
BRANCH  10  11
ATOM     11  C   UNL     1       5.179   4.059  18.296  0.00  0.00    +0.000 A 
ATOM     12  C   UNL     1       5.932   5.106  18.854  0.00  0.00    +0.000 A 
ATOM     13  C   UNL     1       6.492   6.091  18.036  0.00  0.00    +0.000 A 
ATOM     14  C   UNL     1       6.325   6.026  16.655  0.00  0.00    +0.000 A 
ATOM     15  C   UNL     1       5.613   4.969  16.087  0.00  0.00    +0.000 A 
ATOM     16  C   UNL     1       5.039   3.988  16.905  0.00  0.00    +0.000 A 
ENDBRANCH  10  11
ENDBRANCH   8  10
ENDBRANCH   7   8
ENDBRANCH   1   7
BRANCH   4  17
ATOM     17  C   UNL     1       1.421   9.544  19.295  0.00  0.00    +0.000 C 
BRANCH  17  18
ATOM     18  O   UNL     1       0.274   9.699  18.445  0.00  0.00    +0.000 OA
BRANCH  18  19
ATOM     19  C   UNL     1      -0.778  10.330  19.021  0.00  0.00    +0.000 C 
ATOM     20  O   UNL     1      -0.843  10.697  20.185  0.00  0.00    +0.000 OA
BRANCH  19  21
ATOM     21  C   UNL     1      -1.881  10.513  18.043  0.00  0.00    +0.000 A 
ATOM     22  C   UNL     1      -2.926  11.379  18.387  0.00  0.00    +0.000 A 
ATOM     23  C   UNL     1      -4.009  11.556  17.525  0.00  0.00    +0.000 A 
ATOM     24  C   UNL     1      -4.051  10.869  16.311  0.00  0.00    +0.000 A 
ATOM     25  C   UNL     1      -3.007  10.018  15.952  0.00  0.00    +0.000 A 
ATOM     26  C   UNL     1      -1.920   9.840  16.814  0.00  0.00    +0.000 A 
ENDBRANCH  19  21
ENDBRANCH  18  19
ENDBRANCH  17  18
ENDBRANCH   4  17
TORSDOF 8
ENDMDL
