MODEL 1
REMARK VINA RESULT:      -7.4      0.000      0.000
REMARK  Name = 
REMARK  7 active torsions:
REMARK  status: ('A' for Active; 'I' for Inactive)
REMARK    1  A    between atoms: C_2  and  O_3
REMARK    2  A    between atoms: C_2  and  C_4
REMARK    3  A    between atoms: C_4  and  C_5
REMARK    4  A    between atoms: N_11  and  C_12
REMARK    5  A    between atoms: C_12  and  C_13
REMARK    6  A    between atoms: C_13  and  C_14
REMARK    7  A    between atoms: C_14  and  C_15
REMARK                            x       y       z     vdW  Elec       q    Type
REMARK                         _______ _______ _______ _____ _____    ______ ____
ROOT
ATOM      1  C   UNL     1       6.264   4.670  18.453  0.00  0.00    +0.000 C 
ATOM      2  C   UNL     1       7.261   5.607  19.182  0.00  0.00    +0.000 C 
ATOM      3  O   UNL     1       7.572   5.404  20.362  0.00  0.00    +0.000 OA
ATOM      4  N   UNL     1       7.822   6.652  18.518  0.00  0.00    +0.000 N 
ATOM      5  C   UNL     1       7.363   7.051  17.213  0.00  0.00    +0.000 C 
ATOM      6  C   UNL     1       6.948   5.828  16.394  0.00  0.00    +0.000 C 
ATOM      7  N   UNL     1       5.883   5.045  17.050  0.00  0.00    +0.000 NA
ATOM      8  H   UNL     1       8.397   7.273  19.074  0.00  0.00    +0.000 HD
ENDROOT
BRANCH   1   9
ATOM      9  C   UNL     1       5.176   4.290  19.473  0.00  0.00    +0.000 C 
BRANCH   9  11
ATOM     10  O   UNL     1       4.685   2.116  20.399  0.00  0.00    +0.000 OA
ATOM     11  C   UNL     1       4.762   2.834  19.414  0.00  0.00    +0.000 C 
BRANCH  11  12
ATOM     12  O   UNL     1       4.475   2.378  18.179  0.00  0.00    +0.000 OA
ATOM     13  H   UNL     1       4.382   1.395  18.113  0.00  0.00    +0.000 HD
ENDBRANCH  11  12
ENDBRANCH   9  11
ENDBRANCH   1   9
BRANCH   7  14
ATOM     14  C   UNL     1       4.534   5.586  16.835  0.00  0.00    +0.000 C 
BRANCH  14  15
ATOM     15  C   UNL     1       4.031   6.549  17.942  0.00  0.00    +0.000 C 
BRANCH  15  16
ATOM     16  C   UNL     1       2.503   6.567  18.093  0.00  0.00    +0.000 C 
BRANCH  16  17
ATOM     17  C   UNL     1       1.959   5.312  18.746  0.00  0.00    +0.000 A 
ATOM     18  C   UNL     1       1.556   4.219  17.964  0.00  0.00    +0.000 A 
ATOM     19  C   UNL     1       1.073   3.051  18.563  0.00  0.00    +0.000 A 
ATOM     20  C   UNL     1       0.979   2.965  19.951  0.00  0.00    +0.000 A 
ATOM     21  C   UNL     1       1.369   4.046  20.739  0.00  0.00    +0.000 A 
ATOM     22  C   UNL     1       1.855   5.214  20.139  0.00  0.00    +0.000 A 
ENDBRANCH  16  17
ENDBRANCH  15  16
ENDBRANCH  14  15
ENDBRANCH   7  14
TORSDOF 7
ENDMDL
MODEL 2
REMARK VINA RESULT:      -7.3      3.858      7.406
REMARK  Name = 
REMARK  7 active torsions:
REMARK  status: ('A' for Active; 'I' for Inactive)
REMARK    1  A    between atoms: C_2  and  O_3
REMARK    2  A    between atoms: C_2  and  C_4
REMARK    3  A    between atoms: C_4  and  C_5
REMARK    4  A    between atoms: N_11  and  C_12
REMARK    5  A    between atoms: C_12  and  C_13
REMARK    6  A    between atoms: C_13  and  C_14
REMARK    7  A    between atoms: C_14  and  C_15
REMARK                            x       y       z     vdW  Elec       q    Type
REMARK                         _______ _______ _______ _____ _____    ______ ____
ROOT
ATOM      1  C   UNL     1       6.736   5.047  16.662  0.00  0.00    +0.000 C 
ATOM      2  C   UNL     1       5.559   4.306  17.347  0.00  0.00    +0.000 C 
ATOM      3  O   UNL     1       4.788   3.598  16.687  0.00  0.00    +0.000 OA
ATOM      4  N   UNL     1       5.377   4.412  18.690  0.00  0.00    +0.000 N 
ATOM      5  C   UNL     1       6.117   5.362  19.479  0.00  0.00    +0.000 C 
ATOM      6  C   UNL     1       7.540   5.513  18.939  0.00  0.00    +0.000 C 
ATOM      7  N   UNL     1       7.565   5.949  17.530  0.00  0.00    +0.000 NA
ATOM      8  H   UNL     1       4.543   3.974  19.060  0.00  0.00    +0.000 HD
ENDROOT
BRANCH   1   9
ATOM      9  C   UNL     1       6.223   5.544  15.299  0.00  0.00    +0.000 C 
BRANCH   9  11
ATOM     10  O   UNL     1       7.613   5.301  13.340  0.00  0.00    +0.000 OA
ATOM     11  C   UNL     1       6.811   4.803  14.116  0.00  0.00    +0.000 C 
BRANCH  11  12
ATOM     12  O   UNL     1       6.387   3.531  13.978  0.00  0.00    +0.000 OA
ATOM     13  H   UNL     1       5.501   3.347  14.379  0.00  0.00    +0.000 HD
ENDBRANCH  11  12
ENDBRANCH   9  11
ENDBRANCH   1   9
BRANCH   7  14
ATOM     14  C   UNL     1       7.398   7.398  17.356  0.00  0.00    +0.000 C 
BRANCH  14  15
ATOM     15  C   UNL     1       8.324   8.275  18.238  0.00  0.00    +0.000 C 
BRANCH  15  16
ATOM     16  C   UNL     1       8.240   9.775  17.918  0.00  0.00    +0.000 C 
BRANCH  16  17
ATOM     17  C   UNL     1       9.323  10.586  18.601  0.00  0.00    +0.000 A 
ATOM     18  C   UNL     1      10.346  11.185  17.849  0.00  0.00    +0.000 A 
ATOM     19  C   UNL     1      11.335  11.952  18.474  0.00  0.00    +0.000 A 
ATOM     20  C   UNL     1      11.318  12.122  19.857  0.00  0.00    +0.000 A 
ATOM     21  C   UNL     1      10.312  11.527  20.615  0.00  0.00    +0.000 A 
ATOM     22  C   UNL     1       9.321  10.762  19.990  0.00  0.00    +0.000 A 
ENDBRANCH  16  17
ENDBRANCH  15  16
ENDBRANCH  14  15
ENDBRANCH   7  14
TORSDOF 7
ENDMDL
MODEL 3
REMARK VINA RESULT:      -7.2      3.829      7.422
REMARK  Name = 
REMARK  7 active torsions:
REMARK  status: ('A' for Active; 'I' for Inactive)
REMARK    1  A    between atoms: C_2  and  O_3
REMARK    2  A    between atoms: C_2  and  C_4
REMARK    3  A    between atoms: C_4  and  C_5
REMARK    4  A    between atoms: N_11  and  C_12
REMARK    5  A    between atoms: C_12  and  C_13
REMARK    6  A    between atoms: C_13  and  C_14
REMARK    7  A    between atoms: C_14  and  C_15
REMARK                            x       y       z     vdW  Elec       q    Type
REMARK                         _______ _______ _______ _____ _____    ______ ____
ROOT
ATOM      1  C   UNL     1       6.663   4.956  16.683  0.00  0.00    +0.000 C 
ATOM      2  C   UNL     1       5.467   4.246  17.368  0.00  0.00    +0.000 C 
ATOM      3  O   UNL     1       4.693   3.536  16.713  0.00  0.00    +0.000 OA
ATOM      4  N   UNL     1       5.271   4.382  18.707  0.00  0.00    +0.000 N 
ATOM      5  C   UNL     1       6.017   5.336  19.485  0.00  0.00    +0.000 C 
ATOM      6  C   UNL     1       7.448   5.455  18.960  0.00  0.00    +0.000 C 
ATOM      7  N   UNL     1       7.496   5.862  17.542  0.00  0.00    +0.000 NA
ATOM      8  H   UNL     1       4.426   3.963  19.075  0.00  0.00    +0.000 HD
ENDROOT
BRANCH   1   9
ATOM      9  C   UNL     1       6.173   5.433  15.304  0.00  0.00    +0.000 C 
BRANCH   9  11
ATOM     10  O   UNL     1       7.899   5.430  13.617  0.00  0.00    +0.000 OA
ATOM     11  C   UNL     1       6.957   4.857  14.143  0.00  0.00    +0.000 C 
BRANCH  11  12
ATOM     12  O   UNL     1       6.539   3.646  13.725  0.00  0.00    +0.000 OA
ATOM     13  H   UNL     1       5.559   3.517  13.748  0.00  0.00    +0.000 HD
ENDBRANCH  11  12
ENDBRANCH   9  11
ENDBRANCH   1   9
BRANCH   7  14
ATOM     14  C   UNL     1       7.352   7.310  17.339  0.00  0.00    +0.000 C 
BRANCH  14  15
ATOM     15  C   UNL     1       8.309   8.189  18.186  0.00  0.00    +0.000 C 
BRANCH  15  16
ATOM     16  C   UNL     1       8.168   9.693  17.910  0.00  0.00    +0.000 C 
BRANCH  16  17
ATOM     17  C   UNL     1       9.258  10.518  18.567  0.00  0.00    +0.000 A 
ATOM     18  C   UNL     1       9.284  10.682  19.960  0.00  0.00    +0.000 A 
ATOM     19  C   UNL     1      10.299  11.425  20.573  0.00  0.00    +0.000 A 
ATOM     20  C   UNL     1      11.294  12.019  19.799  0.00  0.00    +0.000 A 
ATOM     21  C   UNL     1      11.275  11.870  18.413  0.00  0.00    +0.000 A 
ATOM     22  C   UNL     1      10.261  11.124  17.801  0.00  0.00    +0.000 A 
ENDBRANCH  16  17
ENDBRANCH  15  16
ENDBRANCH  14  15
ENDBRANCH   7  14
TORSDOF 7
ENDMDL
MODEL 4
REMARK VINA RESULT:      -7.1      2.119      3.477
REMARK  Name = 
REMARK  7 active torsions:
REMARK  status: ('A' for Active; 'I' for Inactive)
REMARK    1  A    between atoms: C_2  and  O_3
REMARK    2  A    between atoms: C_2  and  C_4
REMARK    3  A    between atoms: C_4  and  C_5
REMARK    4  A    between atoms: N_11  and  C_12
REMARK    5  A    between atoms: C_12  and  C_13
REMARK    6  A    between atoms: C_13  and  C_14
REMARK    7  A    between atoms: C_14  and  C_15
REMARK                            x       y       z     vdW  Elec       q    Type
REMARK                         _______ _______ _______ _____ _____    ______ ____
ROOT
ATOM      1  C   UNL     1       6.985   5.505  17.320  0.00  0.00    +0.000 C 
ATOM      2  C   UNL     1       6.848   5.006  15.858  0.00  0.00    +0.000 C 
ATOM      3  O   UNL     1       7.610   5.419  14.975  0.00  0.00    +0.000 OA
ATOM      4  N   UNL     1       5.898   4.088  15.539  0.00  0.00    +0.000 N 
ATOM      5  C   UNL     1       4.868   3.713  16.472  0.00  0.00    +0.000 C 
ATOM      6  C   UNL     1       5.416   3.703  17.900  0.00  0.00    +0.000 C 
ATOM      7  N   UNL     1       5.963   5.013  18.303  0.00  0.00    +0.000 NA
ATOM      8  H   UNL     1       5.807   3.868  14.555  0.00  0.00    +0.000 HD
ENDROOT
BRANCH   1   9
ATOM      9  C   UNL     1       7.333   7.003  17.253  0.00  0.00    +0.000 C 
BRANCH   9  11
ATOM     10  O   UNL     1       8.555   8.643  18.535  0.00  0.00    +0.000 OA
ATOM     11  C   UNL     1       8.160   7.493  18.424  0.00  0.00    +0.000 C 
BRANCH  11  12
ATOM     12  O   UNL     1       8.430   6.556  19.355  0.00  0.00    +0.000 OA
ATOM     13  H   UNL     1       9.298   6.670  19.815  0.00  0.00    +0.000 HD
ENDBRANCH  11  12
ENDBRANCH   9  11
ENDBRANCH   1   9
BRANCH   7  14
ATOM     14  C   UNL     1       4.940   5.967  18.753  0.00  0.00    +0.000 C 
BRANCH  14  15
ATOM     15  C   UNL     1       3.915   6.388  17.669  0.00  0.00    +0.000 C 
BRANCH  15  16
ATOM     16  C   UNL     1       2.480   6.522  18.199  0.00  0.00    +0.000 C 
BRANCH  16  17
ATOM     17  C   UNL     1       1.957   5.242  18.820  0.00  0.00    +0.000 A 
ATOM     18  C   UNL     1       1.603   4.151  18.011  0.00  0.00    +0.000 A 
ATOM     19  C   UNL     1       1.140   2.960  18.581  0.00  0.00    +0.000 A 
ATOM     20  C   UNL     1       1.017   2.849  19.964  0.00  0.00    +0.000 A 
ATOM     21  C   UNL     1       1.358   3.928  20.778  0.00  0.00    +0.000 A 
ATOM     22  C   UNL     1       1.824   5.118  20.208  0.00  0.00    +0.000 A 
ENDBRANCH  16  17
ENDBRANCH  15  16
ENDBRANCH  14  15
ENDBRANCH   7  14
TORSDOF 7
ENDMDL
MODEL 5
REMARK VINA RESULT:      -7.0      0.772      1.557
REMARK  Name = 
REMARK  7 active torsions:
REMARK  status: ('A' for Active; 'I' for Inactive)
REMARK    1  A    between atoms: C_2  and  O_3
REMARK    2  A    between atoms: C_2  and  C_4
REMARK    3  A    between atoms: C_4  and  C_5
REMARK    4  A    between atoms: N_11  and  C_12
REMARK    5  A    between atoms: C_12  and  C_13
REMARK    6  A    between atoms: C_13  and  C_14
REMARK    7  A    between atoms: C_14  and  C_15
REMARK                            x       y       z     vdW  Elec       q    Type
REMARK                         _______ _______ _______ _____ _____    ______ ____
ROOT
ATOM      1  C   UNL     1       6.618   5.423  18.488  0.00  0.00    +0.000 C 
ATOM      2  C   UNL     1       7.815   5.855  19.373  0.00  0.00    +0.000 C 
ATOM      3  O   UNL     1       8.184   5.154  20.324  0.00  0.00    +0.000 OA
ATOM      4  N   UNL     1       8.487   7.004  19.096  0.00  0.00    +0.000 N 
ATOM      5  C   UNL     1       7.995   7.951  18.130  0.00  0.00    +0.000 C 
ATOM      6  C   UNL     1       7.315   7.226  16.967  0.00  0.00    +0.000 C 
ATOM      7  N   UNL     1       6.192   6.379  17.411  0.00  0.00    +0.000 NA
ATOM      8  H   UNL     1       9.202   7.271  19.762  0.00  0.00    +0.000 HD
ENDROOT
BRANCH   1   9
ATOM      9  C   UNL     1       5.570   4.795  19.423  0.00  0.00    +0.000 C 
BRANCH   9  11
ATOM     10  O   UNL     1       4.658   3.265  17.794  0.00  0.00    +0.000 OA
ATOM     11  C   UNL     1       5.036   3.463  18.938  0.00  0.00    +0.000 C 
BRANCH  11  12
ATOM     12  O   UNL     1       5.010   2.492  19.872  0.00  0.00    +0.000 OA
ATOM     13  H   UNL     1       5.900   2.173  20.161  0.00  0.00    +0.000 HD
ENDBRANCH  11  12
ENDBRANCH   9  11
ENDBRANCH   1   9
BRANCH   7  14
ATOM     14  C   UNL     1       4.940   7.119  17.619  0.00  0.00    +0.000 C 
BRANCH  14  15
ATOM     15  C   UNL     1       3.661   6.394  17.124  0.00  0.00    +0.000 C 
BRANCH  15  16
ATOM     16  C   UNL     1       2.440   6.614  18.030  0.00  0.00    +0.000 C 
BRANCH  16  17
ATOM     17  C   UNL     1       1.960   5.337  18.693  0.00  0.00    +0.000 A 
ATOM     18  C   UNL     1       1.942   5.225  20.092  0.00  0.00    +0.000 A 
ATOM     19  C   UNL     1       1.480   4.057  20.708  0.00  0.00    +0.000 A 
ATOM     20  C   UNL     1       1.040   2.985  19.934  0.00  0.00    +0.000 A 
ATOM     21  C   UNL     1       1.060   3.082  18.544  0.00  0.00    +0.000 A 
ATOM     22  C   UNL     1       1.520   4.251  17.927  0.00  0.00    +0.000 A 
ENDBRANCH  16  17
ENDBRANCH  15  16
ENDBRANCH  14  15
ENDBRANCH   7  14
TORSDOF 7
ENDMDL
MODEL 6
REMARK VINA RESULT:      -7.0      2.406      3.470
REMARK  Name = 
REMARK  7 active torsions:
REMARK  status: ('A' for Active; 'I' for Inactive)
REMARK    1  A    between atoms: C_2  and  O_3
REMARK    2  A    between atoms: C_2  and  C_4
REMARK    3  A    between atoms: C_4  and  C_5
REMARK    4  A    between atoms: N_11  and  C_12
REMARK    5  A    between atoms: C_12  and  C_13
REMARK    6  A    between atoms: C_13  and  C_14
REMARK    7  A    between atoms: C_14  and  C_15
REMARK                            x       y       z     vdW  Elec       q    Type
REMARK                         _______ _______ _______ _____ _____    ______ ____
ROOT
ATOM      1  C   UNL     1       5.908   4.820  16.549  0.00  0.00    +0.000 C 
ATOM      2  C   UNL     1       7.039   4.607  17.588  0.00  0.00    +0.000 C 
ATOM      3  O   UNL     1       8.176   4.279  17.226  0.00  0.00    +0.000 OA
ATOM      4  N   UNL     1       6.794   4.804  18.910  0.00  0.00    +0.000 N 
ATOM      5  C   UNL     1       5.459   5.001  19.409  0.00  0.00    +0.000 C 
ATOM      6  C   UNL     1       4.624   5.797  18.405  0.00  0.00    +0.000 C 
ATOM      7  N   UNL     1       4.542   5.135  17.089  0.00  0.00    +0.000 NA
ATOM      8  H   UNL     1       7.550   4.566  19.541  0.00  0.00    +0.000 HD
ENDROOT
BRANCH   1   9
ATOM      9  C   UNL     1       6.080   3.739  15.468  0.00  0.00    +0.000 C 
BRANCH   9  11
ATOM     10  O   UNL     1       6.247   3.867  13.063  0.00  0.00    +0.000 OA
ATOM     11  C   UNL     1       6.622   4.266  14.155  0.00  0.00    +0.000 C 
BRANCH  11  12
ATOM     12  O   UNL     1       7.559   5.228  14.276  0.00  0.00    +0.000 OA
ATOM     13  H   UNL     1       7.666   5.802  13.478  0.00  0.00    +0.000 HD
ENDBRANCH  11  12
ENDBRANCH   9  11
ENDBRANCH   1   9
BRANCH   7  14
ATOM     14  C   UNL     1       3.526   4.077  17.022  0.00  0.00    +0.000 C 
BRANCH  14  15
ATOM     15  C   UNL     1       2.059   4.572  17.103  0.00  0.00    +0.000 C 
BRANCH  15  16
ATOM     16  C   UNL     1       1.134   3.629  17.887  0.00  0.00    +0.000 C 
BRANCH  16  17
ATOM     17  C   UNL     1       1.503   3.525  19.354  0.00  0.00    +0.000 A 
ATOM     18  C   UNL     1       1.630   2.270  19.969  0.00  0.00    +0.000 A 
ATOM     19  C   UNL     1       1.991   2.169  21.318  0.00  0.00    +0.000 A 
ATOM     20  C   UNL     1       2.219   3.321  22.068  0.00  0.00    +0.000 A 
ATOM     21  C   UNL     1       2.089   4.573  21.470  0.00  0.00    +0.000 A 
ATOM     22  C   UNL     1       1.731   4.674  20.121  0.00  0.00    +0.000 A 
ENDBRANCH  16  17
ENDBRANCH  15  16
ENDBRANCH  14  15
ENDBRANCH   7  14
TORSDOF 7
ENDMDL
MODEL 7
REMARK VINA RESULT:      -6.8      2.144      3.174
REMARK  Name = 
REMARK  7 active torsions:
REMARK  status: ('A' for Active; 'I' for Inactive)
REMARK    1  A    between atoms: C_2  and  O_3
REMARK    2  A    between atoms: C_2  and  C_4
REMARK    3  A    between atoms: C_4  and  C_5
REMARK    4  A    between atoms: N_11  and  C_12
REMARK    5  A    between atoms: C_12  and  C_13
REMARK    6  A    between atoms: C_13  and  C_14
REMARK    7  A    between atoms: C_14  and  C_15
REMARK                            x       y       z     vdW  Elec       q    Type
REMARK                         _______ _______ _______ _____ _____    ______ ____
ROOT
ATOM      1  C   UNL     1       6.110   4.794  17.914  0.00  0.00    +0.000 C 
ATOM      2  C   UNL     1       7.151   4.383  16.842  0.00  0.00    +0.000 C 
ATOM      3  O   UNL     1       8.339   4.215  17.146  0.00  0.00    +0.000 OA
ATOM      4  N   UNL     1       6.760   4.182  15.556  0.00  0.00    +0.000 N 
ATOM      5  C   UNL     1       5.442   4.541  15.103  0.00  0.00    +0.000 C 
ATOM      6  C   UNL     1       4.412   4.297  16.206  0.00  0.00    +0.000 C 
ATOM      7  N   UNL     1       4.711   5.057  17.435  0.00  0.00    +0.000 NA
ATOM      8  H   UNL     1       7.502   3.999  14.891  0.00  0.00    +0.000 HD
ENDROOT
BRANCH   1   9
ATOM      9  C   UNL     1       6.804   5.793  18.856  0.00  0.00    +0.000 C 
BRANCH   9  11
ATOM     10  O   UNL     1       8.458   7.541  18.665  0.00  0.00    +0.000 OA
ATOM     11  C   UNL     1       7.581   6.876  18.136  0.00  0.00    +0.000 C 
BRANCH  11  12
ATOM     12  O   UNL     1       7.235   7.056  16.846  0.00  0.00    +0.000 OA
ATOM     13  H   UNL     1       7.575   6.364  16.227  0.00  0.00    +0.000 HD
ENDBRANCH  11  12
ENDBRANCH   9  11
ENDBRANCH   1   9
BRANCH   7  14
ATOM     14  C   UNL     1       4.261   6.455  17.390  0.00  0.00    +0.000 C 
BRANCH  14  15
ATOM     15  C   UNL     1       2.847   6.706  17.974  0.00  0.00    +0.000 C 
BRANCH  15  16
ATOM     16  C   UNL     1       2.747   6.439  19.483  0.00  0.00    +0.000 C 
BRANCH  16  17
ATOM     17  C   UNL     1       2.191   5.065  19.804  0.00  0.00    +0.000 A 
ATOM     18  C   UNL     1       2.257   4.558  21.111  0.00  0.00    +0.000 A 
ATOM     19  C   UNL     1       1.726   3.300  21.416  0.00  0.00    +0.000 A 
ATOM     20  C   UNL     1       1.133   2.531  20.416  0.00  0.00    +0.000 A 
ATOM     21  C   UNL     1       1.069   3.020  19.113  0.00  0.00    +0.000 A 
ATOM     22  C   UNL     1       1.597   4.280  18.809  0.00  0.00    +0.000 A 
ENDBRANCH  16  17
ENDBRANCH  15  16
ENDBRANCH  14  15
ENDBRANCH   7  14
TORSDOF 7
ENDMDL
MODEL 8
REMARK VINA RESULT:      -6.8      2.368      3.516
REMARK  Name = 
REMARK  7 active torsions:
REMARK  status: ('A' for Active; 'I' for Inactive)
REMARK    1  A    between atoms: C_2  and  O_3
REMARK    2  A    between atoms: C_2  and  C_4
REMARK    3  A    between atoms: C_4  and  C_5
REMARK    4  A    between atoms: N_11  and  C_12
REMARK    5  A    between atoms: C_12  and  C_13
REMARK    6  A    between atoms: C_13  and  C_14
REMARK    7  A    between atoms: C_14  and  C_15
REMARK                            x       y       z     vdW  Elec       q    Type
REMARK                         _______ _______ _______ _____ _____    ______ ____
ROOT
ATOM      1  C   UNL     1       6.267   5.137  16.865  0.00  0.00    +0.000 C 
ATOM      2  C   UNL     1       6.993   4.904  18.215  0.00  0.00    +0.000 C 
ATOM      3  O   UNL     1       8.193   4.601  18.245  0.00  0.00    +0.000 OA
ATOM      4  N   UNL     1       6.318   5.055  19.385  0.00  0.00    +0.000 N 
ATOM      5  C   UNL     1       4.888   5.220  19.415  0.00  0.00    +0.000 C 
ATOM      6  C   UNL     1       4.417   6.038  18.212  0.00  0.00    +0.000 C 
ATOM      7  N   UNL     1       4.794   5.418  16.927  0.00  0.00    +0.000 NA
ATOM      8  H   UNL     1       6.826   4.806  20.225  0.00  0.00    +0.000 HD
ENDROOT
BRANCH   1   9
ATOM      9  C   UNL     1       6.814   4.094  15.875  0.00  0.00    +0.000 C 
BRANCH   9  11
ATOM     10  O   UNL     1       7.749   5.512  14.160  0.00  0.00    +0.000 OA
ATOM     11  C   UNL     1       6.977   4.616  14.462  0.00  0.00    +0.000 C 
BRANCH  11  12
ATOM     12  O   UNL     1       6.200   4.009  13.543  0.00  0.00    +0.000 OA
ATOM     13  H   UNL     1       6.672   3.738  12.717  0.00  0.00    +0.000 HD
ENDBRANCH  11  12
ENDBRANCH   9  11
ENDBRANCH   1   9
BRANCH   7  14
ATOM     14  C   UNL     1       3.882   4.350  16.496  0.00  0.00    +0.000 C 
BRANCH  14  15
ATOM     15  C   UNL     1       4.127   2.971  17.162  0.00  0.00    +0.000 C 
BRANCH  15  16
ATOM     16  C   UNL     1       2.836   2.256  17.589  0.00  0.00    +0.000 C 
BRANCH  16  17
ATOM     17  C   UNL     1       2.370   2.656  18.975  0.00  0.00    +0.000 A 
ATOM     18  C   UNL     1       3.068   2.223  20.113  0.00  0.00    +0.000 A 
ATOM     19  C   UNL     1       2.653   2.607  21.393  0.00  0.00    +0.000 A 
ATOM     20  C   UNL     1       1.532   3.419  21.550  0.00  0.00    +0.000 A 
ATOM     21  C   UNL     1       0.826   3.849  20.428  0.00  0.00    +0.000 A 
ATOM     22  C   UNL     1       1.243   3.468  19.148  0.00  0.00    +0.000 A 
ENDBRANCH  16  17
ENDBRANCH  15  16
ENDBRANCH  14  15
ENDBRANCH   7  14
TORSDOF 7
ENDMDL
MODEL 9
REMARK VINA RESULT:      -6.8      2.272      3.327
REMARK  Name = 
REMARK  7 active torsions:
REMARK  status: ('A' for Active; 'I' for Inactive)
REMARK    1  A    between atoms: C_2  and  O_3
REMARK    2  A    between atoms: C_2  and  C_4
REMARK    3  A    between atoms: C_4  and  C_5
REMARK    4  A    between atoms: N_11  and  C_12
REMARK    5  A    between atoms: C_12  and  C_13
REMARK    6  A    between atoms: C_13  and  C_14
REMARK    7  A    between atoms: C_14  and  C_15
REMARK                            x       y       z     vdW  Elec       q    Type
REMARK                         _______ _______ _______ _____ _____    ______ ____
ROOT
ATOM      1  C   UNL     1       6.641   4.996  17.379  0.00  0.00    +0.000 C 
ATOM      2  C   UNL     1       7.062   5.950  16.232  0.00  0.00    +0.000 C 
ATOM      3  O   UNL     1       7.822   6.902  16.448  0.00  0.00    +0.000 OA
ATOM      4  N   UNL     1       6.615   5.732  14.967  0.00  0.00    +0.000 N 
ATOM      5  C   UNL     1       5.588   4.763  14.686  0.00  0.00    +0.000 C 
ATOM      6  C   UNL     1       5.727   3.552  15.611  0.00  0.00    +0.000 C 
ATOM      7  N   UNL     1       5.650   3.921  17.037  0.00  0.00    +0.000 NA
ATOM      8  H   UNL     1       6.858   6.438  14.283  0.00  0.00    +0.000 HD
ENDROOT
BRANCH   1   9
ATOM      9  C   UNL     1       6.437   5.864  18.634  0.00  0.00    +0.000 C 
BRANCH   9  11
ATOM     10  O   UNL     1       7.864   5.189  20.459  0.00  0.00    +0.000 OA
ATOM     11  C   UNL     1       7.658   5.949  19.525  0.00  0.00    +0.000 C 
BRANCH  11  12
ATOM     12  O   UNL     1       8.521   6.935  19.208  0.00  0.00    +0.000 OA
ATOM     13  H   UNL     1       9.476   6.691  19.296  0.00  0.00    +0.000 HD
ENDBRANCH  11  12
ENDBRANCH   9  11
ENDBRANCH   1   9
BRANCH   7  14
ATOM     14  C   UNL     1       4.277   4.081  17.533  0.00  0.00    +0.000 C 
BRANCH  14  15
ATOM     15  C   UNL     1       3.206   3.255  16.775  0.00  0.00    +0.000 C 
BRANCH  15  16
ATOM     16  C   UNL     1       2.572   2.143  17.624  0.00  0.00    +0.000 C 
BRANCH  16  17
ATOM     17  C   UNL     1       2.289   2.577  19.049  0.00  0.00    +0.000 A 
ATOM     18  C   UNL     1       3.142   2.188  20.094  0.00  0.00    +0.000 A 
ATOM     19  C   UNL     1       2.896   2.603  21.408  0.00  0.00    +0.000 A 
ATOM     20  C   UNL     1       1.791   3.403  21.693  0.00  0.00    +0.000 A 
ATOM     21  C   UNL     1       0.933   3.789  20.665  0.00  0.00    +0.000 A 
ATOM     22  C   UNL     1       1.180   3.377  19.351  0.00  0.00    +0.000 A 
ENDBRANCH  16  17
ENDBRANCH  15  16
ENDBRANCH  14  15
ENDBRANCH   7  14
TORSDOF 7
ENDMDL
