MODEL 1
REMARK VINA RESULT:      -8.3      0.000      0.000
REMARK  Name = 
REMARK  6 active torsions:
REMARK  status: ('A' for Active; 'I' for Inactive)
REMARK    1  A    between atoms: C_1  and  O_2
REMARK    2  A    between atoms: O_2  and  C_3
REMARK    3  A    between atoms: C_5  and  C_6
REMARK    4  A    between atoms: C_23  and  O_24
REMARK    5  A    between atoms: O_24  and  C_25
REMARK    6  A    between atoms: C_25  and  C_26
REMARK                            x       y       z     vdW  Elec       q    Type
REMARK                         _______ _______ _______ _____ _____    ______ ____
ROOT
ATOM      1  C   UNL     1       5.536   4.847  17.819  0.00  0.00    +0.000 A 
ATOM      2  C   UNL     1       4.672   5.430  18.901  0.00  0.00    +0.000 A 
ATOM      3  C   UNL     1       3.226   5.234  19.034  0.00  0.00    +0.000 A 
ATOM      4  C   UNL     1       2.829   4.357  17.985  0.00  0.00    +0.000 A 
ATOM      5  C   UNL     1       3.653   3.799  16.948  0.00  0.00    +0.000 A 
ATOM      6  C   UNL     1       5.000   4.074  16.793  0.00  0.00    +0.000 A 
ENDROOT
BRANCH   3   7
ATOM      7  C   UNL     1       2.154   6.010  20.267  0.00  0.00    +0.000 C 
ATOM      8  O   UNL     1       1.774   5.303  21.202  0.00  0.00    +0.000 OA
ATOM      9  N   UNL     1       1.710   7.479  20.113  0.00  0.00    +0.000 N 
ATOM     10  C   UNL     1       2.238   7.986  18.904  0.00  0.00    +0.000 C 
ATOM     11  C   UNL     1       1.763   9.237  18.249  0.00  0.00    +0.000 C 
ATOM     12  N   UNL     1       1.435  10.313  19.118  0.00  0.00    +0.000 N 
ATOM     13  C   UNL     1       0.754  11.392  18.391  0.00  0.00    +0.000 C 
ATOM     14  C   UNL     1       0.093  12.468  19.209  0.00  0.00    +0.000 C 
ATOM     15  O   UNL     1       0.242  12.335  20.621  0.00  0.00    +0.000 OA
ATOM     16  C   UNL     1       0.194  11.030  21.045  0.00  0.00    +0.000 A 
ATOM     17  C   UNL     1      -0.435  10.844  22.256  0.00  0.00    +0.000 A 
ATOM     18  C   UNL     1      -0.368   9.547  22.803  0.00  0.00    +0.000 A 
ATOM     19  C   UNL     1       0.306   8.459  22.175  0.00  0.00    +0.000 A 
ATOM     20  C   UNL     1       0.938   8.565  20.924  0.00  0.00    +0.000 A 
ATOM     21  C   UNL     1       0.831   9.937  20.350  0.00  0.00    +0.000 A 
ENDBRANCH   3   7
BRANCH   1  23
ATOM     22  C   UNL     1       7.589   5.963  18.424  0.00  0.00    +0.000 C 
ATOM     23  O   UNL     1       6.887   5.002  17.667  0.00  0.00    +0.000 OA
ENDBRANCH   1  23
BRANCH   6  24
ATOM     24  O   UNL     1       5.493   3.625  15.609  0.00  0.00    +0.000 OA
BRANCH  24  25
ATOM     25  C   UNL     1       5.894   4.155  14.350  0.00  0.00    +0.000 C 
BRANCH  25  26
ATOM     26  C   UNL     1       7.178   4.920  13.848  0.00  0.00    +0.000 C 
ATOM     27  N   UNL     1       7.511   4.842  12.544  0.00  0.00    +0.000 N 
ATOM     28  O   UNL     1       7.898   5.588  14.639  0.00  0.00    +0.000 OA
ATOM     29  H   UNL     1       6.822   4.481  11.884  0.00  0.00    +0.000 HD
ATOM     30  H   UNL     1       8.283   5.412  12.227  0.00  0.00    +0.000 HD
ENDBRANCH  25  26
ENDBRANCH  24  25
ENDBRANCH   6  24
TORSDOF 5
ENDMDL
MODEL 2
REMARK VINA RESULT:      -8.3      0.947      1.138
REMARK  Name = 
REMARK  6 active torsions:
REMARK  status: ('A' for Active; 'I' for Inactive)
REMARK    1  A    between atoms: C_1  and  O_2
REMARK    2  A    between atoms: O_2  and  C_3
REMARK    3  A    between atoms: C_5  and  C_6
REMARK    4  A    between atoms: C_23  and  O_24
REMARK    5  A    between atoms: O_24  and  C_25
REMARK    6  A    between atoms: C_25  and  C_26
REMARK                            x       y       z     vdW  Elec       q    Type
REMARK                         _______ _______ _______ _____ _____    ______ ____
ROOT
ATOM      1  C   UNL     1       5.692   5.096  17.572  0.00  0.00    +0.000 A 
ATOM      2  C   UNL     1       4.809   5.630  18.663  0.00  0.00    +0.000 A 
ATOM      3  C   UNL     1       3.404   5.271  18.874  0.00  0.00    +0.000 A 
ATOM      4  C   UNL     1       3.073   4.297  17.890  0.00  0.00    +0.000 A 
ATOM      5  C   UNL     1       3.915   3.785  16.844  0.00  0.00    +0.000 A 
ATOM      6  C   UNL     1       5.211   4.210  16.611  0.00  0.00    +0.000 A 
ENDROOT
BRANCH   3   7
ATOM      7  C   UNL     1       2.298   5.981  20.117  0.00  0.00    +0.000 C 
ATOM      8  O   UNL     1       1.947   5.243  21.041  0.00  0.00    +0.000 OA
ATOM      9  N   UNL     1       1.791   7.432  19.987  0.00  0.00    +0.000 N 
ATOM     10  C   UNL     1       2.300   7.980  18.786  0.00  0.00    +0.000 C 
ATOM     11  C   UNL     1       1.772   9.220  18.150  0.00  0.00    +0.000 C 
ATOM     12  N   UNL     1       1.398  10.268  19.036  0.00  0.00    +0.000 N 
ATOM     13  C   UNL     1       0.672  11.328  18.325  0.00  0.00    +0.000 C 
ATOM     14  C   UNL     1      -0.036  12.361  19.159  0.00  0.00    +0.000 C 
ATOM     15  O   UNL     1       0.117  12.212  20.568  0.00  0.00    +0.000 OA
ATOM     16  C   UNL     1       0.124  10.899  20.972  0.00  0.00    +0.000 A 
ATOM     17  C   UNL     1      -0.498  10.667  22.178  0.00  0.00    +0.000 A 
ATOM     18  C   UNL     1      -0.377   9.366  22.704  0.00  0.00    +0.000 A 
ATOM     19  C   UNL     1       0.344   8.318  22.061  0.00  0.00    +0.000 A 
ATOM     20  C   UNL     1       0.972   8.471  20.813  0.00  0.00    +0.000 A 
ATOM     21  C   UNL     1       0.808   9.846  20.261  0.00  0.00    +0.000 A 
ENDBRANCH   3   7
BRANCH   1  23
ATOM     22  C   UNL     1       7.454   6.737  17.415  0.00  0.00    +0.000 C 
ATOM     23  O   UNL     1       7.007   5.401  17.348  0.00  0.00    +0.000 OA
ENDBRANCH   1  23
BRANCH   6  24
ATOM     24  O   UNL     1       5.705   3.758  15.429  0.00  0.00    +0.000 OA
BRANCH  24  25
ATOM     25  C   UNL     1       5.800   4.192  14.077  0.00  0.00    +0.000 C 
BRANCH  25  26
ATOM     26  C   UNL     1       5.621   3.472  12.685  0.00  0.00    +0.000 C 
ATOM     27  N   UNL     1       6.662   2.784  12.173  0.00  0.00    +0.000 N 
ATOM     28  O   UNL     1       4.537   3.538  12.044  0.00  0.00    +0.000 OA
ATOM     29  H   UNL     1       7.449   2.564  12.782  0.00  0.00    +0.000 HD
ATOM     30  H   UNL     1       6.497   2.256  11.327  0.00  0.00    +0.000 HD
ENDBRANCH  25  26
ENDBRANCH  24  25
ENDBRANCH   6  24
TORSDOF 5
ENDMDL
MODEL 3
REMARK VINA RESULT:      -8.0      2.860      9.805
REMARK  Name = 
REMARK  6 active torsions:
REMARK  status: ('A' for Active; 'I' for Inactive)
REMARK    1  A    between atoms: C_1  and  O_2
REMARK    2  A    between atoms: O_2  and  C_3
REMARK    3  A    between atoms: C_5  and  C_6
REMARK    4  A    between atoms: C_23  and  O_24
REMARK    5  A    between atoms: O_24  and  C_25
REMARK    6  A    between atoms: C_25  and  C_26
REMARK                            x       y       z     vdW  Elec       q    Type
REMARK                         _______ _______ _______ _____ _____    ______ ____
ROOT
ATOM      1  C   UNL     1      -1.398  11.168  19.587  0.00  0.00    +0.000 A 
ATOM      2  C   UNL     1      -0.445  10.353  18.760  0.00  0.00    +0.000 A 
ATOM      3  C   UNL     1       0.835   9.810  19.223  0.00  0.00    +0.000 A 
ATOM      4  C   UNL     1       0.960  10.159  20.598  0.00  0.00    +0.000 A 
ATOM      5  C   UNL     1       0.051  10.939  21.391  0.00  0.00    +0.000 A 
ATOM      6  C   UNL     1      -1.108  11.518  20.903  0.00  0.00    +0.000 A 
ENDROOT
BRANCH   3   7
ATOM      7  C   UNL     1       2.041   8.917  18.213  0.00  0.00    +0.000 C 
ATOM      8  O   UNL     1       2.408   9.459  17.168  0.00  0.00    +0.000 OA
ATOM      9  N   UNL     1       2.542   7.520  18.634  0.00  0.00    +0.000 N 
ATOM     10  C   UNL     1       1.875   7.141  19.822  0.00  0.00    +0.000 C 
ATOM     11  C   UNL     1       1.838   5.747  20.347  0.00  0.00    +0.000 C 
ATOM     12  N   UNL     1       3.036   4.993  20.207  0.00  0.00    +0.000 N 
ATOM     13  C   UNL     1       2.812   3.578  20.527  0.00  0.00    +0.000 C 
ATOM     14  C   UNL     1       3.897   2.604  20.158  0.00  0.00    +0.000 C 
ATOM     15  O   UNL     1       5.058   3.184  19.567  0.00  0.00    +0.000 OA
ATOM     16  C   UNL     1       4.766   4.230  18.725  0.00  0.00    +0.000 A 
ATOM     17  C   UNL     1       5.571   4.311  17.612  0.00  0.00    +0.000 A 
ATOM     18  C   UNL     1       5.410   5.456  16.806  0.00  0.00    +0.000 A 
ATOM     19  C   UNL     1       4.482   6.500  17.093  0.00  0.00    +0.000 A 
ATOM     20  C   UNL     1       3.605   6.468  18.189  0.00  0.00    +0.000 A 
ATOM     21  C   UNL     1       3.770   5.236  19.013  0.00  0.00    +0.000 A 
ENDBRANCH   3   7
BRANCH   1  23
ATOM     22  C   UNL     1      -3.098  11.437  17.896  0.00  0.00    +0.000 C 
ATOM     23  O   UNL     1      -2.602  11.684  19.193  0.00  0.00    +0.000 OA
ENDBRANCH   1  23
BRANCH   6  24
ATOM     24  O   UNL     1      -1.661  12.398  21.778  0.00  0.00    +0.000 OA
BRANCH  24  25
ATOM     25  C   UNL     1      -2.398  12.372  22.995  0.00  0.00    +0.000 C 
BRANCH  25  26
ATOM     26  C   UNL     1      -3.937  12.379  23.339  0.00  0.00    +0.000 C 
ATOM     27  N   UNL     1      -4.316  12.209  24.622  0.00  0.00    +0.000 N 
ATOM     28  O   UNL     1      -4.811  12.529  22.442  0.00  0.00    +0.000 OA
ATOM     29  H   UNL     1      -3.612  12.297  25.355  0.00  0.00    +0.000 HD
ATOM     30  H   UNL     1      -5.299  12.308  24.833  0.00  0.00    +0.000 HD
ENDBRANCH  25  26
ENDBRANCH  24  25
ENDBRANCH   6  24
TORSDOF 5
ENDMDL
MODEL 4
REMARK VINA RESULT:      -7.7      2.778      9.733
REMARK  Name = 
REMARK  6 active torsions:
REMARK  status: ('A' for Active; 'I' for Inactive)
REMARK    1  A    between atoms: C_1  and  O_2
REMARK    2  A    between atoms: O_2  and  C_3
REMARK    3  A    between atoms: C_5  and  C_6
REMARK    4  A    between atoms: C_23  and  O_24
REMARK    5  A    between atoms: O_24  and  C_25
REMARK    6  A    between atoms: C_25  and  C_26
REMARK                            x       y       z     vdW  Elec       q    Type
REMARK                         _______ _______ _______ _____ _____    ______ ____
ROOT
ATOM      1  C   UNL     1      -0.733  11.634  20.473  0.00  0.00    +0.000 A 
ATOM      2  C   UNL     1       0.110  10.902  19.468  0.00  0.00    +0.000 A 
ATOM      3  C   UNL     1       0.811   9.637  19.705  0.00  0.00    +0.000 A 
ATOM      4  C   UNL     1       0.492   9.228  21.031  0.00  0.00    +0.000 A 
ATOM      5  C   UNL     1      -0.313   9.927  21.995  0.00  0.00    +0.000 A 
ATOM      6  C   UNL     1      -0.889  11.167  21.775  0.00  0.00    +0.000 A 
ENDROOT
BRANCH   3   7
ATOM      7  C   UNL     1       1.912   8.795  18.543  0.00  0.00    +0.000 C 
ATOM      8  O   UNL     1       2.168   9.382  17.489  0.00  0.00    +0.000 OA
ATOM      9  N   UNL     1       2.459   7.387  18.853  0.00  0.00    +0.000 N 
ATOM     10  C   UNL     1       1.917   6.955  20.086  0.00  0.00    +0.000 C 
ATOM     11  C   UNL     1       1.940   5.540  20.554  0.00  0.00    +0.000 C 
ATOM     12  N   UNL     1       3.120   4.803  20.263  0.00  0.00    +0.000 N 
ATOM     13  C   UNL     1       2.936   3.374  20.546  0.00  0.00    +0.000 C 
ATOM     14  C   UNL     1       3.982   2.425  20.029  0.00  0.00    +0.000 C 
ATOM     15  O   UNL     1       5.074   3.038  19.348  0.00  0.00    +0.000 OA
ATOM     16  C   UNL     1       4.694   4.115  18.584  0.00  0.00    +0.000 A 
ATOM     17  C   UNL     1       5.381   4.247  17.399  0.00  0.00    +0.000 A 
ATOM     18  C   UNL     1       5.135   5.422  16.661  0.00  0.00    +0.000 A 
ATOM     19  C   UNL     1       4.236   6.446  17.083  0.00  0.00    +0.000 A 
ATOM     20  C   UNL     1       3.475   6.362  18.260  0.00  0.00    +0.000 A 
ATOM     21  C   UNL     1       3.729   5.100  19.011  0.00  0.00    +0.000 A 
ENDBRANCH   3   7
BRANCH   1  23
ATOM     22  C   UNL     1      -0.723  14.044  20.337  0.00  0.00    +0.000 C 
ATOM     23  O   UNL     1      -1.406  12.811  20.287  0.00  0.00    +0.000 OA
ENDBRANCH   1  23
BRANCH   6  24
ATOM     24  O   UNL     1      -1.390  11.719  22.911  0.00  0.00    +0.000 OA
BRANCH  24  25
ATOM     25  C   UNL     1      -2.543  12.442  23.327  0.00  0.00    +0.000 C 
BRANCH  25  26
ATOM     26  C   UNL     1      -4.011  12.570  22.766  0.00  0.00    +0.000 C 
ATOM     27  N   UNL     1      -4.184  12.886  21.466  0.00  0.00    +0.000 N 
ATOM     28  O   UNL     1      -5.017  12.396  23.507  0.00  0.00    +0.000 OA
ATOM     29  H   UNL     1      -3.384  12.820  20.837  0.00  0.00    +0.000 HD
ATOM     30  H   UNL     1      -5.129  12.873  21.107  0.00  0.00    +0.000 HD
ENDBRANCH  25  26
ENDBRANCH  24  25
ENDBRANCH   6  24
TORSDOF 5
ENDMDL
MODEL 5
REMARK VINA RESULT:      -7.7      3.156      4.706
REMARK  Name = 
REMARK  6 active torsions:
REMARK  status: ('A' for Active; 'I' for Inactive)
REMARK    1  A    between atoms: C_1  and  O_2
REMARK    2  A    between atoms: O_2  and  C_3
REMARK    3  A    between atoms: C_5  and  C_6
REMARK    4  A    between atoms: C_23  and  O_24
REMARK    5  A    between atoms: O_24  and  C_25
REMARK    6  A    between atoms: C_25  and  C_26
REMARK                            x       y       z     vdW  Elec       q    Type
REMARK                         _______ _______ _______ _____ _____    ______ ____
ROOT
ATOM      1  C   UNL     1       2.838   4.016  18.616  0.00  0.00    +0.000 A 
ATOM      2  C   UNL     1       2.259   5.369  18.315  0.00  0.00    +0.000 A 
ATOM      3  C   UNL     1       2.980   6.642  18.401  0.00  0.00    +0.000 A 
ATOM      4  C   UNL     1       4.322   6.334  18.766  0.00  0.00    +0.000 A 
ATOM      5  C   UNL     1       4.878   5.042  19.056  0.00  0.00    +0.000 A 
ATOM      6  C   UNL     1       4.150   3.864  19.056  0.00  0.00    +0.000 A 
ENDROOT
BRANCH   3   7
ATOM      7  C   UNL     1       2.273   8.287  18.144  0.00  0.00    +0.000 C 
ATOM      8  O   UNL     1       2.546   8.854  17.084  0.00  0.00    +0.000 OA
ATOM      9  N   UNL     1       1.407   8.953  19.233  0.00  0.00    +0.000 N 
ATOM     10  C   UNL     1       1.352   8.092  20.353  0.00  0.00    +0.000 C 
ATOM     11  C   UNL     1       0.901   8.519  21.708  0.00  0.00    +0.000 C 
ATOM     12  N   UNL     1      -0.191   9.428  21.747  0.00  0.00    +0.000 N 
ATOM     13  C   UNL     1      -0.387   9.964  23.100  0.00  0.00    +0.000 C 
ATOM     14  C   UNL     1      -1.309  11.143  23.251  0.00  0.00    +0.000 C 
ATOM     15  O   UNL     1      -1.931  11.586  22.047  0.00  0.00    +0.000 OA
ATOM     16  C   UNL     1      -1.103  11.505  20.954  0.00  0.00    +0.000 A 
ATOM     17  C   UNL     1      -1.251  12.528  20.046  0.00  0.00    +0.000 A 
ATOM     18  C   UNL     1      -0.537  12.401  18.838  0.00  0.00    +0.000 A 
ATOM     19  C   UNL     1       0.300  11.289  18.529  0.00  0.00    +0.000 A 
ATOM     20  C   UNL     1       0.528  10.228  19.420  0.00  0.00    +0.000 A 
ATOM     21  C   UNL     1      -0.214  10.395  20.703  0.00  0.00    +0.000 A 
ENDBRANCH   3   7
BRANCH   1  23
ATOM     22  C   UNL     1       0.913   2.641  19.096  0.00  0.00    +0.000 C 
ATOM     23  O   UNL     1       2.199   2.809  18.541  0.00  0.00    +0.000 OA
ENDBRANCH   1  23
BRANCH   6  24
ATOM     24  O   UNL     1       4.838   2.824  19.594  0.00  0.00    +0.000 OA
BRANCH  24  25
ATOM     25  C   UNL     1       4.665   1.841  20.608  0.00  0.00    +0.000 C 
BRANCH  25  26
ATOM     26  C   UNL     1       5.565   0.665  21.152  0.00  0.00    +0.000 C 
ATOM     27  N   UNL     1       5.767  -0.413  20.368  0.00  0.00    +0.000 N 
ATOM     28  O   UNL     1       6.083   0.709  22.301  0.00  0.00    +0.000 OA
ATOM     29  H   UNL     1       5.524  -0.350  19.379  0.00  0.00    +0.000 HD
ATOM     30  H   UNL     1       6.419  -1.111  20.697  0.00  0.00    +0.000 HD
ENDBRANCH  25  26
ENDBRANCH  24  25
ENDBRANCH   6  24
TORSDOF 5
ENDMDL
MODEL 6
REMARK VINA RESULT:      -7.6      1.371      1.948
REMARK  Name = 
REMARK  6 active torsions:
REMARK  status: ('A' for Active; 'I' for Inactive)
REMARK    1  A    between atoms: C_1  and  O_2
REMARK    2  A    between atoms: O_2  and  C_3
REMARK    3  A    between atoms: C_5  and  C_6
REMARK    4  A    between atoms: C_23  and  O_24
REMARK    5  A    between atoms: O_24  and  C_25
REMARK    6  A    between atoms: C_25  and  C_26
REMARK                            x       y       z     vdW  Elec       q    Type
REMARK                         _______ _______ _______ _____ _____    ______ ____
ROOT
ATOM      1  C   UNL     1       3.576   4.201  17.484  0.00  0.00    +0.000 A 
ATOM      2  C   UNL     1       2.718   4.807  18.558  0.00  0.00    +0.000 A 
ATOM      3  C   UNL     1       2.694   6.224  18.929  0.00  0.00    +0.000 A 
ATOM      4  C   UNL     1       3.587   6.899  18.049  0.00  0.00    +0.000 A 
ATOM      5  C   UNL     1       4.409   6.322  17.021  0.00  0.00    +0.000 A 
ATOM      6  C   UNL     1       4.481   4.965  16.753  0.00  0.00    +0.000 A 
ENDROOT
BRANCH   3   7
ATOM      7  C   UNL     1       1.746   6.954  20.286  0.00  0.00    +0.000 C 
ATOM      8  O   UNL     1       1.523   6.236  21.263  0.00  0.00    +0.000 OA
ATOM      9  N   UNL     1       1.210   8.397  20.187  0.00  0.00    +0.000 N 
ATOM     10  C   UNL     1       1.555   8.921  18.919  0.00  0.00    +0.000 C 
ATOM     11  C   UNL     1       0.938  10.140  18.327  0.00  0.00    +0.000 C 
ATOM     12  N   UNL     1       0.666  11.206  19.228  0.00  0.00    +0.000 N 
ATOM     13  C   UNL     1      -0.156  12.242  18.591  0.00  0.00    +0.000 C 
ATOM     14  C   UNL     1      -0.765  13.289  19.484  0.00  0.00    +0.000 C 
ATOM     15  O   UNL     1      -0.433  13.176  20.865  0.00  0.00    +0.000 OA
ATOM     16  C   UNL     1      -0.360  11.873  21.295  0.00  0.00    +0.000 A 
ATOM     17  C   UNL     1      -0.821  11.665  22.575  0.00  0.00    +0.000 A 
ATOM     18  C   UNL     1      -0.619  10.379  23.112  0.00  0.00    +0.000 A 
ATOM     19  C   UNL     1       0.027   9.321  22.407  0.00  0.00    +0.000 A 
ATOM     20  C   UNL     1       0.490   9.449  21.086  0.00  0.00    +0.000 A 
ATOM     21  C   UNL     1       0.241  10.809  20.527  0.00  0.00    +0.000 A 
ENDBRANCH   3   7
BRANCH   1  23
ATOM     22  C   UNL     1       3.209   1.870  17.992  0.00  0.00    +0.000 C 
ATOM     23  O   UNL     1       3.621   2.887  17.105  0.00  0.00    +0.000 OA
ENDBRANCH   1  23
BRANCH   6  24
ATOM     24  O   UNL     1       5.500   4.652  15.912  0.00  0.00    +0.000 OA
BRANCH  24  25
ATOM     25  C   UNL     1       5.697   4.381  14.528  0.00  0.00    +0.000 C 
BRANCH  25  26
ATOM     26  C   UNL     1       6.895   4.619  13.530  0.00  0.00    +0.000 C 
ATOM     27  N   UNL     1       7.845   5.517  13.859  0.00  0.00    +0.000 N 
ATOM     28  O   UNL     1       6.972   3.999  12.434  0.00  0.00    +0.000 OA
ATOM     29  H   UNL     1       7.887   5.853  14.821  0.00  0.00    +0.000 HD
ATOM     30  H   UNL     1       8.649   5.587  13.250  0.00  0.00    +0.000 HD
ENDBRANCH  25  26
ENDBRANCH  24  25
ENDBRANCH   6  24
TORSDOF 5
ENDMDL
MODEL 7
REMARK VINA RESULT:      -7.6      2.830      9.512
REMARK  Name = 
REMARK  6 active torsions:
REMARK  status: ('A' for Active; 'I' for Inactive)
REMARK    1  A    between atoms: C_1  and  O_2
REMARK    2  A    between atoms: O_2  and  C_3
REMARK    3  A    between atoms: C_5  and  C_6
REMARK    4  A    between atoms: C_23  and  O_24
REMARK    5  A    between atoms: O_24  and  C_25
REMARK    6  A    between atoms: C_25  and  C_26
REMARK                            x       y       z     vdW  Elec       q    Type
REMARK                         _______ _______ _______ _____ _____    ______ ____
ROOT
ATOM      1  C   UNL     1      -1.206  11.214  20.262  0.00  0.00    +0.000 A 
ATOM      2  C   UNL     1      -0.340  10.451  19.302  0.00  0.00    +0.000 A 
ATOM      3  C   UNL     1       0.829   9.645  19.665  0.00  0.00    +0.000 A 
ATOM      4  C   UNL     1       0.938   9.688  21.084  0.00  0.00    +0.000 A 
ATOM      5  C   UNL     1       0.111  10.418  22.005  0.00  0.00    +0.000 A 
ATOM      6  C   UNL     1      -0.931  11.246  21.627  0.00  0.00    +0.000 A 
ENDROOT
BRANCH   3   7
ATOM      7  C   UNL     1       1.943   8.805  18.514  0.00  0.00    +0.000 C 
ATOM      8  O   UNL     1       2.215   9.395  17.466  0.00  0.00    +0.000 OA
ATOM      9  N   UNL     1       2.484   7.394  18.826  0.00  0.00    +0.000 N 
ATOM     10  C   UNL     1       1.926   6.959  20.050  0.00  0.00    +0.000 C 
ATOM     11  C   UNL     1       1.939   5.542  20.513  0.00  0.00    +0.000 C 
ATOM     12  N   UNL     1       3.122   4.804  20.235  0.00  0.00    +0.000 N 
ATOM     13  C   UNL     1       2.931   3.374  20.510  0.00  0.00    +0.000 C 
ATOM     14  C   UNL     1       3.982   2.425  20.002  0.00  0.00    +0.000 C 
ATOM     15  O   UNL     1       5.084   3.039  19.338  0.00  0.00    +0.000 OA
ATOM     16  C   UNL     1       4.716   4.119  18.573  0.00  0.00    +0.000 A 
ATOM     17  C   UNL     1       5.419   4.255  17.397  0.00  0.00    +0.000 A 
ATOM     18  C   UNL     1       5.184   5.432  16.661  0.00  0.00    +0.000 A 
ATOM     19  C   UNL     1       4.282   6.457  17.075  0.00  0.00    +0.000 A 
ATOM     20  C   UNL     1       3.505   6.370  18.242  0.00  0.00    +0.000 A 
ATOM     21  C   UNL     1       3.747   5.104  18.992  0.00  0.00    +0.000 A 
ENDBRANCH   3   7
BRANCH   1  23
ATOM     22  C   UNL     1      -2.964  11.820  18.724  0.00  0.00    +0.000 C 
ATOM     23  O   UNL     1      -2.306  11.970  19.963  0.00  0.00    +0.000 OA
ENDBRANCH   1  23
BRANCH   6  24
ATOM     24  O   UNL     1      -1.395  12.004  22.654  0.00  0.00    +0.000 OA
BRANCH  24  25
ATOM     25  C   UNL     1      -1.371  13.364  23.072  0.00  0.00    +0.000 C 
BRANCH  25  26
ATOM     26  C   UNL     1      -0.433  14.590  22.746  0.00  0.00    +0.000 C 
ATOM     27  N   UNL     1      -0.087  14.819  21.463  0.00  0.00    +0.000 N 
ATOM     28  O   UNL     1       0.005  15.344  23.657  0.00  0.00    +0.000 OA
ATOM     29  H   UNL     1      -0.604  14.341  20.725  0.00  0.00    +0.000 HD
ATOM     30  H   UNL     1       0.438  15.660  21.267  0.00  0.00    +0.000 HD
ENDBRANCH  25  26
ENDBRANCH  24  25
ENDBRANCH   6  24
TORSDOF 5
ENDMDL
MODEL 8
REMARK VINA RESULT:      -7.5      2.837      9.647
REMARK  Name = 
REMARK  6 active torsions:
REMARK  status: ('A' for Active; 'I' for Inactive)
REMARK    1  A    between atoms: C_1  and  O_2
REMARK    2  A    between atoms: O_2  and  C_3
REMARK    3  A    between atoms: C_5  and  C_6
REMARK    4  A    between atoms: C_23  and  O_24
REMARK    5  A    between atoms: O_24  and  C_25
REMARK    6  A    between atoms: C_25  and  C_26
REMARK                            x       y       z     vdW  Elec       q    Type
REMARK                         _______ _______ _______ _____ _____    ______ ____
ROOT
ATOM      1  C   UNL     1      -0.069  10.662  21.592  0.00  0.00    +0.000 A 
ATOM      2  C   UNL     1       0.883   9.872  20.741  0.00  0.00    +0.000 A 
ATOM      3  C   UNL     1       0.976   9.940  19.280  0.00  0.00    +0.000 A 
ATOM      4  C   UNL     1       0.040  10.925  18.851  0.00  0.00    +0.000 A 
ATOM      5  C   UNL     1      -0.872  11.682  19.663  0.00  0.00    +0.000 A 
ATOM      6  C   UNL     1      -1.002  11.530  21.033  0.00  0.00    +0.000 A 
ENDROOT
BRANCH   3   7
ATOM      7  C   UNL     1       2.041   8.923  18.231  0.00  0.00    +0.000 C 
ATOM      8  O   UNL     1       2.357   9.388  17.134  0.00  0.00    +0.000 OA
ATOM      9  N   UNL     1       2.486   7.518  18.686  0.00  0.00    +0.000 N 
ATOM     10  C   UNL     1       1.893   7.241  19.939  0.00  0.00    +0.000 C 
ATOM     11  C   UNL     1       1.811   5.878  20.537  0.00  0.00    +0.000 C 
ATOM     12  N   UNL     1       2.945   5.042  20.348  0.00  0.00    +0.000 N 
ATOM     13  C   UNL     1       2.660   3.661  20.758  0.00  0.00    +0.000 C 
ATOM     14  C   UNL     1       3.650   2.602  20.360  0.00  0.00    +0.000 C 
ATOM     15  O   UNL     1       4.794   3.075  19.653  0.00  0.00    +0.000 OA
ATOM     16  C   UNL     1       4.502   4.097  18.782  0.00  0.00    +0.000 A 
ATOM     17  C   UNL     1       5.221   4.072  17.608  0.00  0.00    +0.000 A 
ATOM     18  C   UNL     1       5.068   5.184  16.758  0.00  0.00    +0.000 A 
ATOM     19  C   UNL     1       4.232   6.300  17.058  0.00  0.00    +0.000 A 
ATOM     20  C   UNL     1       3.443   6.378  18.218  0.00  0.00    +0.000 A 
ATOM     21  C   UNL     1       3.597   5.178  19.091  0.00  0.00    +0.000 A 
ENDBRANCH   3   7
BRANCH   1  23
ATOM     22  C   UNL     1       0.175   9.471  23.677  0.00  0.00    +0.000 C 
ATOM     23  O   UNL     1      -0.180  10.630  22.956  0.00  0.00    +0.000 OA
ENDBRANCH   1  23
BRANCH   6  24
ATOM     24  O   UNL     1      -2.090  12.176  21.529  0.00  0.00    +0.000 OA
BRANCH  24  25
ATOM     25  C   UNL     1      -2.643  12.517  22.795  0.00  0.00    +0.000 C 
BRANCH  25  26
ATOM     26  C   UNL     1      -4.081  12.385  23.429  0.00  0.00    +0.000 C 
ATOM     27  N   UNL     1      -5.157  12.609  22.648  0.00  0.00    +0.000 N 
ATOM     28  O   UNL     1      -4.240  12.086  24.644  0.00  0.00    +0.000 OA
ATOM     29  H   UNL     1      -5.028  12.642  21.636  0.00  0.00    +0.000 HD
ATOM     30  H   UNL     1      -6.067  12.429  23.049  0.00  0.00    +0.000 HD
ENDBRANCH  25  26
ENDBRANCH  24  25
ENDBRANCH   6  24
TORSDOF 5
ENDMDL
MODEL 9
REMARK VINA RESULT:      -7.5      2.972      9.706
REMARK  Name = 
REMARK  6 active torsions:
REMARK  status: ('A' for Active; 'I' for Inactive)
REMARK    1  A    between atoms: C_1  and  O_2
REMARK    2  A    between atoms: O_2  and  C_3
REMARK    3  A    between atoms: C_5  and  C_6
REMARK    4  A    between atoms: C_23  and  O_24
REMARK    5  A    between atoms: O_24  and  C_25
REMARK    6  A    between atoms: C_25  and  C_26
REMARK                            x       y       z     vdW  Elec       q    Type
REMARK                         _______ _______ _______ _____ _____    ______ ____
ROOT
ATOM      1  C   UNL     1       0.689  12.242  21.066  0.00  0.00    +0.000 A 
ATOM      2  C   UNL     1       1.458  11.405  20.084  0.00  0.00    +0.000 A 
ATOM      3  C   UNL     1       1.004  10.137  19.506  0.00  0.00    +0.000 A 
ATOM      4  C   UNL     1      -0.305   9.896  20.013  0.00  0.00    +0.000 A 
ATOM      5  C   UNL     1      -1.043  10.694  20.952  0.00  0.00    +0.000 A 
ATOM      6  C   UNL     1      -0.552  11.841  21.553  0.00  0.00    +0.000 A 
ENDROOT
BRANCH   3   7
ATOM      7  C   UNL     1       1.958   9.066  18.405  0.00  0.00    +0.000 C 
ATOM      8  O   UNL     1       2.240   9.515  17.292  0.00  0.00    +0.000 OA
ATOM      9  N   UNL     1       2.352   7.639  18.839  0.00  0.00    +0.000 N 
ATOM     10  C   UNL     1       1.812   7.392  20.122  0.00  0.00    +0.000 C 
ATOM     11  C   UNL     1       1.691   6.036  20.726  0.00  0.00    +0.000 C 
ATOM     12  N   UNL     1       2.768   5.141  20.479  0.00  0.00    +0.000 N 
ATOM     13  C   UNL     1       2.433   3.777  20.907  0.00  0.00    +0.000 C 
ATOM     14  C   UNL     1       3.345   2.668  20.459  0.00  0.00    +0.000 C 
ATOM     15  O   UNL     1       4.473   3.081  19.692  0.00  0.00    +0.000 OA
ATOM     16  C   UNL     1       4.190   4.117  18.836  0.00  0.00    +0.000 A 
ATOM     17  C   UNL     1       4.843   4.056  17.626  0.00  0.00    +0.000 A 
ATOM     18  C   UNL     1       4.704   5.175  16.782  0.00  0.00    +0.000 A 
ATOM     19  C   UNL     1       3.944   6.333  17.124  0.00  0.00    +0.000 A 
ATOM     20  C   UNL     1       3.223   6.451  18.324  0.00  0.00    +0.000 A 
ATOM     21  C   UNL     1       3.359   5.245  19.189  0.00  0.00    +0.000 A 
ENDBRANCH   3   7
BRANCH   1  23
ATOM     22  C   UNL     1       1.921  14.311  20.912  0.00  0.00    +0.000 C 
ATOM     23  O   UNL     1       1.076  13.431  21.620  0.00  0.00    +0.000 OA
ENDBRANCH   1  23
BRANCH   6  24
ATOM     24  O   UNL     1      -1.337  12.272  22.575  0.00  0.00    +0.000 OA
BRANCH  24  25
ATOM     25  C   UNL     1      -2.444  11.808  23.339  0.00  0.00    +0.000 C 
BRANCH  25  26
ATOM     26  C   UNL     1      -3.716  12.510  23.953  0.00  0.00    +0.000 C 
ATOM     27  N   UNL     1      -3.836  13.848  23.842  0.00  0.00    +0.000 N 
ATOM     28  O   UNL     1      -4.609  11.849  24.551  0.00  0.00    +0.000 OA
ATOM     29  H   UNL     1      -3.228  14.340  23.187  0.00  0.00    +0.000 HD
ATOM     30  H   UNL     1      -4.700  14.265  24.160  0.00  0.00    +0.000 HD
ENDBRANCH  25  26
ENDBRANCH  24  25
ENDBRANCH   6  24
TORSDOF 5
ENDMDL
