MODEL 1
REMARK VINA RESULT:      -6.0      0.000      0.000
REMARK  Name = 
REMARK  6 active torsions:
REMARK  status: ('A' for Active; 'I' for Inactive)
REMARK    1  A    between atoms: C_1  and  C_2
REMARK    2  A    between atoms: C_2  and  O_3
REMARK    3  A    between atoms: O_3  and  C_4
REMARK    4  A    between atoms: C_4  and  C_6
REMARK    5  A    between atoms: C_6  and  C_7
REMARK    6  A    between atoms: C_15  and  C_16
REMARK                            x       y       z     vdW  Elec       q    Type
REMARK                         _______ _______ _______ _____ _____    ______ ____
ROOT
ATOM      1  C   UNL     1      -4.057  10.572  17.212  0.00  0.00    +0.000 A 
ATOM      2  C   UNL     1      -5.183  11.369  17.331  0.00  0.00    +0.000 A 
ATOM      3  S   UNL     1      -4.965  12.541  18.589  0.00  0.00    +0.000 S 
ATOM      4  C   UNL     1      -3.408  11.963  18.905  0.00  0.00    +0.000 A 
ATOM      5  N   UNL     1      -3.099  10.955  18.127  0.00  0.00    +0.000 N 
ATOM      6  C   UNL     1      -1.823  10.489  18.377  0.00  0.00    +0.000 C 
ATOM      7  O   UNL     1      -1.413   9.538  17.742  0.00  0.00    +0.000 OA
ATOM      8  C   UNL     1      -1.129  11.243  19.465  0.00  0.00    +0.000 C 
ATOM      9  C   UNL     1       0.094  11.011  19.959  0.00  0.00    +0.000 C 
ATOM     10  S   UNL     1      -2.206  12.495  20.050  0.00  0.00    +0.000 S 
ENDROOT
BRANCH   9  11
ATOM     11  C   UNL     1       0.961   9.921  19.481  0.00  0.00    +0.000 A 
ATOM     12  C   UNL     1       1.629  10.102  18.262  0.00  0.00    +0.000 A 
ATOM     13  C   UNL     1       2.410   9.077  17.728  0.00  0.00    +0.000 A 
ATOM     14  C   UNL     1       2.540   7.868  18.411  0.00  0.00    +0.000 A 
ATOM     15  C   UNL     1       1.887   7.676  19.632  0.00  0.00    +0.000 A 
ATOM     16 CL   UNL     1       2.091   6.147  20.413  0.00  0.00    +0.000 Cl
ATOM     17  C   UNL     1       1.091   8.698  20.171  0.00  0.00    +0.000 A 
ATOM     18 CL   UNL     1       0.229   8.465  21.663  0.00  0.00    +0.000 Cl
ENDBRANCH   9  11
BRANCH   1  19
ATOM     19  C   UNL     1      -3.782   9.526  16.185  0.00  0.00    +0.000 C 
BRANCH  19  20
ATOM     20  C   UNL     1      -3.558  10.213  14.858  0.00  0.00    +0.000 C 
ATOM     21  O   UNL     1      -2.819  11.182  14.722  0.00  0.00    +0.000 OA
BRANCH  20  22
ATOM     22  O   UNL     1      -4.366   9.673  13.916  0.00  0.00    +0.000 OA
BRANCH  22  24
ATOM     23  C   UNL     1      -5.147   9.504  11.667  0.00  0.00    +0.000 C 
ATOM     24  C   UNL     1      -3.985   9.921  12.553  0.00  0.00    +0.000 C 
ENDBRANCH  22  24
ENDBRANCH  20  22
ENDBRANCH  19  20
ENDBRANCH   1  19
TORSDOF 5
ENDMDL
MODEL 2
REMARK VINA RESULT:      -5.8      5.374      7.078
REMARK  Name = 
REMARK  6 active torsions:
REMARK  status: ('A' for Active; 'I' for Inactive)
REMARK    1  A    between atoms: C_1  and  C_2
REMARK    2  A    between atoms: C_2  and  O_3
REMARK    3  A    between atoms: O_3  and  C_4
REMARK    4  A    between atoms: C_4  and  C_6
REMARK    5  A    between atoms: C_6  and  C_7
REMARK    6  A    between atoms: C_15  and  C_16
REMARK                            x       y       z     vdW  Elec       q    Type
REMARK                         _______ _______ _______ _____ _____    ______ ____
ROOT
ATOM      1  C   UNL     1       0.826   9.364  20.786  0.00  0.00    +0.000 A 
ATOM      2  C   UNL     1       0.804  10.724  20.522  0.00  0.00    +0.000 A 
ATOM      3  S   UNL     1       1.581  11.060  19.011  0.00  0.00    +0.000 S 
ATOM      4  C   UNL     1       1.893   9.416  18.766  0.00  0.00    +0.000 A 
ATOM      5  N   UNL     1       1.455   8.687  19.763  0.00  0.00    +0.000 N 
ATOM      6  C   UNL     1       1.700   7.344  19.558  0.00  0.00    +0.000 C 
ATOM      7  O   UNL     1       1.367   6.551  20.417  0.00  0.00    +0.000 OA
ATOM      8  C   UNL     1       2.401   7.067  18.268  0.00  0.00    +0.000 C 
ATOM      9  C   UNL     1       2.805   5.878  17.803  0.00  0.00    +0.000 C 
ATOM     10  S   UNL     1       2.664   8.588  17.440  0.00  0.00    +0.000 S 
ENDROOT
BRANCH   9  11
ATOM     11  C   UNL     1       2.613   4.619  18.542  0.00  0.00    +0.000 A 
ATOM     12  C   UNL     1       1.329   4.058  18.560  0.00  0.00    +0.000 A 
ATOM     13  C   UNL     1       1.073   2.903  19.299  0.00  0.00    +0.000 A 
ATOM     14  C   UNL     1       2.101   2.291  20.017  0.00  0.00    +0.000 A 
ATOM     15  C   UNL     1       3.389   2.833  20.001  0.00  0.00    +0.000 A 
ATOM     16 CL   UNL     1       4.606   2.020  20.922  0.00  0.00    +0.000 Cl
ATOM     17  C   UNL     1       3.652   4.000  19.269  0.00  0.00    +0.000 A 
ATOM     18 CL   UNL     1       5.235   4.721  19.274  0.00  0.00    +0.000 Cl
ENDBRANCH   9  11
BRANCH   1  19
ATOM     19  C   UNL     1       0.170   8.640  21.913  0.00  0.00    +0.000 C 
BRANCH  19  20
ATOM     20  C   UNL     1      -0.131   9.640  23.005  0.00  0.00    +0.000 C 
ATOM     21  O   UNL     1       0.511   9.705  24.048  0.00  0.00    +0.000 OA
BRANCH  20  22
ATOM     22  O   UNL     1      -1.249  10.338  22.698  0.00  0.00    +0.000 OA
BRANCH  22  24
ATOM     23  C   UNL     1      -2.623  12.289  22.770  0.00  0.00    +0.000 C 
ATOM     24  C   UNL     1      -1.354  11.639  23.298  0.00  0.00    +0.000 C 
ENDBRANCH  22  24
ENDBRANCH  20  22
ENDBRANCH  19  20
ENDBRANCH   1  19
TORSDOF 5
ENDMDL
MODEL 3
REMARK VINA RESULT:      -5.6      4.943      7.418
REMARK  Name = 
REMARK  6 active torsions:
REMARK  status: ('A' for Active; 'I' for Inactive)
REMARK    1  A    between atoms: C_1  and  C_2
REMARK    2  A    between atoms: C_2  and  O_3
REMARK    3  A    between atoms: O_3  and  C_4
REMARK    4  A    between atoms: C_4  and  C_6
REMARK    5  A    between atoms: C_6  and  C_7
REMARK    6  A    between atoms: C_15  and  C_16
REMARK                            x       y       z     vdW  Elec       q    Type
REMARK                         _______ _______ _______ _____ _____    ______ ____
ROOT
ATOM      1  C   UNL     1       0.729  11.182  19.126  0.00  0.00    +0.000 A 
ATOM      2  C   UNL     1       1.929  11.366  18.459  0.00  0.00    +0.000 A 
ATOM      3  S   UNL     1       2.266  13.055  18.273  0.00  0.00    +0.000 S 
ATOM      4  C   UNL     1       0.841  13.464  19.087  0.00  0.00    +0.000 A 
ATOM      5  N   UNL     1       0.167  12.399  19.447  0.00  0.00    +0.000 N 
ATOM      6  C   UNL     1      -0.991  12.732  20.121  0.00  0.00    +0.000 C 
ATOM      7  O   UNL     1      -1.727  11.840  20.494  0.00  0.00    +0.000 OA
ATOM      8  C   UNL     1      -1.183  14.207  20.261  0.00  0.00    +0.000 C 
ATOM      9  C   UNL     1      -2.217  14.841  20.830  0.00  0.00    +0.000 C 
ATOM     10  S   UNL     1       0.175  15.018  19.507  0.00  0.00    +0.000 S 
ENDROOT
BRANCH   9  11
ATOM     11  C   UNL     1      -3.369  14.134  21.414  0.00  0.00    +0.000 A 
ATOM     12  C   UNL     1      -4.537  14.036  20.645  0.00  0.00    +0.000 A 
ATOM     13  C   UNL     1      -5.681  13.437  21.172  0.00  0.00    +0.000 A 
ATOM     14  C   UNL     1      -5.665  12.921  22.468  0.00  0.00    +0.000 A 
ATOM     15  C   UNL     1      -4.506  13.002  23.244  0.00  0.00    +0.000 A 
ATOM     16 CL   UNL     1      -4.569  12.346  24.842  0.00  0.00    +0.000 Cl
ATOM     17  C   UNL     1      -3.354  13.613  22.725  0.00  0.00    +0.000 A 
ATOM     18 CL   UNL     1      -1.915  13.771  23.689  0.00  0.00    +0.000 Cl
ENDBRANCH   9  11
BRANCH   1  19
ATOM     19  C   UNL     1       0.130   9.897  19.592  0.00  0.00    +0.000 C 
BRANCH  19  20
ATOM     20  C   UNL     1       1.042   9.302  20.638  0.00  0.00    +0.000 C 
ATOM     21  O   UNL     1       1.620   8.230  20.491  0.00  0.00    +0.000 OA
BRANCH  20  22
ATOM     22  O   UNL     1       1.020  10.062  21.758  0.00  0.00    +0.000 OA
BRANCH  22  24
ATOM     23  C   UNL     1      -0.870  10.259  23.202  0.00  0.00    +0.000 C 
ATOM     24  C   UNL     1       0.391   9.464  22.903  0.00  0.00    +0.000 C 
ENDBRANCH  22  24
ENDBRANCH  20  22
ENDBRANCH  19  20
ENDBRANCH   1  19
TORSDOF 5
ENDMDL
MODEL 4
REMARK VINA RESULT:      -5.6      6.419      8.650
REMARK  Name = 
REMARK  6 active torsions:
REMARK  status: ('A' for Active; 'I' for Inactive)
REMARK    1  A    between atoms: C_1  and  C_2
REMARK    2  A    between atoms: C_2  and  O_3
REMARK    3  A    between atoms: O_3  and  C_4
REMARK    4  A    between atoms: C_4  and  C_6
REMARK    5  A    between atoms: C_6  and  C_7
REMARK    6  A    between atoms: C_15  and  C_16
REMARK                            x       y       z     vdW  Elec       q    Type
REMARK                         _______ _______ _______ _____ _____    ______ ____
ROOT
ATOM      1  C   UNL     1       1.739   4.465  20.155  0.00  0.00    +0.000 A 
ATOM      2  C   UNL     1       0.599   3.684  20.063  0.00  0.00    +0.000 A 
ATOM      3  S   UNL     1       0.740   2.557  18.754  0.00  0.00    +0.000 S 
ATOM      4  C   UNL     1       2.286   3.132  18.382  0.00  0.00    +0.000 A 
ATOM      5  N   UNL     1       2.645   4.107  19.179  0.00  0.00    +0.000 N 
ATOM      6  C   UNL     1       3.912   4.569  18.882  0.00  0.00    +0.000 C 
ATOM      7  O   UNL     1       4.364   5.493  19.530  0.00  0.00    +0.000 OA
ATOM      8  C   UNL     1       4.542   3.850  17.734  0.00  0.00    +0.000 C 
ATOM      9  C   UNL     1       5.741   4.088  17.188  0.00  0.00    +0.000 C 
ATOM     10  S   UNL     1       3.423   2.632  17.159  0.00  0.00    +0.000 S 
ENDROOT
BRANCH   9  11
ATOM     11  C   UNL     1       6.643   5.151  17.661  0.00  0.00    +0.000 A 
ATOM     12  C   UNL     1       7.602   4.816  18.627  0.00  0.00    +0.000 A 
ATOM     13  C   UNL     1       8.439   5.796  19.161  0.00  0.00    +0.000 A 
ATOM     14  C   UNL     1       8.333   7.117  18.726  0.00  0.00    +0.000 A 
ATOM     15  C   UNL     1       7.389   7.466  17.757  0.00  0.00    +0.000 A 
ATOM     16 CL   UNL     1       7.315   9.125  17.276  0.00  0.00    +0.000 Cl
ATOM     17  C   UNL     1       6.536   6.488  17.222  0.00  0.00    +0.000 A 
ATOM     18 CL   UNL     1       5.320   6.906  16.052  0.00  0.00    +0.000 Cl
ENDBRANCH   9  11
BRANCH   1  19
ATOM     19  C   UNL     1       2.077   5.470  21.204  0.00  0.00    +0.000 C 
BRANCH  19  20
ATOM     20  C   UNL     1       1.454   6.790  20.814  0.00  0.00    +0.000 C 
ATOM     21  O   UNL     1       0.406   7.205  21.297  0.00  0.00    +0.000 OA
BRANCH  20  22
ATOM     22  O   UNL     1       2.158   7.352  19.804  0.00  0.00    +0.000 OA
BRANCH  22  24
ATOM     23  C   UNL     1       1.830   8.680  17.848  0.00  0.00    +0.000 C 
ATOM     24  C   UNL     1       1.692   8.637  19.361  0.00  0.00    +0.000 C 
ENDBRANCH  22  24
ENDBRANCH  20  22
ENDBRANCH  19  20
ENDBRANCH   1  19
TORSDOF 5
ENDMDL
MODEL 5
REMARK VINA RESULT:      -5.6      1.859      2.517
REMARK  Name = 
REMARK  6 active torsions:
REMARK  status: ('A' for Active; 'I' for Inactive)
REMARK    1  A    between atoms: C_1  and  C_2
REMARK    2  A    between atoms: C_2  and  O_3
REMARK    3  A    between atoms: O_3  and  C_4
REMARK    4  A    between atoms: C_4  and  C_6
REMARK    5  A    between atoms: C_6  and  C_7
REMARK    6  A    between atoms: C_15  and  C_16
REMARK                            x       y       z     vdW  Elec       q    Type
REMARK                         _______ _______ _______ _____ _____    ______ ____
ROOT
ATOM      1  C   UNL     1      -4.504  12.399  19.431  0.00  0.00    +0.000 A 
ATOM      2  C   UNL     1      -5.421  13.350  19.849  0.00  0.00    +0.000 A 
ATOM      3  S   UNL     1      -4.667  14.495  20.908  0.00  0.00    +0.000 S 
ATOM      4  C   UNL     1      -3.178  13.707  20.756  0.00  0.00    +0.000 A 
ATOM      5  N   UNL     1      -3.265  12.655  19.979  0.00  0.00    +0.000 N 
ATOM      6  C   UNL     1      -2.047  12.017  19.846  0.00  0.00    +0.000 C 
ATOM      7  O   UNL     1      -1.986  11.010  19.170  0.00  0.00    +0.000 OA
ATOM      8  C   UNL     1      -0.953  12.679  20.619  0.00  0.00    +0.000 C 
ATOM      9  C   UNL     1       0.322  12.284  20.720  0.00  0.00    +0.000 C 
ATOM     10  S   UNL     1      -1.618  14.078  21.438  0.00  0.00    +0.000 S 
ENDROOT
BRANCH   9  11
ATOM     11  C   UNL     1       0.844  11.076  20.059  0.00  0.00    +0.000 A 
ATOM     12  C   UNL     1       1.233  11.180  18.716  0.00  0.00    +0.000 A 
ATOM     13  C   UNL     1       1.672  10.054  18.019  0.00  0.00    +0.000 A 
ATOM     14  C   UNL     1       1.737   8.817  18.661  0.00  0.00    +0.000 A 
ATOM     15  C   UNL     1       1.361   8.699  20.001  0.00  0.00    +0.000 A 
ATOM     16 CL   UNL     1       1.462   7.130  20.722  0.00  0.00    +0.000 Cl
ATOM     17  C   UNL     1       0.909   9.824  20.706  0.00  0.00    +0.000 A 
ATOM     18 CL   UNL     1       0.388   9.693  22.361  0.00  0.00    +0.000 Cl
ENDBRANCH   9  11
BRANCH   1  19
ATOM     19  C   UNL     1      -4.706  11.312  18.430  0.00  0.00    +0.000 C 
BRANCH  19  20
ATOM     20  C   UNL     1      -5.134  11.943  17.126  0.00  0.00    +0.000 C 
ATOM     21  O   UNL     1      -6.148  12.623  17.012  0.00  0.00    +0.000 OA
BRANCH  20  22
ATOM     22  O   UNL     1      -4.307  11.550  16.129  0.00  0.00    +0.000 OA
BRANCH  22  24
ATOM     23  C   UNL     1      -2.899   9.931  15.083  0.00  0.00    +0.000 C 
ATOM     24  C   UNL     1      -3.526  10.374  16.395  0.00  0.00    +0.000 C 
ENDBRANCH  22  24
ENDBRANCH  20  22
ENDBRANCH  19  20
ENDBRANCH   1  19
TORSDOF 5
ENDMDL
MODEL 6
REMARK VINA RESULT:      -5.5      3.797      5.988
REMARK  Name = 
REMARK  6 active torsions:
REMARK  status: ('A' for Active; 'I' for Inactive)
REMARK    1  A    between atoms: C_1  and  C_2
REMARK    2  A    between atoms: C_2  and  O_3
REMARK    3  A    between atoms: O_3  and  C_4
REMARK    4  A    between atoms: C_4  and  C_6
REMARK    5  A    between atoms: C_6  and  C_7
REMARK    6  A    between atoms: C_15  and  C_16
REMARK                            x       y       z     vdW  Elec       q    Type
REMARK                         _______ _______ _______ _____ _____    ______ ____
ROOT
ATOM      1  C   UNL     1      -0.378  10.475  18.464  0.00  0.00    +0.000 A 
ATOM      2  C   UNL     1       0.553   9.545  18.031  0.00  0.00    +0.000 A 
ATOM      3  S   UNL     1       1.381   8.844  19.382  0.00  0.00    +0.000 S 
ATOM      4  C   UNL     1       0.474   9.773  20.465  0.00  0.00    +0.000 A 
ATOM      5  N   UNL     1      -0.369  10.558  19.840  0.00  0.00    +0.000 N 
ATOM      6  C   UNL     1      -1.117  11.310  20.725  0.00  0.00    +0.000 C 
ATOM      7  O   UNL     1      -1.926  12.101  20.281  0.00  0.00    +0.000 OA
ATOM      8  C   UNL     1      -0.774  11.043  22.155  0.00  0.00    +0.000 C 
ATOM      9  C   UNL     1      -1.295  11.634  23.237  0.00  0.00    +0.000 C 
ATOM     10  S   UNL     1       0.488   9.829  22.207  0.00  0.00    +0.000 S 
ENDROOT
BRANCH   9  11
ATOM     11  C   UNL     1      -2.321  12.687  23.163  0.00  0.00    +0.000 A 
ATOM     12  C   UNL     1      -3.664  12.303  23.273  0.00  0.00    +0.000 A 
ATOM     13  C   UNL     1      -4.682  13.248  23.143  0.00  0.00    +0.000 A 
ATOM     14  C   UNL     1      -4.366  14.587  22.913  0.00  0.00    +0.000 A 
ATOM     15  C   UNL     1      -3.032  14.988  22.810  0.00  0.00    +0.000 A 
ATOM     16 CL   UNL     1      -2.723  16.664  22.516  0.00  0.00    +0.000 Cl
ATOM     17  C   UNL     1      -2.003  14.042  22.929  0.00  0.00    +0.000 A 
ATOM     18 CL   UNL     1      -0.336  14.507  22.755  0.00  0.00    +0.000 Cl
ENDBRANCH   9  11
BRANCH   1  19
ATOM     19  C   UNL     1      -1.378  11.218  17.644  0.00  0.00    +0.000 C 
BRANCH  19  20
ATOM     20  C   UNL     1      -2.409  10.232  17.148  0.00  0.00    +0.000 C 
ATOM     21  O   UNL     1      -3.102   9.554  17.898  0.00  0.00    +0.000 OA
BRANCH  20  22
ATOM     22  O   UNL     1      -2.355  10.147  15.798  0.00  0.00    +0.000 OA
BRANCH  22  24
ATOM     23  C   UNL     1      -3.369   9.987  13.643  0.00  0.00    +0.000 C 
ATOM     24  C   UNL     1      -3.614  10.268  15.116  0.00  0.00    +0.000 C 
ENDBRANCH  22  24
ENDBRANCH  20  22
ENDBRANCH  19  20
ENDBRANCH   1  19
TORSDOF 5
ENDMDL
MODEL 7
REMARK VINA RESULT:      -5.5      4.247      7.174
REMARK  Name = 
REMARK  6 active torsions:
REMARK  status: ('A' for Active; 'I' for Inactive)
REMARK    1  A    between atoms: C_1  and  C_2
REMARK    2  A    between atoms: C_2  and  O_3
REMARK    3  A    between atoms: O_3  and  C_4
REMARK    4  A    between atoms: C_4  and  C_6
REMARK    5  A    between atoms: C_6  and  C_7
REMARK    6  A    between atoms: C_15  and  C_16
REMARK                            x       y       z     vdW  Elec       q    Type
REMARK                         _______ _______ _______ _____ _____    ______ ____
ROOT
ATOM      1  C   UNL     1      -2.019  11.437  18.068  0.00  0.00    +0.000 A 
ATOM      2  C   UNL     1      -2.294  10.915  16.814  0.00  0.00    +0.000 A 
ATOM      3  S   UNL     1      -3.997  10.961  16.499  0.00  0.00    +0.000 S 
ATOM      4  C   UNL     1      -4.291  11.673  18.004  0.00  0.00    +0.000 A 
ATOM      5  N   UNL     1      -3.184  11.840  18.685  0.00  0.00    +0.000 N 
ATOM      6  C   UNL     1      -3.422  12.432  19.910  0.00  0.00    +0.000 C 
ATOM      7  O   UNL     1      -2.485  12.625  20.658  0.00  0.00    +0.000 OA
ATOM      8  C   UNL     1      -4.869  12.723  20.147  0.00  0.00    +0.000 C 
ATOM      9  C   UNL     1      -5.420  13.257  21.244  0.00  0.00    +0.000 C 
ATOM     10  S   UNL     1      -5.778  12.204  18.742  0.00  0.00    +0.000 S 
ENDROOT
BRANCH   9  11
ATOM     11  C   UNL     1      -4.637  13.640  22.431  0.00  0.00    +0.000 A 
ATOM     12  C   UNL     1      -4.525  12.708  23.471  0.00  0.00    +0.000 A 
ATOM     13  C   UNL     1      -3.852  13.040  24.647  0.00  0.00    +0.000 A 
ATOM     14  C   UNL     1      -3.276  14.302  24.790  0.00  0.00    +0.000 A 
ATOM     15  C   UNL     1      -3.371  15.240  23.758  0.00  0.00    +0.000 A 
ATOM     16 CL   UNL     1      -2.638  16.784  24.015  0.00  0.00    +0.000 Cl
ATOM     17  C   UNL     1      -4.055  14.917  22.576  0.00  0.00    +0.000 A 
ATOM     18 CL   UNL     1      -4.230  16.084  21.298  0.00  0.00    +0.000 Cl
ENDBRANCH   9  11
BRANCH   1  19
ATOM     19  C   UNL     1      -0.683  11.690  18.680  0.00  0.00    +0.000 C 
BRANCH  19  20
ATOM     20  C   UNL     1      -0.094  10.362  19.096  0.00  0.00    +0.000 C 
ATOM     21  O   UNL     1       0.689   9.728  18.396  0.00  0.00    +0.000 OA
BRANCH  20  22
ATOM     22  O   UNL     1      -0.644   9.958  20.265  0.00  0.00    +0.000 OA
BRANCH  22  24
ATOM     23  C   UNL     1      -0.588  10.384  22.613  0.00  0.00    +0.000 C 
ATOM     24  C   UNL     1       0.234   9.972  21.402  0.00  0.00    +0.000 C 
ENDBRANCH  22  24
ENDBRANCH  20  22
ENDBRANCH  19  20
ENDBRANCH   1  19
TORSDOF 5
ENDMDL
MODEL 8
REMARK VINA RESULT:      -5.5      4.692      6.961
REMARK  Name = 
REMARK  6 active torsions:
REMARK  status: ('A' for Active; 'I' for Inactive)
REMARK    1  A    between atoms: C_1  and  C_2
REMARK    2  A    between atoms: C_2  and  O_3
REMARK    3  A    between atoms: O_3  and  C_4
REMARK    4  A    between atoms: C_4  and  C_6
REMARK    5  A    between atoms: C_6  and  C_7
REMARK    6  A    between atoms: C_15  and  C_16
REMARK                            x       y       z     vdW  Elec       q    Type
REMARK                         _______ _______ _______ _____ _____    ______ ____
ROOT
ATOM      1  C   UNL     1       1.309  14.698  19.305  0.00  0.00    +0.000 A 
ATOM      2  C   UNL     1       2.318  15.003  20.203  0.00  0.00    +0.000 A 
ATOM      3  S   UNL     1       2.591  13.675  21.282  0.00  0.00    +0.000 S 
ATOM      4  C   UNL     1       1.392  12.762  20.516  0.00  0.00    +0.000 A 
ATOM      5  N   UNL     1       0.829  13.427  19.537  0.00  0.00    +0.000 N 
ATOM      6  C   UNL     1      -0.143  12.677  18.904  0.00  0.00    +0.000 C 
ATOM      7  O   UNL     1      -0.765  13.180  17.989  0.00  0.00    +0.000 OA
ATOM      8  C   UNL     1      -0.307  11.314  19.494  0.00  0.00    +0.000 C 
ATOM      9  C   UNL     1      -1.184  10.372  19.126  0.00  0.00    +0.000 C 
ATOM     10  S   UNL     1       0.831  11.139  20.814  0.00  0.00    +0.000 S 
ENDROOT
BRANCH   9  11
ATOM     11  C   UNL     1      -2.163  10.563  18.043  0.00  0.00    +0.000 A 
ATOM     12  C   UNL     1      -1.880   9.991  16.795  0.00  0.00    +0.000 A 
ATOM     13  C   UNL     1      -2.738  10.196  15.714  0.00  0.00    +0.000 A 
ATOM     14  C   UNL     1      -3.891  10.964  15.874  0.00  0.00    +0.000 A 
ATOM     15  C   UNL     1      -4.193  11.533  17.114  0.00  0.00    +0.000 A 
ATOM     16 CL   UNL     1      -5.636  12.477  17.228  0.00  0.00    +0.000 Cl
ATOM     17  C   UNL     1      -3.330  11.341  18.203  0.00  0.00    +0.000 A 
ATOM     18 CL   UNL     1      -3.656  12.079  19.744  0.00  0.00    +0.000 Cl
ENDBRANCH   9  11
BRANCH   1  19
ATOM     19  C   UNL     1       0.844  15.508  18.142  0.00  0.00    +0.000 C 
BRANCH  19  20
ATOM     20  C   UNL     1      -0.018  16.634  18.664  0.00  0.00    +0.000 C 
ATOM     21  O   UNL     1      -1.095  16.450  19.220  0.00  0.00    +0.000 OA
BRANCH  20  22
ATOM     22  O   UNL     1       0.524  17.827  18.324  0.00  0.00    +0.000 OA
BRANCH  22  24
ATOM     23  C   UNL     1       0.619  18.555  16.053  0.00  0.00    +0.000 C 
ATOM     24  C   UNL     1      -0.197  18.579  17.335  0.00  0.00    +0.000 C 
ENDBRANCH  22  24
ENDBRANCH  20  22
ENDBRANCH  19  20
ENDBRANCH   1  19
TORSDOF 5
ENDMDL
MODEL 9
REMARK VINA RESULT:      -5.5      3.271      4.382
REMARK  Name = 
REMARK  6 active torsions:
REMARK  status: ('A' for Active; 'I' for Inactive)
REMARK    1  A    between atoms: C_1  and  C_2
REMARK    2  A    between atoms: C_2  and  O_3
REMARK    3  A    between atoms: O_3  and  C_4
REMARK    4  A    between atoms: C_4  and  C_6
REMARK    5  A    between atoms: C_6  and  C_7
REMARK    6  A    between atoms: C_15  and  C_16
REMARK                            x       y       z     vdW  Elec       q    Type
REMARK                         _______ _______ _______ _____ _____    ______ ____
ROOT
ATOM      1  C   UNL     1      -6.035  12.663  20.323  0.00  0.00    +0.000 A 
ATOM      2  C   UNL     1      -7.329  12.866  20.774  0.00  0.00    +0.000 A 
ATOM      3  S   UNL     1      -7.336  13.154  22.483  0.00  0.00    +0.000 S 
ATOM      4  C   UNL     1      -5.652  13.017  22.547  0.00  0.00    +0.000 A 
ATOM      5  N   UNL     1      -5.142  12.758  21.369  0.00  0.00    +0.000 N 
ATOM      6  C   UNL     1      -3.766  12.657  21.419  0.00  0.00    +0.000 C 
ATOM      7  O   UNL     1      -3.161  12.394  20.398  0.00  0.00    +0.000 OA
ATOM      8  C   UNL     1      -3.214  12.861  22.793  0.00  0.00    +0.000 C 
ATOM      9  C   UNL     1      -1.932  12.792  23.171  0.00  0.00    +0.000 C 
ATOM     10  S   UNL     1      -4.547  13.176  23.886  0.00  0.00    +0.000 S 
ENDROOT
BRANCH   9  11
ATOM     11  C   UNL     1      -0.836  12.478  22.239  0.00  0.00    +0.000 A 
ATOM     12  C   UNL     1      -0.319  13.522  21.459  0.00  0.00    +0.000 A 
ATOM     13  C   UNL     1       0.674  13.271  20.512  0.00  0.00    +0.000 A 
ATOM     14  C   UNL     1       1.167  11.977  20.344  0.00  0.00    +0.000 A 
ATOM     15  C   UNL     1       0.669  10.927  21.120  0.00  0.00    +0.000 A 
ATOM     16 CL   UNL     1       1.327   9.352  20.846  0.00  0.00    +0.000 Cl
ATOM     17  C   UNL     1      -0.337  11.170  22.067  0.00  0.00    +0.000 A 
ATOM     18 CL   UNL     1      -1.008   9.872  23.010  0.00  0.00    +0.000 Cl
ENDBRANCH   9  11
BRANCH   1  19
ATOM     19  C   UNL     1      -5.573  12.501  18.913  0.00  0.00    +0.000 C 
BRANCH  19  20
ATOM     20  C   UNL     1      -5.778  11.059  18.512  0.00  0.00    +0.000 C 
ATOM     21  O   UNL     1      -6.824  10.451  18.709  0.00  0.00    +0.000 OA
BRANCH  20  22
ATOM     22  O   UNL     1      -4.623  10.546  18.027  0.00  0.00    +0.000 OA
BRANCH  22  24
ATOM     23  C   UNL     1      -2.828  10.477  16.455  0.00  0.00    +0.000 C 
ATOM     24  C   UNL     1      -4.197  11.064  16.757  0.00  0.00    +0.000 C 
ENDBRANCH  22  24
ENDBRANCH  20  22
ENDBRANCH  19  20
ENDBRANCH   1  19
TORSDOF 5
ENDMDL
