MODEL 1
REMARK VINA RESULT:      -8.5      0.000      0.000
REMARK  Name = 
REMARK  6 active torsions:
REMARK  status: ('A' for Active; 'I' for Inactive)
REMARK    1  A    between atoms: C_2  and  C_3
REMARK    2  A    between atoms: C_3  and  C_4
REMARK    3  A    between atoms: C_4  and  N_5
REMARK    4  A    between atoms: C_7  and  C_8
REMARK    5  A    between atoms: N_20  and  C_21
REMARK    6  A    between atoms: C_25  and  C_27
REMARK                            x       y       z     vdW  Elec       q    Type
REMARK                         _______ _______ _______ _____ _____    ______ ____
ROOT
ATOM      1  C   UNL     1       0.443   9.586  20.407  0.00  0.00    +0.000 C 
ATOM      2  C   UNL     1      -0.326  10.781  19.826  0.00  0.00    +0.000 C 
ATOM      3  N   UNL     1       0.616  11.737  20.440  0.00  0.00    +0.000 NA
ATOM      4  C   UNL     1       1.258  10.639  21.200  0.00  0.00    +0.000 C 
ENDROOT
BRANCH   3   5
ATOM      5  C   UNL     1       1.602  12.324  19.510  0.00  0.00    +0.000 C 
ATOM      6  C   UNL     1       2.567  13.237  20.296  0.00  0.00    +0.000 C 
ATOM      7  C   UNL     1       1.922  14.550  20.724  0.00  0.00    +0.000 C 
ATOM      8  N   UNL     1       1.378  15.265  19.574  0.00  0.00    +0.000 N 
ATOM      9  C   UNL     1       1.360  16.678  19.639  0.00  0.00    +0.000 C 
ATOM     10  O   UNL     1       1.793  17.249  20.645  0.00  0.00    +0.000 OA
ATOM     11  C   UNL     1       0.426  14.494  18.777  0.00  0.00    +0.000 C 
ATOM     12  C   UNL     1       0.989  13.141  18.359  0.00  0.00    +0.000 C 
BRANCH   9  13
ATOM     13  C   UNL     1       0.850  17.443  18.499  0.00  0.00    +0.000 A 
ATOM     14  N   UNL     1      -0.410  17.734  18.206  0.00  0.00    +0.000 NA
ATOM     15  C   UNL     1      -0.330  18.409  17.013  0.00  0.00    +0.000 A 
ATOM     16  C   UNL     1       0.980  18.509  16.621  0.00  0.00    +0.000 A 
ATOM     17  O   UNL     1       1.748  17.885  17.553  0.00  0.00    +0.000 OA
ENDBRANCH   9  13
ENDBRANCH   3   5
BRANCH   1  18
ATOM     18  N   UNL     1       1.246   8.805  19.437  0.00  0.00    +0.000 N 
ATOM     19  C   UNL     1       2.052   7.673  19.649  0.00  0.00    +0.000 A 
ATOM     20  C   UNL     1       2.662   7.345  18.450  0.00  0.00    +0.000 A 
ATOM     21  C   UNL     1       2.190   8.380  17.592  0.00  0.00    +0.000 A 
ATOM     22  N   UNL     1       1.332   9.235  18.173  0.00  0.00    +0.000 NA
BRANCH  20  23
ATOM     23  C   UNL     1       3.549   6.246  18.030  0.00  0.00    +0.000 A 
ATOM     24  N   UNL     1       4.811   6.694  17.742  0.00  0.00    +0.000 NA
ATOM     25  C   UNL     1       5.775   5.811  17.436  0.00  0.00    +0.000 A 
ATOM     26  N   UNL     1       5.725   4.486  17.565  0.00  0.00    +0.000 NA
ATOM     27  C   UNL     1       4.468   4.074  17.749  0.00  0.00    +0.000 A 
ATOM     28  N   UNL     1       4.129   2.751  17.776  0.00  0.00    +0.000 N 
ATOM     29  C   UNL     1       2.796   2.657  17.483  0.00  0.00    +0.000 A 
ATOM     30  C   UNL     1       2.254   3.930  17.606  0.00  0.00    +0.000 A 
ATOM     31  C   UNL     1       3.314   4.861  17.852  0.00  0.00    +0.000 A 
ATOM     32  H   UNL     1       4.806   1.998  17.783  0.00  0.00    +0.000 HD
ENDBRANCH  20  23
ENDBRANCH   1  18
BRANCH   1  33
ATOM     33  C   UNL     1      -0.282   8.729  21.463  0.00  0.00    +0.000 C 
BRANCH  33  35
ATOM     34  N   UNL     1       0.252   9.587  23.874  0.00  0.00    +0.000 NA
ATOM     35  C   UNL     1      -0.005   9.221  22.815  0.00  0.00    +0.000 C 
ENDBRANCH  33  35
ENDBRANCH   1  33
TORSDOF 6
ENDMDL
MODEL 2
REMARK VINA RESULT:      -8.0      0.914      1.438
REMARK  Name = 
REMARK  6 active torsions:
REMARK  status: ('A' for Active; 'I' for Inactive)
REMARK    1  A    between atoms: C_2  and  C_3
REMARK    2  A    between atoms: C_3  and  C_4
REMARK    3  A    between atoms: C_4  and  N_5
REMARK    4  A    between atoms: C_7  and  C_8
REMARK    5  A    between atoms: N_20  and  C_21
REMARK    6  A    between atoms: C_25  and  C_27
REMARK                            x       y       z     vdW  Elec       q    Type
REMARK                         _______ _______ _______ _____ _____    ______ ____
ROOT
ATOM      1  C   UNL     1       0.373   9.742  20.431  0.00  0.00    +0.000 C 
ATOM      2  C   UNL     1      -0.406  10.883  19.762  0.00  0.00    +0.000 C 
ATOM      3  N   UNL     1       0.506  11.894  20.331  0.00  0.00    +0.000 NA
ATOM      4  C   UNL     1       1.153  10.858  21.171  0.00  0.00    +0.000 C 
ENDROOT
BRANCH   3   5
ATOM      5  C   UNL     1       1.499  12.441  19.385  0.00  0.00    +0.000 C 
ATOM      6  C   UNL     1       2.490  13.345  20.148  0.00  0.00    +0.000 C 
ATOM      7  C   UNL     1       1.879  14.681  20.557  0.00  0.00    +0.000 C 
ATOM      8  N   UNL     1       1.344  15.388  19.398  0.00  0.00    +0.000 N 
ATOM      9  C   UNL     1       1.360  16.802  19.438  0.00  0.00    +0.000 C 
ATOM     10  O   UNL     1       1.813  17.380  20.431  0.00  0.00    +0.000 OA
ATOM     11  C   UNL     1       0.368  14.625  18.621  0.00  0.00    +0.000 C 
ATOM     12  C   UNL     1       0.897  13.252  18.224  0.00  0.00    +0.000 C 
BRANCH   9  13
ATOM     13  C   UNL     1       0.859  17.558  18.288  0.00  0.00    +0.000 A 
ATOM     14  N   UNL     1      -0.400  17.825  17.969  0.00  0.00    +0.000 NA
ATOM     15  C   UNL     1      -0.307  18.503  16.779  0.00  0.00    +0.000 A 
ATOM     16  C   UNL     1       1.008  18.630  16.415  0.00  0.00    +0.000 A 
ATOM     17  O   UNL     1       1.768  18.019  17.363  0.00  0.00    +0.000 OA
ENDBRANCH   9  13
ENDBRANCH   3   5
BRANCH   1  18
ATOM     18  N   UNL     1       1.209   8.918  19.525  0.00  0.00    +0.000 N 
ATOM     19  C   UNL     1       1.857   7.696  19.772  0.00  0.00    +0.000 A 
ATOM     20  C   UNL     1       2.579   7.352  18.642  0.00  0.00    +0.000 A 
ATOM     21  C   UNL     1       2.335   8.469  17.792  0.00  0.00    +0.000 A 
ATOM     22  N   UNL     1       1.504   9.389  18.308  0.00  0.00    +0.000 NA
BRANCH  20  23
ATOM     23  C   UNL     1       3.393   6.180  18.275  0.00  0.00    +0.000 A 
ATOM     24  N   UNL     1       3.333   5.202  19.232  0.00  0.00    +0.000 NA
ATOM     25  C   UNL     1       3.938   4.023  19.014  0.00  0.00    +0.000 A 
ATOM     26  N   UNL     1       4.453   3.580  17.868  0.00  0.00    +0.000 NA
ATOM     27  C   UNL     1       4.588   4.579  16.991  0.00  0.00    +0.000 A 
ATOM     28  N   UNL     1       5.214   4.416  15.788  0.00  0.00    +0.000 N 
ATOM     29  C   UNL     1       5.625   5.649  15.362  0.00  0.00    +0.000 A 
ATOM     30  C   UNL     1       4.962   6.596  16.134  0.00  0.00    +0.000 A 
ATOM     31  C   UNL     1       4.221   5.920  17.156  0.00  0.00    +0.000 A 
ATOM     32  H   UNL     1       5.507   3.517  15.425  0.00  0.00    +0.000 HD
ENDBRANCH  20  23
ENDBRANCH   1  18
BRANCH   1  33
ATOM     33  C   UNL     1      -0.356   8.938  21.525  0.00  0.00    +0.000 C 
BRANCH  33  35
ATOM     34  N   UNL     1      -0.521  10.304  23.747  0.00  0.00    +0.000 NA
ATOM     35  C   UNL     1      -0.466   9.719  22.760  0.00  0.00    +0.000 C 
ENDBRANCH  33  35
ENDBRANCH   1  33
TORSDOF 6
ENDMDL
MODEL 3
REMARK VINA RESULT:      -7.9      1.210      1.304
REMARK  Name = 
REMARK  6 active torsions:
REMARK  status: ('A' for Active; 'I' for Inactive)
REMARK    1  A    between atoms: C_2  and  C_3
REMARK    2  A    between atoms: C_3  and  C_4
REMARK    3  A    between atoms: C_4  and  N_5
REMARK    4  A    between atoms: C_7  and  C_8
REMARK    5  A    between atoms: N_20  and  C_21
REMARK    6  A    between atoms: C_25  and  C_27
REMARK                            x       y       z     vdW  Elec       q    Type
REMARK                         _______ _______ _______ _____ _____    ______ ____
ROOT
ATOM      1  C   UNL     1       0.514   9.445  20.648  0.00  0.00    +0.000 C 
ATOM      2  C   UNL     1      -0.715  10.132  20.037  0.00  0.00    +0.000 C 
ATOM      3  N   UNL     1      -0.051  11.449  20.078  0.00  0.00    +0.000 NA
ATOM      4  C   UNL     1       1.066  10.876  20.868  0.00  0.00    +0.000 C 
ENDROOT
BRANCH   3   5
ATOM      5  C   UNL     1       0.469  11.926  18.781  0.00  0.00    +0.000 C 
ATOM      6  C   UNL     1       1.858  12.565  18.988  0.00  0.00    +0.000 C 
ATOM      7  C   UNL     1       1.787  13.929  19.664  0.00  0.00    +0.000 C 
ATOM      8  N   UNL     1       0.923  14.838  18.920  0.00  0.00    +0.000 N 
ATOM      9  C   UNL     1       1.234  16.217  18.972  0.00  0.00    +0.000 C 
ATOM     10  O   UNL     1       2.203  16.600  19.635  0.00  0.00    +0.000 OA
ATOM     11  C   UNL     1      -0.432  14.337  18.695  0.00  0.00    +0.000 C 
ATOM     12  C   UNL     1      -0.434  12.948  18.068  0.00  0.00    +0.000 C 
BRANCH   9  13
ATOM     13  C   UNL     1       0.413  17.168  18.219  0.00  0.00    +0.000 A 
ATOM     14  N   UNL     1       0.735  17.839  17.122  0.00  0.00    +0.000 NA
ATOM     15  C   UNL     1      -0.363  18.625  16.875  0.00  0.00    +0.000 A 
ATOM     16  C   UNL     1      -1.320  18.403  17.831  0.00  0.00    +0.000 A 
ATOM     17  O   UNL     1      -0.835  17.484  18.708  0.00  0.00    +0.000 OA
ENDBRANCH   9  13
ENDBRANCH   3   5
BRANCH   1  18
ATOM     18  N   UNL     1       1.320   8.622  19.716  0.00  0.00    +0.000 N 
ATOM     19  C   UNL     1       2.043   7.442  19.961  0.00  0.00    +0.000 A 
ATOM     20  C   UNL     1       2.696   7.084  18.794  0.00  0.00    +0.000 A 
ATOM     21  C   UNL     1       2.336   8.151  17.921  0.00  0.00    +0.000 A 
ATOM     22  N   UNL     1       1.501   9.053  18.463  0.00  0.00    +0.000 NA
BRANCH  20  23
ATOM     23  C   UNL     1       3.537   5.936  18.413  0.00  0.00    +0.000 A 
ATOM     24  N   UNL     1       4.206   6.163  17.241  0.00  0.00    +0.000 NA
ATOM     25  C   UNL     1       5.093   5.258  16.796  0.00  0.00    +0.000 A 
ATOM     26  N   UNL     1       5.578   4.210  17.461  0.00  0.00    +0.000 NA
ATOM     27  C   UNL     1       4.843   3.956  18.548  0.00  0.00    +0.000 A 
ATOM     28  N   UNL     1       5.048   2.854  19.328  0.00  0.00    +0.000 N 
ATOM     29  C   UNL     1       3.893   2.611  20.018  0.00  0.00    +0.000 A 
ATOM     30  C   UNL     1       3.102   3.749  19.914  0.00  0.00    +0.000 A 
ATOM     31  C   UNL     1       3.734   4.670  19.019  0.00  0.00    +0.000 A 
ATOM     32  H   UNL     1       5.834   2.226  19.215  0.00  0.00    +0.000 HD
ENDBRANCH  20  23
ENDBRANCH   1  18
BRANCH   1  33
ATOM     33  C   UNL     1       0.352   8.834  22.054  0.00  0.00    +0.000 C 
BRANCH  33  35
ATOM     34  N   UNL     1      -1.032  10.450  23.572  0.00  0.00    +0.000 NA
ATOM     35  C   UNL     1      -0.421   9.723  22.924  0.00  0.00    +0.000 C 
ENDBRANCH  33  35
ENDBRANCH   1  33
TORSDOF 6
ENDMDL
MODEL 4
REMARK VINA RESULT:      -7.7      1.071      1.803
REMARK  Name = 
REMARK  6 active torsions:
REMARK  status: ('A' for Active; 'I' for Inactive)
REMARK    1  A    between atoms: C_2  and  C_3
REMARK    2  A    between atoms: C_3  and  C_4
REMARK    3  A    between atoms: C_4  and  N_5
REMARK    4  A    between atoms: C_7  and  C_8
REMARK    5  A    between atoms: N_20  and  C_21
REMARK    6  A    between atoms: C_25  and  C_27
REMARK                            x       y       z     vdW  Elec       q    Type
REMARK                         _______ _______ _______ _____ _____    ______ ____
ROOT
ATOM      1  C   UNL     1       0.682   9.422  20.508  0.00  0.00    +0.000 C 
ATOM      2  C   UNL     1      -0.464  10.229  19.880  0.00  0.00    +0.000 C 
ATOM      3  N   UNL     1       0.292  11.489  20.020  0.00  0.00    +0.000 NA
ATOM      4  C   UNL     1       1.326  10.795  20.826  0.00  0.00    +0.000 C 
ENDROOT
BRANCH   3   5
ATOM      5  C   UNL     1       0.906  11.989  18.774  0.00  0.00    +0.000 C 
ATOM      6  C   UNL     1       2.240  12.690  19.105  0.00  0.00    +0.000 C 
ATOM      7  C   UNL     1       2.046  14.050  19.766  0.00  0.00    +0.000 C 
ATOM      8  N   UNL     1       1.213  14.918  18.942  0.00  0.00    +0.000 N 
ATOM      9  C   UNL     1       1.455  16.310  19.017  0.00  0.00    +0.000 C 
ATOM     10  O   UNL     1       2.341  16.736  19.764  0.00  0.00    +0.000 OA
ATOM     11  C   UNL     1      -0.091  14.356  18.596  0.00  0.00    +0.000 C 
ATOM     12  C   UNL     1       0.026  12.969  17.977  0.00  0.00    +0.000 C 
BRANCH   9  13
ATOM     13  C   UNL     1       0.664  17.223  18.189  0.00  0.00    +0.000 A 
ATOM     14  N   UNL     1       1.031  17.847  17.078  0.00  0.00    +0.000 NA
ATOM     15  C   UNL     1      -0.059  18.616  16.750  0.00  0.00    +0.000 A 
ATOM     16  C   UNL     1      -1.055  18.431  17.673  0.00  0.00    +0.000 A 
ATOM     17  O   UNL     1      -0.605  17.553  18.609  0.00  0.00    +0.000 OA
ENDBRANCH   9  13
ENDBRANCH   3   5
BRANCH   1  18
ATOM     18  N   UNL     1       1.469   8.588  19.569  0.00  0.00    +0.000 N 
ATOM     19  C   UNL     1       2.028   7.312  19.758  0.00  0.00    +0.000 A 
ATOM     20  C   UNL     1       2.738   6.976  18.619  0.00  0.00    +0.000 A 
ATOM     21  C   UNL     1       2.582   8.149  17.824  0.00  0.00    +0.000 A 
ATOM     22  N   UNL     1       1.811   9.098  18.380  0.00  0.00    +0.000 NA
BRANCH  20  23
ATOM     23  C   UNL     1       3.472   5.770  18.200  0.00  0.00    +0.000 A 
ATOM     24  N   UNL     1       2.625   4.730  17.924  0.00  0.00    +0.000 NA
ATOM     25  C   UNL     1       3.120   3.582  17.434  0.00  0.00    +0.000 A 
ATOM     26  N   UNL     1       4.353   3.365  16.978  0.00  0.00    +0.000 NA
ATOM     27  C   UNL     1       5.176   4.350  17.348  0.00  0.00    +0.000 A 
ATOM     28  N   UNL     1       6.522   4.302  17.121  0.00  0.00    +0.000 N 
ATOM     29  C   UNL     1       7.124   5.152  18.008  0.00  0.00    +0.000 A 
ATOM     30  C   UNL     1       6.130   5.963  18.544  0.00  0.00    +0.000 A 
ATOM     31  C   UNL     1       4.858   5.507  18.071  0.00  0.00    +0.000 A 
ATOM     32  H   UNL     1       6.971   3.589  16.560  0.00  0.00    +0.000 HD
ENDBRANCH  20  23
ENDBRANCH   1  18
BRANCH   1  33
ATOM     33  C   UNL     1       0.410   8.755  21.870  0.00  0.00    +0.000 C 
BRANCH  33  35
ATOM     34  N   UNL     1      -0.836  10.424  23.450  0.00  0.00    +0.000 NA
ATOM     35  C   UNL     1      -0.301   9.671  22.767  0.00  0.00    +0.000 C 
ENDBRANCH  33  35
ENDBRANCH   1  33
TORSDOF 6
ENDMDL
MODEL 5
REMARK VINA RESULT:      -7.3      4.815      9.548
REMARK  Name = 
REMARK  6 active torsions:
REMARK  status: ('A' for Active; 'I' for Inactive)
REMARK    1  A    between atoms: C_2  and  C_3
REMARK    2  A    between atoms: C_3  and  C_4
REMARK    3  A    between atoms: C_4  and  N_5
REMARK    4  A    between atoms: C_7  and  C_8
REMARK    5  A    between atoms: N_20  and  C_21
REMARK    6  A    between atoms: C_25  and  C_27
REMARK                            x       y       z     vdW  Elec       q    Type
REMARK                         _______ _______ _______ _____ _____    ______ ____
ROOT
ATOM      1  C   UNL     1       0.610   9.236  21.618  0.00  0.00    +0.000 C 
ATOM      2  C   UNL     1       2.011   8.655  21.379  0.00  0.00    +0.000 C 
ATOM      3  N   UNL     1       1.479   7.279  21.338  0.00  0.00    +0.000 NA
ATOM      4  C   UNL     1       0.151   7.764  21.784  0.00  0.00    +0.000 C 
ENDROOT
BRANCH   3   5
ATOM      5  C   UNL     1       1.354   6.700  19.985  0.00  0.00    +0.000 C 
ATOM      6  C   UNL     1       1.228   5.166  20.094  0.00  0.00    +0.000 C 
ATOM      7  C   UNL     1       2.545   4.489  20.457  0.00  0.00    +0.000 C 
ATOM      8  N   UNL     1       3.594   4.841  19.506  0.00  0.00    +0.000 N 
ATOM      9  C   UNL     1       4.604   3.878  19.269  0.00  0.00    +0.000 C 
ATOM     10  O   UNL     1       4.568   2.797  19.864  0.00  0.00    +0.000 OA
ATOM     11  C   UNL     1       3.814   6.277  19.351  0.00  0.00    +0.000 C 
ATOM     12  C   UNL     1       2.523   7.026  19.040  0.00  0.00    +0.000 C 
BRANCH   9  13
ATOM     13  C   UNL     1       5.664   4.172  18.303  0.00  0.00    +0.000 A 
ATOM     14  N   UNL     1       6.912   4.549  18.546  0.00  0.00    +0.000 NA
ATOM     15  C   UNL     1       7.450   4.747  17.299  0.00  0.00    +0.000 A 
ATOM     16  C   UNL     1       6.511   4.481  16.337  0.00  0.00    +0.000 A 
ATOM     17  O   UNL     1       5.357   4.125  16.962  0.00  0.00    +0.000 OA
ENDBRANCH   9  13
ENDBRANCH   3   5
BRANCH   1  18
ATOM     18  N   UNL     1      -0.002   9.933  20.462  0.00  0.00    +0.000 N 
ATOM     19  C   UNL     1      -1.239   9.708  19.834  0.00  0.00    +0.000 A 
ATOM     20  C   UNL     1      -1.336  10.563  18.749  0.00  0.00    +0.000 A 
ATOM     21  C   UNL     1      -0.075  11.224  18.788  0.00  0.00    +0.000 A 
ATOM     22  N   UNL     1       0.710  10.865  19.817  0.00  0.00    +0.000 NA
BRANCH  20  23
ATOM     23  C   UNL     1      -2.398  10.837  17.765  0.00  0.00    +0.000 A 
ATOM     24  N   UNL     1      -1.980  10.586  16.485  0.00  0.00    +0.000 NA
ATOM     25  C   UNL     1      -2.853  10.690  15.470  0.00  0.00    +0.000 A 
ATOM     26  N   UNL     1      -4.176  10.823  15.554  0.00  0.00    +0.000 NA
ATOM     27  C   UNL     1      -4.541  11.163  16.794  0.00  0.00    +0.000 A 
ATOM     28  N   UNL     1      -5.828  11.489  17.114  0.00  0.00    +0.000 N 
ATOM     29  C   UNL     1      -5.795  12.239  18.258  0.00  0.00    +0.000 A 
ATOM     30  C   UNL     1      -4.531  12.087  18.816  0.00  0.00    +0.000 A 
ATOM     31  C   UNL     1      -3.718  11.328  17.915  0.00  0.00    +0.000 A 
ATOM     32  H   UNL     1      -6.608  11.382  16.478  0.00  0.00    +0.000 HD
ENDBRANCH  20  23
ENDBRANCH   1  18
BRANCH   1  33
ATOM     33  C   UNL     1       0.351   9.915  22.976  0.00  0.00    +0.000 C 
BRANCH  33  35
ATOM     34  N   UNL     1      -1.796  11.402  22.866  0.00  0.00    +0.000 NA
ATOM     35  C   UNL     1      -0.865  10.731  22.928  0.00  0.00    +0.000 C 
ENDBRANCH  33  35
ENDBRANCH   1  33
TORSDOF 6
ENDMDL
MODEL 6
REMARK VINA RESULT:      -7.1      3.118      4.210
REMARK  Name = 
REMARK  6 active torsions:
REMARK  status: ('A' for Active; 'I' for Inactive)
REMARK    1  A    between atoms: C_2  and  C_3
REMARK    2  A    between atoms: C_3  and  C_4
REMARK    3  A    between atoms: C_4  and  N_5
REMARK    4  A    between atoms: C_7  and  C_8
REMARK    5  A    between atoms: N_20  and  C_21
REMARK    6  A    between atoms: C_25  and  C_27
REMARK                            x       y       z     vdW  Elec       q    Type
REMARK                         _______ _______ _______ _____ _____    ______ ____
ROOT
ATOM      1  C   UNL     1      -0.224  10.348  18.481  0.00  0.00    +0.000 C 
ATOM      2  C   UNL     1       0.208  11.814  18.635  0.00  0.00    +0.000 C 
ATOM      3  N   UNL     1      -0.581  11.959  19.874  0.00  0.00    +0.000 NA
ATOM      4  C   UNL     1      -1.199  10.629  19.653  0.00  0.00    +0.000 C 
ENDROOT
BRANCH   3   5
ATOM      5  C   UNL     1       0.207  11.925  21.123  0.00  0.00    +0.000 C 
ATOM      6  C   UNL     1      -0.697  11.473  22.288  0.00  0.00    +0.000 C 
ATOM      7  C   UNL     1      -1.680  12.552  22.727  0.00  0.00    +0.000 C 
ATOM      8  N   UNL     1      -0.982  13.783  23.081  0.00  0.00    +0.000 N 
ATOM      9  C   UNL     1      -1.570  14.598  24.077  0.00  0.00    +0.000 C 
ATOM     10  O   UNL     1      -2.633  14.251  24.600  0.00  0.00    +0.000 OA
ATOM     11  C   UNL     1      -0.118  14.313  22.029  0.00  0.00    +0.000 C 
ATOM     12  C   UNL     1       0.858  13.266  21.504  0.00  0.00    +0.000 C 
BRANCH   9  13
ATOM     13  C   UNL     1      -0.894  15.831  24.488  0.00  0.00    +0.000 A 
ATOM     14  N   UNL     1       0.018  15.988  25.437  0.00  0.00    +0.000 NA
ATOM     15  C   UNL     1       0.264  17.338  25.446  0.00  0.00    +0.000 A 
ATOM     16  C   UNL     1      -0.505  17.959  24.497  0.00  0.00    +0.000 A 
ATOM     17  O   UNL     1      -1.264  17.011  23.883  0.00  0.00    +0.000 OA
ENDBRANCH   9  13
ENDBRANCH   3   5
BRANCH   1  18
ATOM     18  N   UNL     1       0.815   9.337  18.788  0.00  0.00    +0.000 N 
ATOM     19  C   UNL     1       1.641   8.611  17.914  0.00  0.00    +0.000 A 
ATOM     20  C   UNL     1       2.400   7.730  18.666  0.00  0.00    +0.000 A 
ATOM     21  C   UNL     1       1.910   7.976  19.981  0.00  0.00    +0.000 A 
ATOM     22  N   UNL     1       0.983   8.945  20.056  0.00  0.00    +0.000 NA
BRANCH  20  23
ATOM     23  C   UNL     1       3.468   6.772  18.334  0.00  0.00    +0.000 A 
ATOM     24  N   UNL     1       4.289   7.249  17.346  0.00  0.00    +0.000 NA
ATOM     25  C   UNL     1       5.375   6.545  16.987  0.00  0.00    +0.000 A 
ATOM     26  N   UNL     1       5.897   5.492  17.616  0.00  0.00    +0.000 NA
ATOM     27  C   UNL     1       5.033   4.992  18.503  0.00  0.00    +0.000 A 
ATOM     28  N   UNL     1       5.273   3.833  19.183  0.00  0.00    +0.000 N 
ATOM     29  C   UNL     1       4.068   3.340  19.604  0.00  0.00    +0.000 A 
ATOM     30  C   UNL     1       3.134   4.361  19.472  0.00  0.00    +0.000 A 
ATOM     31  C   UNL     1       3.758   5.475  18.824  0.00  0.00    +0.000 A 
ATOM     32  H   UNL     1       6.157   3.340  19.159  0.00  0.00    +0.000 HD
ENDBRANCH  20  23
ENDBRANCH   1  18
BRANCH   1  33
ATOM     33  C   UNL     1      -1.109   9.999  17.270  0.00  0.00    +0.000 C 
BRANCH  33  35
ATOM     34  N   UNL     1      -3.618   9.873  17.992  0.00  0.00    +0.000 NA
ATOM     35  C   UNL     1      -2.518   9.907  17.661  0.00  0.00    +0.000 C 
ENDBRANCH  33  35
ENDBRANCH   1  33
TORSDOF 6
ENDMDL
MODEL 7
REMARK VINA RESULT:      -7.1      2.670      3.593
REMARK  Name = 
REMARK  6 active torsions:
REMARK  status: ('A' for Active; 'I' for Inactive)
REMARK    1  A    between atoms: C_2  and  C_3
REMARK    2  A    between atoms: C_3  and  C_4
REMARK    3  A    between atoms: C_4  and  N_5
REMARK    4  A    between atoms: C_7  and  C_8
REMARK    5  A    between atoms: N_20  and  C_21
REMARK    6  A    between atoms: C_25  and  C_27
REMARK                            x       y       z     vdW  Elec       q    Type
REMARK                         _______ _______ _______ _____ _____    ______ ____
ROOT
ATOM      1  C   UNL     1      -0.202  10.233  18.464  0.00  0.00    +0.000 C 
ATOM      2  C   UNL     1       0.245  11.701  18.491  0.00  0.00    +0.000 C 
ATOM      3  N   UNL     1      -0.430  11.925  19.784  0.00  0.00    +0.000 NA
ATOM      4  C   UNL     1      -1.068  10.589  19.699  0.00  0.00    +0.000 C 
ENDROOT
BRANCH   3   5
ATOM      5  C   UNL     1       0.467  11.960  20.957  0.00  0.00    +0.000 C 
ATOM      6  C   UNL     1      -0.376  12.092  22.243  0.00  0.00    +0.000 C 
ATOM      7  C   UNL     1      -0.962  13.488  22.426  0.00  0.00    +0.000 C 
ATOM      8  N   UNL     1       0.086  14.502  22.405  0.00  0.00    +0.000 N 
ATOM      9  C   UNL     1      -0.127  15.670  23.175  0.00  0.00    +0.000 C 
ATOM     10  O   UNL     1      -1.172  15.792  23.822  0.00  0.00    +0.000 OA
ATOM     11  C   UNL     1       0.926  14.481  21.209  0.00  0.00    +0.000 C 
ATOM     12  C   UNL     1       1.503  13.097  20.936  0.00  0.00    +0.000 C 
BRANCH   9  13
ATOM     13  C   UNL     1       0.907  16.706  23.210  0.00  0.00    +0.000 A 
ATOM     14  N   UNL     1       2.013  16.736  23.941  0.00  0.00    +0.000 NA
ATOM     15  C   UNL     1       2.584  17.947  23.636  0.00  0.00    +0.000 A 
ATOM     16  C   UNL     1       1.807  18.613  22.724  0.00  0.00    +0.000 A 
ATOM     17  O   UNL     1       0.722  17.840  22.451  0.00  0.00    +0.000 OA
ENDBRANCH   9  13
ENDBRANCH   3   5
BRANCH   1  18
ATOM     18  N   UNL     1       0.858   9.234  18.737  0.00  0.00    +0.000 N 
ATOM     19  C   UNL     1       1.683   8.537  17.837  0.00  0.00    +0.000 A 
ATOM     20  C   UNL     1       2.468   7.656  18.562  0.00  0.00    +0.000 A 
ATOM     21  C   UNL     1       1.994   7.871  19.888  0.00  0.00    +0.000 A 
ATOM     22  N   UNL     1       1.053   8.823  19.995  0.00  0.00    +0.000 NA
BRANCH  20  23
ATOM     23  C   UNL     1       3.547   6.722  18.196  0.00  0.00    +0.000 A 
ATOM     24  N   UNL     1       4.305   7.202  17.161  0.00  0.00    +0.000 NA
ATOM     25  C   UNL     1       5.392   6.522  16.763  0.00  0.00    +0.000 A 
ATOM     26  N   UNL     1       5.975   5.498  17.385  0.00  0.00    +0.000 NA
ATOM     27  C   UNL     1       5.169   4.991  18.323  0.00  0.00    +0.000 A 
ATOM     28  N   UNL     1       5.475   3.854  19.013  0.00  0.00    +0.000 N 
ATOM     29  C   UNL     1       4.307   3.335  19.501  0.00  0.00    +0.000 A 
ATOM     30  C   UNL     1       3.339   4.327  19.396  0.00  0.00    +0.000 A 
ATOM     31  C   UNL     1       3.897   5.444  18.697  0.00  0.00    +0.000 A 
ATOM     32  H   UNL     1       6.372   3.386  18.955  0.00  0.00    +0.000 HD
ENDBRANCH  20  23
ENDBRANCH   1  18
BRANCH   1  33
ATOM     33  C   UNL     1      -1.192   9.818  17.359  0.00  0.00    +0.000 C 
BRANCH  33  35
ATOM     34  N   UNL     1      -3.167  11.522  17.181  0.00  0.00    +0.000 NA
ATOM     35  C   UNL     1      -2.284  10.789  17.245  0.00  0.00    +0.000 C 
ENDBRANCH  33  35
ENDBRANCH   1  33
TORSDOF 6
ENDMDL
MODEL 8
REMARK VINA RESULT:      -7.0      2.267      3.153
REMARK  Name = 
REMARK  6 active torsions:
REMARK  status: ('A' for Active; 'I' for Inactive)
REMARK    1  A    between atoms: C_2  and  C_3
REMARK    2  A    between atoms: C_3  and  C_4
REMARK    3  A    between atoms: C_4  and  N_5
REMARK    4  A    between atoms: C_7  and  C_8
REMARK    5  A    between atoms: N_20  and  C_21
REMARK    6  A    between atoms: C_25  and  C_27
REMARK                            x       y       z     vdW  Elec       q    Type
REMARK                         _______ _______ _______ _____ _____    ______ ____
ROOT
ATOM      1  C   UNL     1      -0.202  10.334  18.494  0.00  0.00    +0.000 C 
ATOM      2  C   UNL     1       0.291  11.778  18.319  0.00  0.00    +0.000 C 
ATOM      3  N   UNL     1      -0.255  12.167  19.634  0.00  0.00    +0.000 NA
ATOM      4  C   UNL     1      -0.939  10.857  19.753  0.00  0.00    +0.000 C 
ENDROOT
BRANCH   3   5
ATOM      5  C   UNL     1       0.747  12.291  20.712  0.00  0.00    +0.000 C 
ATOM      6  C   UNL     1       0.294  13.377  21.710  0.00  0.00    +0.000 C 
ATOM      7  C   UNL     1       0.451  14.789  21.158  0.00  0.00    +0.000 C 
ATOM      8  N   UNL     1       1.825  15.037  20.735  0.00  0.00    +0.000 N 
ATOM      9  C   UNL     1       2.305  16.364  20.834  0.00  0.00    +0.000 C 
ATOM     10  O   UNL     1       1.561  17.252  21.262  0.00  0.00    +0.000 OA
ATOM     11  C   UNL     1       2.342  14.076  19.762  0.00  0.00    +0.000 C 
ATOM     12  C   UNL     1       2.166  12.635  20.229  0.00  0.00    +0.000 C 
BRANCH   9  13
ATOM     13  C   UNL     1       3.686  16.659  20.448  0.00  0.00    +0.000 A 
ATOM     14  N   UNL     1       4.120  17.245  19.340  0.00  0.00    +0.000 NA
ATOM     15  C   UNL     1       5.487  17.216  19.460  0.00  0.00    +0.000 A 
ATOM     16  C   UNL     1       5.841  16.616  20.640  0.00  0.00    +0.000 A 
ATOM     17  O   UNL     1       4.701  16.241  21.279  0.00  0.00    +0.000 OA
ENDBRANCH   9  13
ENDBRANCH   3   5
BRANCH   1  18
ATOM     18  N   UNL     1       0.848   9.328  18.781  0.00  0.00    +0.000 N 
ATOM     19  C   UNL     1       1.664   8.609  17.892  0.00  0.00    +0.000 A 
ATOM     20  C   UNL     1       2.440   7.730  18.629  0.00  0.00    +0.000 A 
ATOM     21  C   UNL     1       1.969   7.969  19.952  0.00  0.00    +0.000 A 
ATOM     22  N   UNL     1       1.039   8.933  20.045  0.00  0.00    +0.000 NA
BRANCH  20  23
ATOM     23  C   UNL     1       3.508   6.779  18.277  0.00  0.00    +0.000 A 
ATOM     24  N   UNL     1       4.314   7.266  17.283  0.00  0.00    +0.000 NA
ATOM     25  C   UNL     1       5.399   6.570  16.906  0.00  0.00    +0.000 A 
ATOM     26  N   UNL     1       5.934   5.516  17.520  0.00  0.00    +0.000 NA
ATOM     27  C   UNL     1       5.083   5.005  18.415  0.00  0.00    +0.000 A 
ATOM     28  N   UNL     1       5.336   3.843  19.085  0.00  0.00    +0.000 N 
ATOM     29  C   UNL     1       4.139   3.342  19.517  0.00  0.00    +0.000 A 
ATOM     30  C   UNL     1       3.199   4.359  19.404  0.00  0.00    +0.000 A 
ATOM     31  C   UNL     1       3.810   5.480  18.756  0.00  0.00    +0.000 A 
ATOM     32  H   UNL     1       6.223   3.354  19.046  0.00  0.00    +0.000 HD
ENDBRANCH  20  23
ENDBRANCH   1  18
BRANCH   1  33
ATOM     33  C   UNL     1      -1.302   9.844  17.533  0.00  0.00    +0.000 C 
BRANCH  33  35
ATOM     34  N   UNL     1      -3.206  11.622  17.318  0.00  0.00    +0.000 NA
ATOM     35  C   UNL     1      -2.358  10.850  17.391  0.00  0.00    +0.000 C 
ENDBRANCH  33  35
ENDBRANCH   1  33
TORSDOF 6
ENDMDL
MODEL 9
REMARK VINA RESULT:      -7.0      1.230      1.298
REMARK  Name = 
REMARK  6 active torsions:
REMARK  status: ('A' for Active; 'I' for Inactive)
REMARK    1  A    between atoms: C_2  and  C_3
REMARK    2  A    between atoms: C_3  and  C_4
REMARK    3  A    between atoms: C_4  and  N_5
REMARK    4  A    between atoms: C_7  and  C_8
REMARK    5  A    between atoms: N_20  and  C_21
REMARK    6  A    between atoms: C_25  and  C_27
REMARK                            x       y       z     vdW  Elec       q    Type
REMARK                         _______ _______ _______ _____ _____    ______ ____
ROOT
ATOM      1  C   UNL     1       0.227   9.646  20.797  0.00  0.00    +0.000 C 
ATOM      2  C   UNL     1      -0.788  10.426  19.949  0.00  0.00    +0.000 C 
ATOM      3  N   UNL     1      -0.013  11.674  20.096  0.00  0.00    +0.000 NA
ATOM      4  C   UNL     1       0.869  11.025  21.095  0.00  0.00    +0.000 C 
ENDROOT
BRANCH   3   5
ATOM      5  C   UNL     1       0.788  12.052  18.915  0.00  0.00    +0.000 C 
ATOM      6  C   UNL     1       2.117  12.685  19.379  0.00  0.00    +0.000 C 
ATOM      7  C   UNL     1       1.940  14.094  19.933  0.00  0.00    +0.000 C 
ATOM      8  N   UNL     1       1.283  14.961  18.960  0.00  0.00    +0.000 N 
ATOM      9  C   UNL     1       1.614  16.336  18.989  0.00  0.00    +0.000 C 
ATOM     10  O   UNL     1       2.427  16.750  19.821  0.00  0.00    +0.000 OA
ATOM     11  C   UNL     1      -0.004  14.463  18.477  0.00  0.00    +0.000 C 
ATOM     12  C   UNL     1       0.091  13.034  17.957  0.00  0.00    +0.000 C 
BRANCH   9  13
ATOM     13  C   UNL     1       1.003  17.243  18.015  0.00  0.00    +0.000 A 
ATOM     14  N   UNL     1       1.586  17.871  17.003  0.00  0.00    +0.000 NA
ATOM     15  C   UNL     1       0.581  18.631  16.458  0.00  0.00    +0.000 A 
ATOM     16  C   UNL     1      -0.582  18.437  17.155  0.00  0.00    +0.000 A 
ATOM     17  O   UNL     1      -0.328  17.562  18.164  0.00  0.00    +0.000 OA
ENDBRANCH   9  13
ENDBRANCH   3   5
BRANCH   1  18
ATOM     18  N   UNL     1       1.109   8.717  20.051  0.00  0.00    +0.000 N 
ATOM     19  C   UNL     1       1.574   7.441  20.412  0.00  0.00    +0.000 A 
ATOM     20  C   UNL     1       2.432   6.996  19.422  0.00  0.00    +0.000 A 
ATOM     21  C   UNL     1       2.451   8.109  18.533  0.00  0.00    +0.000 A 
ATOM     22  N   UNL     1       1.649   9.123  18.896  0.00  0.00    +0.000 NA
BRANCH  20  23
ATOM     23  C   UNL     1       3.165   5.737  19.206  0.00  0.00    +0.000 A 
ATOM     24  N   UNL     1       4.464   5.963  18.833  0.00  0.00    +0.000 NA
ATOM     25  C   UNL     1       5.304   4.925  18.689  0.00  0.00    +0.000 A 
ATOM     26  N   UNL     1       5.096   3.662  19.059  0.00  0.00    +0.000 NA
ATOM     27  C   UNL     1       3.802   3.451  19.321  0.00  0.00    +0.000 A 
ATOM     28  N   UNL     1       3.305   2.209  19.591  0.00  0.00    +0.000 N 
ATOM     29  C   UNL     1       1.963   2.231  19.327  0.00  0.00    +0.000 A 
ATOM     30  C   UNL     1       1.585   3.564  19.218  0.00  0.00    +0.000 A 
ATOM     31  C   UNL     1       2.757   4.382  19.284  0.00  0.00    +0.000 A 
ATOM     32  H   UNL     1       3.885   1.390  19.732  0.00  0.00    +0.000 HD
ENDBRANCH  20  23
ENDBRANCH   1  18
BRANCH   1  33
ATOM     33  C   UNL     1      -0.259   9.104  22.155  0.00  0.00    +0.000 C 
BRANCH  33  35
ATOM     34  N   UNL     1       1.616   9.297  23.966  0.00  0.00    +0.000 NA
ATOM     35  C   UNL     1       0.785   9.236  23.174  0.00  0.00    +0.000 C 
ENDBRANCH  33  35
ENDBRANCH   1  33
TORSDOF 6
ENDMDL
