MODEL 1
REMARK VINA RESULT:      -8.3      0.000      0.000
REMARK  Name = 
REMARK  12 active torsions:
REMARK  status: ('A' for Active; 'I' for Inactive)
REMARK    1  A    between atoms: C_1  and  C_2
REMARK    2  A    between atoms: C_2  and  C_3
REMARK    3  A    between atoms: C_3  and  C_4
REMARK    4  A    between atoms: C_4  and  O_5
REMARK    5  A    between atoms: O_5  and  C_6
REMARK    6  A    between atoms: C_6  and  C_8
REMARK    7  A    between atoms: C_10  and  C_11
REMARK    8  A    between atoms: C_13  and  C_14
REMARK    9  A    between atoms: C_14  and  C_15
REMARK   10  A    between atoms: C_15  and  C_16
REMARK   11  A    between atoms: C_16  and  C_17
REMARK   12  A    between atoms: N_21  and  C_22
REMARK                            x       y       z     vdW  Elec       q    Type
REMARK                         _______ _______ _______ _____ _____    ______ ____
ROOT
ATOM      1  C   UNL     1       4.285   4.660  17.501  0.00  0.00    +0.000 C 
ATOM      2  C   UNL     1       4.247   6.086  17.001  0.00  0.00    +0.000 C 
ATOM      3  C   UNL     1       5.550   6.230  16.238  0.00  0.00    +0.000 C 
ATOM      4  N   UNL     1       5.834   4.850  15.829  0.00  0.00    +0.000 N 
ATOM      5  O   UNL     1       5.120   3.916  16.605  0.00  0.00    +0.000 OA
ENDROOT
BRANCH   3   6
ATOM      6  C   UNL     1       6.637   6.848  17.045  0.00  0.00    +0.000 A 
ATOM      7  N   UNL     1       6.833   8.209  17.089  0.00  0.00    +0.000 N 
ATOM      8  C   UNL     1       7.879   8.453  17.940  0.00  0.00    +0.000 A 
ATOM      9  N   UNL     1       8.331   7.329  18.457  0.00  0.00    +0.000 NA
ATOM     10  C   UNL     1       7.585   6.326  17.897  0.00  0.00    +0.000 A 
ATOM     11 CL   UNL     1       7.868   4.688  18.252  0.00  0.00    +0.000 Cl
ATOM     12  H   UNL     1       6.309   8.892  16.558  0.00  0.00    +0.000 HD
BRANCH   8  13
ATOM     13  C   UNL     1       8.444   9.814  18.156  0.00  0.00    +0.000 C 
BRANCH  13  14
ATOM     14  C   UNL     1       9.340   9.859  19.398  0.00  0.00    +0.000 C 
BRANCH  14  15
ATOM     15  C   UNL     1       9.418  11.256  20.021  0.00  0.00    +0.000 C 
ATOM     16  C   UNL     1      10.852  11.750  20.108  0.00  0.00    +0.000 C 
ENDBRANCH  14  15
ENDBRANCH  13  14
ENDBRANCH   8  13
ENDBRANCH   3   6
BRANCH   4  17
ATOM     17  C   UNL     1       6.216   4.568  14.506  0.00  0.00    +0.000 A 
ATOM     18  C   UNL     1       7.344   5.173  13.919  0.00  0.00    +0.000 A 
ATOM     19  C   UNL     1       7.730   4.892  12.605  0.00  0.00    +0.000 A 
ATOM     20  C   UNL     1       6.999   3.991  11.843  0.00  0.00    +0.000 A 
ATOM     21  C   UNL     1       5.896   3.359  12.406  0.00  0.00    +0.000 A 
ATOM     22  C   UNL     1       5.517   3.636  13.725  0.00  0.00    +0.000 A 
ENDBRANCH   4  17
BRANCH   1  23
ATOM     23  C   UNL     1       4.629   4.514  18.992  0.00  0.00    +0.000 C 
ATOM     24  O   UNL     1       4.739   5.429  19.798  0.00  0.00    +0.000 OA
BRANCH  23  25
ATOM     25  O   UNL     1       4.991   3.217  19.255  0.00  0.00    +0.000 OA
BRANCH  25  26
ATOM     26  C   UNL     1       4.119   2.521  20.161  0.00  0.00    +0.000 C 
BRANCH  26  27
ATOM     27  C   UNL     1       2.712   2.324  19.598  0.00  0.00    +0.000 C 
BRANCH  27  29
ATOM     28  C   UNL     1       1.107   4.167  20.292  0.00  0.00    +0.000 C 
ATOM     29  C   UNL     1       1.648   2.780  20.605  0.00  0.00    +0.000 C 
ENDBRANCH  27  29
ENDBRANCH  26  27
ENDBRANCH  25  26
ENDBRANCH  23  25
ENDBRANCH   1  23
TORSDOF 10
ENDMDL
MODEL 2
REMARK VINA RESULT:      -8.2      0.665      1.157
REMARK  Name = 
REMARK  12 active torsions:
REMARK  status: ('A' for Active; 'I' for Inactive)
REMARK    1  A    between atoms: C_1  and  C_2
REMARK    2  A    between atoms: C_2  and  C_3
REMARK    3  A    between atoms: C_3  and  C_4
REMARK    4  A    between atoms: C_4  and  O_5
REMARK    5  A    between atoms: O_5  and  C_6
REMARK    6  A    between atoms: C_6  and  C_8
REMARK    7  A    between atoms: C_10  and  C_11
REMARK    8  A    between atoms: C_13  and  C_14
REMARK    9  A    between atoms: C_14  and  C_15
REMARK   10  A    between atoms: C_15  and  C_16
REMARK   11  A    between atoms: C_16  and  C_17
REMARK   12  A    between atoms: N_21  and  C_22
REMARK                            x       y       z     vdW  Elec       q    Type
REMARK                         _______ _______ _______ _____ _____    ______ ____
ROOT
ATOM      1  C   UNL     1       4.292   4.658  17.506  0.00  0.00    +0.000 C 
ATOM      2  C   UNL     1       4.233   6.080  16.994  0.00  0.00    +0.000 C 
ATOM      3  C   UNL     1       5.532   6.234  16.225  0.00  0.00    +0.000 C 
ATOM      4  N   UNL     1       5.833   4.854  15.828  0.00  0.00    +0.000 N 
ATOM      5  O   UNL     1       5.135   3.918  16.614  0.00  0.00    +0.000 OA
ENDROOT
BRANCH   3   6
ATOM      6  C   UNL     1       6.613   6.874  17.023  0.00  0.00    +0.000 A 
ATOM      7  N   UNL     1       6.777   8.239  17.070  0.00  0.00    +0.000 N 
ATOM      8  C   UNL     1       7.826   8.505  17.911  0.00  0.00    +0.000 A 
ATOM      9  N   UNL     1       8.310   7.389  18.418  0.00  0.00    +0.000 NA
ATOM     10  C   UNL     1       7.582   6.372  17.863  0.00  0.00    +0.000 A 
ATOM     11 CL   UNL     1       7.906   4.739  18.209  0.00  0.00    +0.000 Cl
ATOM     12  H   UNL     1       6.232   8.911  16.547  0.00  0.00    +0.000 HD
BRANCH   8  13
ATOM     13  C   UNL     1       8.362   9.878  18.125  0.00  0.00    +0.000 C 
BRANCH  13  14
ATOM     14  C   UNL     1       9.365   9.914  19.284  0.00  0.00    +0.000 C 
BRANCH  14  15
ATOM     15  C   UNL     1      10.043  11.278  19.437  0.00  0.00    +0.000 C 
ATOM     16  C   UNL     1      10.994  11.562  18.287  0.00  0.00    +0.000 C 
ENDBRANCH  14  15
ENDBRANCH  13  14
ENDBRANCH   8  13
ENDBRANCH   3   6
BRANCH   4  17
ATOM     17  C   UNL     1       6.215   4.565  14.506  0.00  0.00    +0.000 A 
ATOM     18  C   UNL     1       7.350   5.157  13.921  0.00  0.00    +0.000 A 
ATOM     19  C   UNL     1       7.737   4.869  12.608  0.00  0.00    +0.000 A 
ATOM     20  C   UNL     1       6.998   3.975  11.847  0.00  0.00    +0.000 A 
ATOM     21  C   UNL     1       5.886   3.356  12.408  0.00  0.00    +0.000 A 
ATOM     22  C   UNL     1       5.508   3.639  13.726  0.00  0.00    +0.000 A 
ENDBRANCH   4  17
BRANCH   1  23
ATOM     23  C   UNL     1       4.643   4.531  18.998  0.00  0.00    +0.000 C 
ATOM     24  O   UNL     1       5.171   3.566  19.534  0.00  0.00    +0.000 OA
BRANCH  23  25
ATOM     25  O   UNL     1       4.099   5.585  19.689  0.00  0.00    +0.000 OA
BRANCH  25  26
ATOM     26  C   UNL     1       2.670   5.532  19.838  0.00  0.00    +0.000 C 
BRANCH  26  27
ATOM     27  C   UNL     1       2.223   4.559  20.930  0.00  0.00    +0.000 C 
BRANCH  27  29
ATOM     28  C   UNL     1       1.618   2.419  19.703  0.00  0.00    +0.000 C 
ATOM     29  C   UNL     1       1.094   3.651  20.426  0.00  0.00    +0.000 C 
ENDBRANCH  27  29
ENDBRANCH  26  27
ENDBRANCH  25  26
ENDBRANCH  23  25
ENDBRANCH   1  23
TORSDOF 10
ENDMDL
MODEL 3
REMARK VINA RESULT:      -7.7      0.765      1.434
REMARK  Name = 
REMARK  12 active torsions:
REMARK  status: ('A' for Active; 'I' for Inactive)
REMARK    1  A    between atoms: C_1  and  C_2
REMARK    2  A    between atoms: C_2  and  C_3
REMARK    3  A    between atoms: C_3  and  C_4
REMARK    4  A    between atoms: C_4  and  O_5
REMARK    5  A    between atoms: O_5  and  C_6
REMARK    6  A    between atoms: C_6  and  C_8
REMARK    7  A    between atoms: C_10  and  C_11
REMARK    8  A    between atoms: C_13  and  C_14
REMARK    9  A    between atoms: C_14  and  C_15
REMARK   10  A    between atoms: C_15  and  C_16
REMARK   11  A    between atoms: C_16  and  C_17
REMARK   12  A    between atoms: N_21  and  C_22
REMARK                            x       y       z     vdW  Elec       q    Type
REMARK                         _______ _______ _______ _____ _____    ______ ____
ROOT
ATOM      1  C   UNL     1       4.140   5.223  17.597  0.00  0.00    +0.000 C 
ATOM      2  C   UNL     1       4.249   6.612  17.011  0.00  0.00    +0.000 C 
ATOM      3  C   UNL     1       5.581   6.587  16.284  0.00  0.00    +0.000 C 
ATOM      4  N   UNL     1       5.745   5.164  15.969  0.00  0.00    +0.000 N 
ATOM      5  O   UNL     1       4.927   4.351  16.776  0.00  0.00    +0.000 OA
ENDROOT
BRANCH   3   6
ATOM      6  C   UNL     1       6.699   7.153  17.088  0.00  0.00    +0.000 A 
ATOM      7  N   UNL     1       6.932   8.507  17.165  0.00  0.00    +0.000 N 
ATOM      8  C   UNL     1       7.999   8.699  18.003  0.00  0.00    +0.000 A 
ATOM      9  N   UNL     1       8.429   7.549  18.481  0.00  0.00    +0.000 NA
ATOM     10  C   UNL     1       7.646   6.583  17.908  0.00  0.00    +0.000 A 
ATOM     11 CL   UNL     1       7.890   4.929  18.214  0.00  0.00    +0.000 Cl
ATOM     12  H   UNL     1       6.419   9.218  16.661  0.00  0.00    +0.000 HD
BRANCH   8  13
ATOM     13  C   UNL     1       8.606  10.038  18.245  0.00  0.00    +0.000 C 
BRANCH  13  14
ATOM     14  C   UNL     1       9.393  10.068  19.559  0.00  0.00    +0.000 C 
BRANCH  14  15
ATOM     15  C   UNL     1      10.349  11.261  19.648  0.00  0.00    +0.000 C 
ATOM     16  C   UNL     1      10.168  12.027  20.947  0.00  0.00    +0.000 C 
ENDBRANCH  14  15
ENDBRANCH  13  14
ENDBRANCH   8  13
ENDBRANCH   3   6
BRANCH   4  17
ATOM     17  C   UNL     1       6.136   4.764  14.679  0.00  0.00    +0.000 A 
ATOM     18  C   UNL     1       5.367   3.859  13.924  0.00  0.00    +0.000 A 
ATOM     19  C   UNL     1       5.750   3.461  12.639  0.00  0.00    +0.000 A 
ATOM     20  C   UNL     1       6.913   3.964  12.073  0.00  0.00    +0.000 A 
ATOM     21  C   UNL     1       7.678   4.880  12.787  0.00  0.00    +0.000 A 
ATOM     22  C   UNL     1       7.287   5.283  14.069  0.00  0.00    +0.000 A 
ENDBRANCH   4  17
BRANCH   1  23
ATOM     23  C   UNL     1       4.429   5.142  19.106  0.00  0.00    +0.000 C 
ATOM     24  O   UNL     1       5.410   4.625  19.624  0.00  0.00    +0.000 OA
BRANCH  23  25
ATOM     25  O   UNL     1       3.326   5.561  19.807  0.00  0.00    +0.000 OA
BRANCH  25  26
ATOM     26  C   UNL     1       2.710   4.548  20.619  0.00  0.00    +0.000 C 
BRANCH  26  27
ATOM     27  C   UNL     1       1.194   4.473  20.428  0.00  0.00    +0.000 C 
BRANCH  27  29
ATOM     28  C   UNL     1       1.782   2.344  19.174  0.00  0.00    +0.000 C 
ATOM     29  C   UNL     1       0.759   3.053  20.048  0.00  0.00    +0.000 C 
ENDBRANCH  27  29
ENDBRANCH  26  27
ENDBRANCH  25  26
ENDBRANCH  23  25
ENDBRANCH   1  23
TORSDOF 10
ENDMDL
MODEL 4
REMARK VINA RESULT:      -7.5      1.850      5.483
REMARK  Name = 
REMARK  12 active torsions:
REMARK  status: ('A' for Active; 'I' for Inactive)
REMARK    1  A    between atoms: C_1  and  C_2
REMARK    2  A    between atoms: C_2  and  C_3
REMARK    3  A    between atoms: C_3  and  C_4
REMARK    4  A    between atoms: C_4  and  O_5
REMARK    5  A    between atoms: O_5  and  C_6
REMARK    6  A    between atoms: C_6  and  C_8
REMARK    7  A    between atoms: C_10  and  C_11
REMARK    8  A    between atoms: C_13  and  C_14
REMARK    9  A    between atoms: C_14  and  C_15
REMARK   10  A    between atoms: C_15  and  C_16
REMARK   11  A    between atoms: C_16  and  C_17
REMARK   12  A    between atoms: N_21  and  C_22
REMARK                            x       y       z     vdW  Elec       q    Type
REMARK                         _______ _______ _______ _____ _____    ______ ____
ROOT
ATOM      1  C   UNL     1       6.369   3.782  15.628  0.00  0.00    +0.000 C 
ATOM      2  C   UNL     1       7.260   3.936  16.840  0.00  0.00    +0.000 C 
ATOM      3  C   UNL     1       6.432   4.791  17.782  0.00  0.00    +0.000 C 
ATOM      4  N   UNL     1       5.059   4.486  17.366  0.00  0.00    +0.000 N 
ATOM      5  O   UNL     1       5.014   3.931  16.073  0.00  0.00    +0.000 OA
ENDROOT
BRANCH   3   6
ATOM      6  C   UNL     1       6.770   6.239  17.710  0.00  0.00    +0.000 A 
ATOM      7  N   UNL     1       7.848   6.773  18.378  0.00  0.00    +0.000 N 
ATOM      8  C   UNL     1       7.904   8.109  18.079  0.00  0.00    +0.000 A 
ATOM      9  N   UNL     1       6.945   8.439  17.239  0.00  0.00    +0.000 NA
ATOM     10  C   UNL     1       6.224   7.296  17.017  0.00  0.00    +0.000 A 
ATOM     11 CL   UNL     1       4.849   7.278  16.018  0.00  0.00    +0.000 Cl
ATOM     12  H   UNL     1       8.461   6.263  18.999  0.00  0.00    +0.000 HD
BRANCH   8  13
ATOM     13  C   UNL     1       8.884   9.037  18.708  0.00  0.00    +0.000 C 
BRANCH  13  14
ATOM     14  C   UNL     1       8.766  10.453  18.133  0.00  0.00    +0.000 C 
BRANCH  14  15
ATOM     15  C   UNL     1       9.839  11.402  18.672  0.00  0.00    +0.000 C 
ATOM     16  C   UNL     1       9.900  11.373  20.189  0.00  0.00    +0.000 C 
ENDBRANCH  14  15
ENDBRANCH  13  14
ENDBRANCH   8  13
ENDBRANCH   3   6
BRANCH   4  17
ATOM     17  C   UNL     1       4.076   4.193  18.327  0.00  0.00    +0.000 A 
ATOM     18  C   UNL     1       4.285   3.218  19.321  0.00  0.00    +0.000 A 
ATOM     19  C   UNL     1       3.311   2.927  20.281  0.00  0.00    +0.000 A 
ATOM     20  C   UNL     1       2.102   3.607  20.274  0.00  0.00    +0.000 A 
ATOM     21  C   UNL     1       1.879   4.593  19.319  0.00  0.00    +0.000 A 
ATOM     22  C   UNL     1       2.859   4.890  18.365  0.00  0.00    +0.000 A 
ENDBRANCH   4  17
BRANCH   1  23
ATOM     23  C   UNL     1       6.766   4.658  14.428  0.00  0.00    +0.000 C 
ATOM     24  O   UNL     1       7.654   5.499  14.413  0.00  0.00    +0.000 OA
BRANCH  23  25
ATOM     25  O   UNL     1       5.846   4.500  13.421  0.00  0.00    +0.000 OA
BRANCH  25  26
ATOM     26  C   UNL     1       5.874   3.214  12.778  0.00  0.00    +0.000 C 
BRANCH  26  27
ATOM     27  C   UNL     1       5.369   3.260  11.336  0.00  0.00    +0.000 C 
BRANCH  27  29
ATOM     28  C   UNL     1       3.259   3.879  10.064  0.00  0.00    +0.000 C 
ATOM     29  C   UNL     1       3.837   3.186  11.288  0.00  0.00    +0.000 C 
ENDBRANCH  27  29
ENDBRANCH  26  27
ENDBRANCH  25  26
ENDBRANCH  23  25
ENDBRANCH   1  23
TORSDOF 10
ENDMDL
MODEL 5
REMARK VINA RESULT:      -7.3      0.908      1.486
REMARK  Name = 
REMARK  12 active torsions:
REMARK  status: ('A' for Active; 'I' for Inactive)
REMARK    1  A    between atoms: C_1  and  C_2
REMARK    2  A    between atoms: C_2  and  C_3
REMARK    3  A    between atoms: C_3  and  C_4
REMARK    4  A    between atoms: C_4  and  O_5
REMARK    5  A    between atoms: O_5  and  C_6
REMARK    6  A    between atoms: C_6  and  C_8
REMARK    7  A    between atoms: C_10  and  C_11
REMARK    8  A    between atoms: C_13  and  C_14
REMARK    9  A    between atoms: C_14  and  C_15
REMARK   10  A    between atoms: C_15  and  C_16
REMARK   11  A    between atoms: C_16  and  C_17
REMARK   12  A    between atoms: N_21  and  C_22
REMARK                            x       y       z     vdW  Elec       q    Type
REMARK                         _______ _______ _______ _____ _____    ______ ____
ROOT
ATOM      1  C   UNL     1       4.053   5.106  17.335  0.00  0.00    +0.000 C 
ATOM      2  C   UNL     1       4.318   6.524  16.883  0.00  0.00    +0.000 C 
ATOM      3  C   UNL     1       5.694   6.444  16.250  0.00  0.00    +0.000 C 
ATOM      4  N   UNL     1       5.768   5.043  15.823  0.00  0.00    +0.000 N 
ATOM      5  O   UNL     1       4.828   4.239  16.497  0.00  0.00    +0.000 OA
ENDROOT
BRANCH   3   6
ATOM      6  C   UNL     1       6.789   6.843  17.177  0.00  0.00    +0.000 A 
ATOM      7  N   UNL     1       7.099   8.162  17.418  0.00  0.00    +0.000 N 
ATOM      8  C   UNL     1       8.118   8.190  18.334  0.00  0.00    +0.000 A 
ATOM      9  N   UNL     1       8.444   6.970  18.705  0.00  0.00    +0.000 NA
ATOM     10  C   UNL     1       7.644   6.126  17.984  0.00  0.00    +0.000 A 
ATOM     11 CL   UNL     1       7.765   4.436  18.118  0.00  0.00    +0.000 Cl
ATOM     12  H   UNL     1       6.665   8.956  16.966  0.00  0.00    +0.000 HD
BRANCH   8  13
ATOM     13  C   UNL     1       8.788   9.452  18.757  0.00  0.00    +0.000 C 
BRANCH  13  14
ATOM     14  C   UNL     1       8.648  10.546  17.694  0.00  0.00    +0.000 C 
BRANCH  14  15
ATOM     15  C   UNL     1       9.620  11.709  17.910  0.00  0.00    +0.000 C 
ATOM     16  C   UNL     1       8.900  13.046  17.922  0.00  0.00    +0.000 C 
ENDBRANCH  14  15
ENDBRANCH  13  14
ENDBRANCH   8  13
ENDBRANCH   3   6
BRANCH   4  17
ATOM     17  C   UNL     1       6.223   4.718  14.533  0.00  0.00    +0.000 A 
ATOM     18  C   UNL     1       5.534   3.800  13.718  0.00  0.00    +0.000 A 
ATOM     19  C   UNL     1       5.981   3.478  12.433  0.00  0.00    +0.000 A 
ATOM     20  C   UNL     1       7.130   4.070  11.927  0.00  0.00    +0.000 A 
ATOM     21  C   UNL     1       7.816   4.999  12.702  0.00  0.00    +0.000 A 
ATOM     22  C   UNL     1       7.361   5.327  13.984  0.00  0.00    +0.000 A 
ENDBRANCH   4  17
BRANCH   1  23
ATOM     23  C   UNL     1       4.218   4.876  18.847  0.00  0.00    +0.000 C 
ATOM     24  O   UNL     1       4.134   5.731  19.718  0.00  0.00    +0.000 OA
BRANCH  23  25
ATOM     25  O   UNL     1       4.669   3.600  19.070  0.00  0.00    +0.000 OA
BRANCH  25  26
ATOM     26  C   UNL     1       3.920   2.860  20.049  0.00  0.00    +0.000 C 
BRANCH  26  27
ATOM     27  C   UNL     1       2.416   3.123  19.969  0.00  0.00    +0.000 C 
BRANCH  27  29
ATOM     28  C   UNL     1       2.256   1.971  17.711  0.00  0.00    +0.000 C 
ATOM     29  C   UNL     1       1.715   2.047  19.130  0.00  0.00    +0.000 C 
ENDBRANCH  27  29
ENDBRANCH  26  27
ENDBRANCH  25  26
ENDBRANCH  23  25
ENDBRANCH   1  23
TORSDOF 10
ENDMDL
MODEL 6
REMARK VINA RESULT:      -7.3      2.571      5.518
REMARK  Name = 
REMARK  12 active torsions:
REMARK  status: ('A' for Active; 'I' for Inactive)
REMARK    1  A    between atoms: C_1  and  C_2
REMARK    2  A    between atoms: C_2  and  C_3
REMARK    3  A    between atoms: C_3  and  C_4
REMARK    4  A    between atoms: C_4  and  O_5
REMARK    5  A    between atoms: O_5  and  C_6
REMARK    6  A    between atoms: C_6  and  C_8
REMARK    7  A    between atoms: C_10  and  C_11
REMARK    8  A    between atoms: C_13  and  C_14
REMARK    9  A    between atoms: C_14  and  C_15
REMARK   10  A    between atoms: C_15  and  C_16
REMARK   11  A    between atoms: C_16  and  C_17
REMARK   12  A    between atoms: N_21  and  C_22
REMARK                            x       y       z     vdW  Elec       q    Type
REMARK                         _______ _______ _______ _____ _____    ______ ____
ROOT
ATOM      1  C   UNL     1       7.599   4.732  17.788  0.00  0.00    +0.000 C 
ATOM      2  C   UNL     1       6.457   3.743  17.848  0.00  0.00    +0.000 C 
ATOM      3  C   UNL     1       5.555   4.171  16.706  0.00  0.00    +0.000 C 
ATOM      4  N   UNL     1       6.493   4.827  15.788  0.00  0.00    +0.000 N 
ATOM      5  O   UNL     1       7.686   5.201  16.436  0.00  0.00    +0.000 OA
ENDROOT
BRANCH   3   6
ATOM      6  C   UNL     1       4.435   5.050  17.142  0.00  0.00    +0.000 A 
ATOM      7  N   UNL     1       4.506   6.421  17.059  0.00  0.00    +0.000 N 
ATOM      8  C   UNL     1       3.312   6.928  17.500  0.00  0.00    +0.000 A 
ATOM      9  N   UNL     1       2.484   5.956  17.825  0.00  0.00    +0.000 NA
ATOM     10  C   UNL     1       3.173   4.789  17.626  0.00  0.00    +0.000 A 
ATOM     11 CL   UNL     1       2.489   3.271  17.970  0.00  0.00    +0.000 Cl
ATOM     12  H   UNL     1       5.314   6.947  16.755  0.00  0.00    +0.000 HD
BRANCH   8  13
ATOM     13  C   UNL     1       3.061   8.389  17.652  0.00  0.00    +0.000 C 
BRANCH  13  14
ATOM     14  C   UNL     1       1.871   8.660  18.579  0.00  0.00    +0.000 C 
BRANCH  14  15
ATOM     15  C   UNL     1       1.297  10.069  18.408  0.00  0.00    +0.000 C 
ATOM     16  C   UNL     1      -0.203  10.037  18.174  0.00  0.00    +0.000 C 
ENDBRANCH  14  15
ENDBRANCH  13  14
ENDBRANCH   8  13
ENDBRANCH   3   6
BRANCH   4  17
ATOM     17  C   UNL     1       6.464   4.530  14.415  0.00  0.00    +0.000 A 
ATOM     18  C   UNL     1       7.455   5.008  13.536  0.00  0.00    +0.000 A 
ATOM     19  C   UNL     1       7.432   4.712  12.170  0.00  0.00    +0.000 A 
ATOM     20  C   UNL     1       6.417   3.924  11.646  0.00  0.00    +0.000 A 
ATOM     21  C   UNL     1       5.439   3.418  12.495  0.00  0.00    +0.000 A 
ATOM     22  C   UNL     1       5.470   3.708  13.864  0.00  0.00    +0.000 A 
ENDBRANCH   4  17
BRANCH   1  23
ATOM     23  C   UNL     1       7.549   5.832  18.862  0.00  0.00    +0.000 C 
ATOM     24  O   UNL     1       7.532   5.655  20.073  0.00  0.00    +0.000 OA
BRANCH  23  25
ATOM     25  O   UNL     1       7.328   7.047  18.265  0.00  0.00    +0.000 OA
BRANCH  25  26
ATOM     26  C   UNL     1       8.368   8.017  18.473  0.00  0.00    +0.000 C 
BRANCH  26  27
ATOM     27  C   UNL     1       8.053   9.372  17.838  0.00  0.00    +0.000 C 
BRANCH  27  29
ATOM     28  C   UNL     1       9.376  10.393  19.750  0.00  0.00    +0.000 C 
ATOM     29  C   UNL     1       9.083  10.428  18.258  0.00  0.00    +0.000 C 
ENDBRANCH  27  29
ENDBRANCH  26  27
ENDBRANCH  25  26
ENDBRANCH  23  25
ENDBRANCH   1  23
TORSDOF 10
ENDMDL
MODEL 7
REMARK VINA RESULT:      -7.2      1.497      2.193
REMARK  Name = 
REMARK  12 active torsions:
REMARK  status: ('A' for Active; 'I' for Inactive)
REMARK    1  A    between atoms: C_1  and  C_2
REMARK    2  A    between atoms: C_2  and  C_3
REMARK    3  A    between atoms: C_3  and  C_4
REMARK    4  A    between atoms: C_4  and  O_5
REMARK    5  A    between atoms: O_5  and  C_6
REMARK    6  A    between atoms: C_6  and  C_8
REMARK    7  A    between atoms: C_10  and  C_11
REMARK    8  A    between atoms: C_13  and  C_14
REMARK    9  A    between atoms: C_14  and  C_15
REMARK   10  A    between atoms: C_15  and  C_16
REMARK   11  A    between atoms: C_16  and  C_17
REMARK   12  A    between atoms: N_21  and  C_22
REMARK                            x       y       z     vdW  Elec       q    Type
REMARK                         _______ _______ _______ _____ _____    ______ ____
ROOT
ATOM      1  C   UNL     1       4.027   5.176  17.310  0.00  0.00    +0.000 C 
ATOM      2  C   UNL     1       4.320   6.586  16.850  0.00  0.00    +0.000 C 
ATOM      3  C   UNL     1       5.698   6.477  16.226  0.00  0.00    +0.000 C 
ATOM      4  N   UNL     1       5.749   5.072  15.810  0.00  0.00    +0.000 N 
ATOM      5  O   UNL     1       4.791   4.290  16.483  0.00  0.00    +0.000 OA
ENDROOT
BRANCH   3   6
ATOM      6  C   UNL     1       6.795   6.863  17.156  0.00  0.00    +0.000 A 
ATOM      7  N   UNL     1       7.110   8.178  17.410  0.00  0.00    +0.000 N 
ATOM      8  C   UNL     1       8.129   8.194  18.326  0.00  0.00    +0.000 A 
ATOM      9  N   UNL     1       8.451   6.968  18.686  0.00  0.00    +0.000 NA
ATOM     10  C   UNL     1       7.646   6.134  17.956  0.00  0.00    +0.000 A 
ATOM     11 CL   UNL     1       7.761   4.443  18.074  0.00  0.00    +0.000 Cl
ATOM     12  H   UNL     1       6.679   8.978  16.967  0.00  0.00    +0.000 HD
BRANCH   8  13
ATOM     13  C   UNL     1       8.804   9.448  18.762  0.00  0.00    +0.000 C 
BRANCH  13  14
ATOM     14  C   UNL     1       8.673  10.552  17.707  0.00  0.00    +0.000 C 
BRANCH  14  15
ATOM     15  C   UNL     1       9.030  11.937  18.252  0.00  0.00    +0.000 C 
ATOM     16  C   UNL     1      10.236  12.525  17.541  0.00  0.00    +0.000 C 
ENDBRANCH  14  15
ENDBRANCH  13  14
ENDBRANCH   8  13
ENDBRANCH   3   6
BRANCH   4  17
ATOM     17  C   UNL     1       6.206   4.730  14.525  0.00  0.00    +0.000 A 
ATOM     18  C   UNL     1       5.496   3.832  13.705  0.00  0.00    +0.000 A 
ATOM     19  C   UNL     1       5.945   3.492  12.425  0.00  0.00    +0.000 A 
ATOM     20  C   UNL     1       7.116   4.047  11.928  0.00  0.00    +0.000 A 
ATOM     21  C   UNL     1       7.824   4.956  12.707  0.00  0.00    +0.000 A 
ATOM     22  C   UNL     1       7.367   5.302  13.984  0.00  0.00    +0.000 A 
ENDBRANCH   4  17
BRANCH   1  23
ATOM     23  C   UNL     1       4.178   4.954  18.825  0.00  0.00    +0.000 C 
ATOM     24  O   UNL     1       4.687   3.980  19.362  0.00  0.00    +0.000 OA
BRANCH  23  25
ATOM     25  O   UNL     1       3.481   5.923  19.502  0.00  0.00    +0.000 OA
BRANCH  25  26
ATOM     26  C   UNL     1       2.099   5.610  19.744  0.00  0.00    +0.000 C 
BRANCH  26  27
ATOM     27  C   UNL     1       1.510   6.393  20.918  0.00  0.00    +0.000 C 
BRANCH  27  29
ATOM     28  C   UNL     1       0.442   8.664  21.308  0.00  0.00    +0.000 C 
ATOM     29  C   UNL     1       1.592   7.904  20.667  0.00  0.00    +0.000 C 
ENDBRANCH  27  29
ENDBRANCH  26  27
ENDBRANCH  25  26
ENDBRANCH  23  25
ENDBRANCH   1  23
TORSDOF 10
ENDMDL
MODEL 8
REMARK VINA RESULT:      -7.2      1.836      5.706
REMARK  Name = 
REMARK  12 active torsions:
REMARK  status: ('A' for Active; 'I' for Inactive)
REMARK    1  A    between atoms: C_1  and  C_2
REMARK    2  A    between atoms: C_2  and  C_3
REMARK    3  A    between atoms: C_3  and  C_4
REMARK    4  A    between atoms: C_4  and  O_5
REMARK    5  A    between atoms: O_5  and  C_6
REMARK    6  A    between atoms: C_6  and  C_8
REMARK    7  A    between atoms: C_10  and  C_11
REMARK    8  A    between atoms: C_13  and  C_14
REMARK    9  A    between atoms: C_14  and  C_15
REMARK   10  A    between atoms: C_15  and  C_16
REMARK   11  A    between atoms: C_16  and  C_17
REMARK   12  A    between atoms: N_21  and  C_22
REMARK                            x       y       z     vdW  Elec       q    Type
REMARK                         _______ _______ _______ _____ _____    ______ ____
ROOT
ATOM      1  C   UNL     1       6.046   3.719  15.909  0.00  0.00    +0.000 C 
ATOM      2  C   UNL     1       7.014   3.911  17.054  0.00  0.00    +0.000 C 
ATOM      3  C   UNL     1       6.279   4.857  17.985  0.00  0.00    +0.000 C 
ATOM      4  N   UNL     1       4.873   4.586  17.670  0.00  0.00    +0.000 N 
ATOM      5  O   UNL     1       4.728   3.952  16.421  0.00  0.00    +0.000 OA
ENDROOT
BRANCH   3   6
ATOM      6  C   UNL     1       6.667   6.282  17.798  0.00  0.00    +0.000 A 
ATOM      7  N   UNL     1       7.767   6.828  18.419  0.00  0.00    +0.000 N 
ATOM      8  C   UNL     1       7.868   8.134  18.017  0.00  0.00    +0.000 A 
ATOM      9  N   UNL     1       6.916   8.431  17.156  0.00  0.00    +0.000 NA
ATOM     10  C   UNL     1       6.155   7.301  17.027  0.00  0.00    +0.000 A 
ATOM     11 CL   UNL     1       4.774   7.254  16.037  0.00  0.00    +0.000 Cl
ATOM     12  H   UNL     1       8.365   6.347  19.077  0.00  0.00    +0.000 HD
BRANCH   8  13
ATOM     13  C   UNL     1       8.884   9.073  18.569  0.00  0.00    +0.000 C 
BRANCH  13  14
ATOM     14  C   UNL     1       8.834  10.433  17.863  0.00  0.00    +0.000 C 
BRANCH  14  15
ATOM     15  C   UNL     1       9.225  11.592  18.783  0.00  0.00    +0.000 C 
ATOM     16  C   UNL     1      10.289  11.177  19.784  0.00  0.00    +0.000 C 
ENDBRANCH  14  15
ENDBRANCH  13  14
ENDBRANCH   8  13
ENDBRANCH   3   6
BRANCH   4  17
ATOM     17  C   UNL     1       3.939   4.395  18.704  0.00  0.00    +0.000 A 
ATOM     18  C   UNL     1       3.860   3.180  19.411  0.00  0.00    +0.000 A 
ATOM     19  C   UNL     1       2.936   2.988  20.443  0.00  0.00    +0.000 A 
ATOM     20  C   UNL     1       2.067   4.010  20.797  0.00  0.00    +0.000 A 
ATOM     21  C   UNL     1       2.141   5.230  20.132  0.00  0.00    +0.000 A 
ATOM     22  C   UNL     1       3.073   5.422  19.107  0.00  0.00    +0.000 A 
ENDBRANCH   4  17
BRANCH   1  23
ATOM     23  C   UNL     1       6.402   4.499  14.633  0.00  0.00    +0.000 C 
ATOM     24  O   UNL     1       7.151   5.465  14.565  0.00  0.00    +0.000 OA
BRANCH  23  25
ATOM     25  O   UNL     1       5.602   4.080  13.599  0.00  0.00    +0.000 OA
BRANCH  25  26
ATOM     26  C   UNL     1       6.312   3.555  12.465  0.00  0.00    +0.000 C 
BRANCH  26  27
ATOM     27  C   UNL     1       5.538   2.455  11.737  0.00  0.00    +0.000 C 
BRANCH  27  29
ATOM     28  C   UNL     1       6.164   0.033  11.296  0.00  0.00    +0.000 C 
ATOM     29  C   UNL     1       6.494   1.492  11.022  0.00  0.00    +0.000 C 
ENDBRANCH  27  29
ENDBRANCH  26  27
ENDBRANCH  25  26
ENDBRANCH  23  25
ENDBRANCH   1  23
TORSDOF 10
ENDMDL
MODEL 9
REMARK VINA RESULT:      -7.1      2.811      6.219
REMARK  Name = 
REMARK  12 active torsions:
REMARK  status: ('A' for Active; 'I' for Inactive)
REMARK    1  A    between atoms: C_1  and  C_2
REMARK    2  A    between atoms: C_2  and  C_3
REMARK    3  A    between atoms: C_3  and  C_4
REMARK    4  A    between atoms: C_4  and  O_5
REMARK    5  A    between atoms: O_5  and  C_6
REMARK    6  A    between atoms: C_6  and  C_8
REMARK    7  A    between atoms: C_10  and  C_11
REMARK    8  A    between atoms: C_13  and  C_14
REMARK    9  A    between atoms: C_14  and  C_15
REMARK   10  A    between atoms: C_15  and  C_16
REMARK   11  A    between atoms: C_16  and  C_17
REMARK   12  A    between atoms: N_21  and  C_22
REMARK                            x       y       z     vdW  Elec       q    Type
REMARK                         _______ _______ _______ _____ _____    ______ ____
ROOT
ATOM      1  C   UNL     1       4.041   4.341  19.806  0.00  0.00    +0.000 C 
ATOM      2  C   UNL     1       5.218   5.289  19.765  0.00  0.00    +0.000 C 
ATOM      3  C   UNL     1       4.816   6.310  18.718  0.00  0.00    +0.000 C 
ATOM      4  N   UNL     1       3.351   6.259  18.768  0.00  0.00    +0.000 N 
ATOM      5  O   UNL     1       2.888   5.074  19.372  0.00  0.00    +0.000 OA
ENDROOT
BRANCH   3   6
ATOM      6  C   UNL     1       5.376   6.018  17.369  0.00  0.00    +0.000 A 
ATOM      7  N   UNL     1       4.723   5.212  16.465  0.00  0.00    +0.000 N 
ATOM      8  C   UNL     1       5.476   5.174  15.320  0.00  0.00    +0.000 A 
ATOM      9  N   UNL     1       6.546   5.933  15.441  0.00  0.00    +0.000 NA
ATOM     10  C   UNL     1       6.506   6.445  16.711  0.00  0.00    +0.000 A 
ATOM     11 CL   UNL     1       7.736   7.454  17.312  0.00  0.00    +0.000 Cl
ATOM     12  H   UNL     1       3.858   4.718  16.641  0.00  0.00    +0.000 HD
BRANCH   8  13
ATOM     13  C   UNL     1       5.132   4.312  14.155  0.00  0.00    +0.000 C 
BRANCH  13  14
ATOM     14  C   UNL     1       6.389   3.762  13.473  0.00  0.00    +0.000 C 
BRANCH  14  15
ATOM     15  C   UNL     1       6.185   3.500  11.979  0.00  0.00    +0.000 C 
ATOM     16  C   UNL     1       6.763   2.159  11.562  0.00  0.00    +0.000 C 
ENDBRANCH  14  15
ENDBRANCH  13  14
ENDBRANCH   8  13
ENDBRANCH   3   6
BRANCH   4  17
ATOM     17  C   UNL     1       2.602   7.448  18.813  0.00  0.00    +0.000 A 
ATOM     18  C   UNL     1       1.895   7.831  19.969  0.00  0.00    +0.000 A 
ATOM     19  C   UNL     1       1.152   9.015  20.019  0.00  0.00    +0.000 A 
ATOM     20  C   UNL     1       1.100   9.850  18.912  0.00  0.00    +0.000 A 
ATOM     21  C   UNL     1       1.809   9.508  17.765  0.00  0.00    +0.000 A 
ATOM     22  C   UNL     1       2.560   8.328  17.722  0.00  0.00    +0.000 A 
ENDBRANCH   4  17
BRANCH   1  23
ATOM     23  C   UNL     1       4.275   3.001  19.089  0.00  0.00    +0.000 C 
ATOM     24  O   UNL     1       5.029   2.110  19.457  0.00  0.00    +0.000 OA
BRANCH  23  25
ATOM     25  O   UNL     1       3.660   3.023  17.862  0.00  0.00    +0.000 OA
BRANCH  25  26
ATOM     26  C   UNL     1       2.561   2.107  17.724  0.00  0.00    +0.000 C 
BRANCH  26  27
ATOM     27  C   UNL     1       1.280   2.612  18.388  0.00  0.00    +0.000 C 
BRANCH  27  29
ATOM     28  C   UNL     1       0.949   2.951  20.883  0.00  0.00    +0.000 C 
ATOM     29  C   UNL     1       1.067   1.942  19.751  0.00  0.00    +0.000 C 
ENDBRANCH  27  29
ENDBRANCH  26  27
ENDBRANCH  25  26
ENDBRANCH  23  25
ENDBRANCH   1  23
TORSDOF 10
ENDMDL
