MODEL 1
REMARK VINA RESULT:      -6.7      0.000      0.000
REMARK  Name = 
REMARK  7 active torsions:
REMARK  status: ('A' for Active; 'I' for Inactive)
REMARK    1  A    between atoms: C_1  and  C_2
REMARK    2  A    between atoms: C_2  and  C_3
REMARK    3  A    between atoms: C_3  and  C_4
REMARK    4  A    between atoms: C_3  and  C_5
REMARK    5  A    between atoms: C_5  and  N_6
REMARK    6  A    between atoms: C_5  and  C_7
REMARK    7  A    between atoms: C_10  and  C_11
REMARK                            x       y       z     vdW  Elec       q    Type
REMARK                         _______ _______ _______ _____ _____    ______ ____
ROOT
ATOM      1  C   UNL     1       4.622   3.743  19.211  0.00  0.00    +0.000 C 
ATOM      2  O   UNL     1       5.250   2.815  19.758  0.00  0.00    +0.000 OA
ATOM      3  N   UNL     1       3.234   3.853  19.464  0.00  0.00    +0.000 N 
ATOM      4  C   UNL     1       1.940   4.761  19.105  0.00  0.00    +0.000 C 
ATOM      5  C   UNL     1       1.031   4.497  20.320  0.00  0.00    +0.000 C 
ATOM      6  C   UNL     1       1.302   3.080  20.706  0.00  0.00    +0.000 C 
ATOM      7  C   UNL     1       2.414   2.719  21.672  0.00  0.00    +0.000 C 
ATOM      8  C   UNL     1       2.671   2.718  20.199  0.00  0.00    +0.000 C 
ENDROOT
BRANCH   4   9
ATOM      9  C   UNL     1       2.268   6.238  18.956  0.00  0.00    +0.000 C 
ATOM     10  N   UNL     1       2.539   7.463  18.831  0.00  0.00    +0.000 NA
ENDBRANCH   4   9
BRANCH   1  11
ATOM     11  C   UNL     1       5.489   4.684  18.287  0.00  0.00    +0.000 C 
BRANCH  11  12
ATOM     12  N   UNL     1       6.906   4.190  18.213  0.00  0.00    +0.000 NA
ATOM     13  H   UNL     1       7.463   4.935  17.776  0.00  0.00    +0.000 HD
ATOM     14  H   UNL     1       6.960   3.429  17.532  0.00  0.00    +0.000 HD
ENDBRANCH  11  12
BRANCH  11  15
ATOM     15  C   UNL     1       5.023   4.908  16.819  0.00  0.00    +0.000 C 
ATOM     16  C   UNL     1       5.089   6.308  16.160  0.00  0.00    +0.000 C 
BRANCH  15  18
ATOM     17  C   UNL     1       6.097   4.479  14.569  0.00  0.00    +0.000 C 
ATOM     18  C   UNL     1       5.655   3.874  15.897  0.00  0.00    +0.000 C 
ENDBRANCH  15  18
ENDBRANCH  11  15
ENDBRANCH   1  11
TORSDOF 5
ENDMDL
MODEL 2
REMARK VINA RESULT:      -6.4      1.558      1.761
REMARK  Name = 
REMARK  7 active torsions:
REMARK  status: ('A' for Active; 'I' for Inactive)
REMARK    1  A    between atoms: C_1  and  C_2
REMARK    2  A    between atoms: C_2  and  C_3
REMARK    3  A    between atoms: C_3  and  C_4
REMARK    4  A    between atoms: C_3  and  C_5
REMARK    5  A    between atoms: C_5  and  N_6
REMARK    6  A    between atoms: C_5  and  C_7
REMARK    7  A    between atoms: C_10  and  C_11
REMARK                            x       y       z     vdW  Elec       q    Type
REMARK                         _______ _______ _______ _____ _____    ______ ____
ROOT
ATOM      1  C   UNL     1       5.035   4.199  19.092  0.00  0.00    +0.000 C 
ATOM      2  O   UNL     1       5.480   3.202  19.695  0.00  0.00    +0.000 OA
ATOM      3  N   UNL     1       3.748   4.111  18.509  0.00  0.00    +0.000 N 
ATOM      4  C   UNL     1       2.669   4.975  17.664  0.00  0.00    +0.000 C 
ATOM      5  C   UNL     1       1.349   4.274  18.040  0.00  0.00    +0.000 C 
ATOM      6  C   UNL     1       1.710   2.834  18.207  0.00  0.00    +0.000 C 
ATOM      7  C   UNL     1       2.186   2.285  19.538  0.00  0.00    +0.000 C 
ATOM      8  C   UNL     1       3.178   2.761  18.527  0.00  0.00    +0.000 C 
ENDROOT
BRANCH   4   9
ATOM      9  C   UNL     1       2.652   6.447  18.042  0.00  0.00    +0.000 C 
ATOM     10  N   UNL     1       2.639   7.669  18.356  0.00  0.00    +0.000 NA
ENDBRANCH   4   9
BRANCH   1  11
ATOM     11  C   UNL     1       5.999   5.448  19.062  0.00  0.00    +0.000 C 
BRANCH  11  12
ATOM     12  N   UNL     1       7.174   5.228  19.972  0.00  0.00    +0.000 NA
ATOM     13  H   UNL     1       6.800   4.931  20.882  0.00  0.00    +0.000 HD
ATOM     14  H   UNL     1       7.609   6.129  20.182  0.00  0.00    +0.000 HD
ENDBRANCH  11  12
BRANCH  11  15
ATOM     15  C   UNL     1       6.581   5.897  17.690  0.00  0.00    +0.000 C 
ATOM     16  C   UNL     1       7.459   7.167  17.567  0.00  0.00    +0.000 C 
BRANCH  15  18
ATOM     17  C   UNL     1       6.621   4.395  15.655  0.00  0.00    +0.000 C 
ATOM     18  C   UNL     1       7.266   4.728  16.995  0.00  0.00    +0.000 C 
ENDBRANCH  15  18
ENDBRANCH  11  15
ENDBRANCH   1  11
TORSDOF 5
ENDMDL
MODEL 3
REMARK VINA RESULT:      -6.3      1.998      5.064
REMARK  Name = 
REMARK  7 active torsions:
REMARK  status: ('A' for Active; 'I' for Inactive)
REMARK    1  A    between atoms: C_1  and  C_2
REMARK    2  A    between atoms: C_2  and  C_3
REMARK    3  A    between atoms: C_3  and  C_4
REMARK    4  A    between atoms: C_3  and  C_5
REMARK    5  A    between atoms: C_5  and  N_6
REMARK    6  A    between atoms: C_5  and  C_7
REMARK    7  A    between atoms: C_10  and  C_11
REMARK                            x       y       z     vdW  Elec       q    Type
REMARK                         _______ _______ _______ _____ _____    ______ ____
ROOT
ATOM      1  C   UNL     1       4.892   3.775  18.499  0.00  0.00    +0.000 C 
ATOM      2  O   UNL     1       5.131   3.399  19.665  0.00  0.00    +0.000 OA
ATOM      3  N   UNL     1       5.606   4.887  17.994  0.00  0.00    +0.000 N 
ATOM      4  C   UNL     1       5.768   5.803  16.666  0.00  0.00    +0.000 C 
ATOM      5  C   UNL     1       7.199   6.348  16.840  0.00  0.00    +0.000 C 
ATOM      6  C   UNL     1       7.374   6.514  18.314  0.00  0.00    +0.000 C 
ATOM      7  C   UNL     1       7.880   5.381  19.186  0.00  0.00    +0.000 C 
ATOM      8  C   UNL     1       6.411   5.585  19.001  0.00  0.00    +0.000 C 
ENDROOT
BRANCH   4   9
ATOM      9  C   UNL     1       5.617   5.017  15.374  0.00  0.00    +0.000 C 
ATOM     10  N   UNL     1       5.492   4.364  14.303  0.00  0.00    +0.000 NA
ENDBRANCH   4   9
BRANCH   1  11
ATOM     11  C   UNL     1       3.795   2.935  17.737  0.00  0.00    +0.000 C 
BRANCH  11  12
ATOM     12  N   UNL     1       3.935   1.473  18.057  0.00  0.00    +0.000 NA
ATOM     13  H   UNL     1       3.710   0.953  17.199  0.00  0.00    +0.000 HD
ATOM     14  H   UNL     1       3.187   1.198  18.698  0.00  0.00    +0.000 HD
ENDBRANCH  11  12
BRANCH  11  15
ATOM     15  C   UNL     1       2.299   3.295  17.967  0.00  0.00    +0.000 C 
ATOM     16  C   UNL     1       1.339   2.317  18.689  0.00  0.00    +0.000 C 
BRANCH  15  18
ATOM     17  C   UNL     1       1.618   4.645  19.994  0.00  0.00    +0.000 C 
ATOM     18  C   UNL     1       2.173   4.685  18.576  0.00  0.00    +0.000 C 
ENDBRANCH  15  18
ENDBRANCH  11  15
ENDBRANCH   1  11
TORSDOF 5
ENDMDL
MODEL 4
REMARK VINA RESULT:      -6.2      1.386      1.896
REMARK  Name = 
REMARK  7 active torsions:
REMARK  status: ('A' for Active; 'I' for Inactive)
REMARK    1  A    between atoms: C_1  and  C_2
REMARK    2  A    between atoms: C_2  and  C_3
REMARK    3  A    between atoms: C_3  and  C_4
REMARK    4  A    between atoms: C_3  and  C_5
REMARK    5  A    between atoms: C_5  and  N_6
REMARK    6  A    between atoms: C_5  and  C_7
REMARK    7  A    between atoms: C_10  and  C_11
REMARK                            x       y       z     vdW  Elec       q    Type
REMARK                         _______ _______ _______ _____ _____    ______ ____
ROOT
ATOM      1  C   UNL     1       4.579   3.402  19.256  0.00  0.00    +0.000 C 
ATOM      2  O   UNL     1       5.114   2.483  19.908  0.00  0.00    +0.000 OA
ATOM      3  N   UNL     1       3.210   3.677  19.485  0.00  0.00    +0.000 N 
ATOM      4  C   UNL     1       2.011   4.662  19.018  0.00  0.00    +0.000 C 
ATOM      5  C   UNL     1       1.085   4.627  20.249  0.00  0.00    +0.000 C 
ATOM      6  C   UNL     1       1.216   3.242  20.793  0.00  0.00    +0.000 C 
ATOM      7  C   UNL     1       2.291   2.884  21.800  0.00  0.00    +0.000 C 
ATOM      8  C   UNL     1       2.540   2.692  20.339  0.00  0.00    +0.000 C 
ENDROOT
BRANCH   4   9
ATOM      9  C   UNL     1       2.482   6.073  18.707  0.00  0.00    +0.000 C 
ATOM     10  N   UNL     1       2.874   7.244  18.449  0.00  0.00    +0.000 NA
ENDBRANCH   4   9
BRANCH   1  11
ATOM     11  C   UNL     1       5.531   4.144  18.239  0.00  0.00    +0.000 C 
BRANCH  11  12
ATOM     12  N   UNL     1       4.832   4.361  16.926  0.00  0.00    +0.000 NA
ATOM     13  H   UNL     1       4.260   3.525  16.746  0.00  0.00    +0.000 HD
ATOM     14  H   UNL     1       5.521   4.338  16.172  0.00  0.00    +0.000 HD
ENDBRANCH  11  12
BRANCH  11  15
ATOM     15  C   UNL     1       6.124   5.521  18.655  0.00  0.00    +0.000 C 
ATOM     16  C   UNL     1       7.408   5.615  19.516  0.00  0.00    +0.000 C 
BRANCH  15  18
ATOM     17  C   UNL     1       7.461   7.353  17.534  0.00  0.00    +0.000 C 
ATOM     18  C   UNL     1       6.249   6.435  17.443  0.00  0.00    +0.000 C 
ENDBRANCH  15  18
ENDBRANCH  11  15
ENDBRANCH   1  11
TORSDOF 5
ENDMDL
MODEL 5
REMARK VINA RESULT:      -6.2      1.682      2.265
REMARK  Name = 
REMARK  7 active torsions:
REMARK  status: ('A' for Active; 'I' for Inactive)
REMARK    1  A    between atoms: C_1  and  C_2
REMARK    2  A    between atoms: C_2  and  C_3
REMARK    3  A    between atoms: C_3  and  C_4
REMARK    4  A    between atoms: C_3  and  C_5
REMARK    5  A    between atoms: C_5  and  N_6
REMARK    6  A    between atoms: C_5  and  C_7
REMARK    7  A    between atoms: C_10  and  C_11
REMARK                            x       y       z     vdW  Elec       q    Type
REMARK                         _______ _______ _______ _____ _____    ______ ____
ROOT
ATOM      1  C   UNL     1       5.135   4.175  19.101  0.00  0.00    +0.000 C 
ATOM      2  O   UNL     1       5.504   3.183  19.762  0.00  0.00    +0.000 OA
ATOM      3  N   UNL     1       3.860   4.136  18.490  0.00  0.00    +0.000 N 
ATOM      4  C   UNL     1       2.855   5.023  17.577  0.00  0.00    +0.000 C 
ATOM      5  C   UNL     1       1.487   4.421  17.950  0.00  0.00    +0.000 C 
ATOM      6  C   UNL     1       1.755   2.972  18.194  0.00  0.00    +0.000 C 
ATOM      7  C   UNL     1       2.165   2.460  19.561  0.00  0.00    +0.000 C 
ATOM      8  C   UNL     1       3.208   2.826  18.555  0.00  0.00    +0.000 C 
ENDROOT
BRANCH   4   9
ATOM      9  C   UNL     1       2.921   6.510  17.886  0.00  0.00    +0.000 C 
ATOM     10  N   UNL     1       2.975   7.744  18.141  0.00  0.00    +0.000 NA
ENDBRANCH   4   9
BRANCH   1  11
ATOM     11  C   UNL     1       6.175   5.361  19.038  0.00  0.00    +0.000 C 
BRANCH  11  12
ATOM     12  N   UNL     1       7.211   5.211  20.117  0.00  0.00    +0.000 NA
ATOM     13  H   UNL     1       6.712   5.209  21.016  0.00  0.00    +0.000 HD
ATOM     14  H   UNL     1       7.772   6.064  20.163  0.00  0.00    +0.000 HD
ENDBRANCH  11  12
BRANCH  11  15
ATOM     15  C   UNL     1       6.952   5.590  17.710  0.00  0.00    +0.000 C 
ATOM     16  C   UNL     1       6.880   4.566  16.550  0.00  0.00    +0.000 C 
BRANCH  15  18
ATOM     17  C   UNL     1       7.761   7.985  17.618  0.00  0.00    +0.000 C 
ATOM     18  C   UNL     1       6.693   6.992  17.176  0.00  0.00    +0.000 C 
ENDBRANCH  15  18
ENDBRANCH  11  15
ENDBRANCH   1  11
TORSDOF 5
ENDMDL
MODEL 6
REMARK VINA RESULT:      -6.1      2.154      3.498
REMARK  Name = 
REMARK  7 active torsions:
REMARK  status: ('A' for Active; 'I' for Inactive)
REMARK    1  A    between atoms: C_1  and  C_2
REMARK    2  A    between atoms: C_2  and  C_3
REMARK    3  A    between atoms: C_3  and  C_4
REMARK    4  A    between atoms: C_3  and  C_5
REMARK    5  A    between atoms: C_5  and  N_6
REMARK    6  A    between atoms: C_5  and  C_7
REMARK    7  A    between atoms: C_10  and  C_11
REMARK                            x       y       z     vdW  Elec       q    Type
REMARK                         _______ _______ _______ _____ _____    ______ ____
ROOT
ATOM      1  C   UNL     1       4.593   4.797  17.863  0.00  0.00    +0.000 C 
ATOM      2  O   UNL     1       4.256   5.426  16.840  0.00  0.00    +0.000 OA
ATOM      3  N   UNL     1       3.575   4.311  18.717  0.00  0.00    +0.000 N 
ATOM      4  C   UNL     1       3.350   3.477  20.089  0.00  0.00    +0.000 C 
ATOM      5  C   UNL     1       1.931   2.914  19.879  0.00  0.00    +0.000 C 
ATOM      6  C   UNL     1       1.207   3.968  19.106  0.00  0.00    +0.000 C 
ATOM      7  C   UNL     1       1.236   4.000  17.591  0.00  0.00    +0.000 C 
ATOM      8  C   UNL     1       2.233   4.791  18.376  0.00  0.00    +0.000 C 
ENDROOT
BRANCH   4   9
ATOM      9  C   UNL     1       4.372   2.370  20.290  0.00  0.00    +0.000 C 
ATOM     10  N   UNL     1       5.220   1.451  20.459  0.00  0.00    +0.000 NA
ENDBRANCH   4   9
BRANCH   1  11
ATOM     11  C   UNL     1       6.150   4.634  18.066  0.00  0.00    +0.000 C 
BRANCH  11  12
ATOM     12  N   UNL     1       6.796   4.137  16.803  0.00  0.00    +0.000 NA
ATOM     13  H   UNL     1       6.141   4.327  16.034  0.00  0.00    +0.000 HD
ATOM     14  H   UNL     1       6.836   3.116  16.828  0.00  0.00    +0.000 HD
ENDBRANCH  11  12
BRANCH  11  15
ATOM     15  C   UNL     1       6.968   5.878  18.519  0.00  0.00    +0.000 C 
ATOM     16  C   UNL     1       8.095   5.756  19.575  0.00  0.00    +0.000 C 
BRANCH  15  18
ATOM     17  C   UNL     1       7.760   8.111  17.635  0.00  0.00    +0.000 C 
ATOM     18  C   UNL     1       7.477   6.650  17.309  0.00  0.00    +0.000 C 
ENDBRANCH  15  18
ENDBRANCH  11  15
ENDBRANCH   1  11
TORSDOF 5
ENDMDL
MODEL 7
REMARK VINA RESULT:      -6.1      1.994      5.100
REMARK  Name = 
REMARK  7 active torsions:
REMARK  status: ('A' for Active; 'I' for Inactive)
REMARK    1  A    between atoms: C_1  and  C_2
REMARK    2  A    between atoms: C_2  and  C_3
REMARK    3  A    between atoms: C_3  and  C_4
REMARK    4  A    between atoms: C_3  and  C_5
REMARK    5  A    between atoms: C_5  and  N_6
REMARK    6  A    between atoms: C_5  and  C_7
REMARK    7  A    between atoms: C_10  and  C_11
REMARK                            x       y       z     vdW  Elec       q    Type
REMARK                         _______ _______ _______ _____ _____    ______ ____
ROOT
ATOM      1  C   UNL     1       5.008   3.934  18.739  0.00  0.00    +0.000 C 
ATOM      2  O   UNL     1       5.322   3.513  19.870  0.00  0.00    +0.000 OA
ATOM      3  N   UNL     1       5.741   5.017  18.200  0.00  0.00    +0.000 N 
ATOM      4  C   UNL     1       5.843   5.960  16.884  0.00  0.00    +0.000 C 
ATOM      5  C   UNL     1       7.313   6.418  16.946  0.00  0.00    +0.000 C 
ATOM      6  C   UNL     1       7.621   6.533  18.404  0.00  0.00    +0.000 C 
ATOM      7  C   UNL     1       8.132   5.350  19.202  0.00  0.00    +0.000 C 
ATOM      8  C   UNL     1       6.667   5.641  19.149  0.00  0.00    +0.000 C 
ENDROOT
BRANCH   4   9
ATOM      9  C   UNL     1       5.537   5.220  15.592  0.00  0.00    +0.000 C 
ATOM     10  N   UNL     1       5.284   4.606  14.520  0.00  0.00    +0.000 NA
ENDBRANCH   4   9
BRANCH   1  11
ATOM     11  C   UNL     1       3.804   3.178  18.055  0.00  0.00    +0.000 C 
BRANCH  11  12
ATOM     12  N   UNL     1       3.942   1.692  18.238  0.00  0.00    +0.000 NA
ATOM     13  H   UNL     1       4.676   1.542  18.942  0.00  0.00    +0.000 HD
ATOM     14  H   UNL     1       4.344   1.287  17.391  0.00  0.00    +0.000 HD
ENDBRANCH  11  12
BRANCH  11  15
ATOM     15  C   UNL     1       2.357   3.543  18.497  0.00  0.00    +0.000 C 
ATOM     16  C   UNL     1       1.347   4.170  17.504  0.00  0.00    +0.000 C 
BRANCH  15  18
ATOM     17  C   UNL     1       1.345   2.708  20.660  0.00  0.00    +0.000 C 
ATOM     18  C   UNL     1       1.709   2.370  19.219  0.00  0.00    +0.000 C 
ENDBRANCH  15  18
ENDBRANCH  11  15
ENDBRANCH   1  11
TORSDOF 5
ENDMDL
MODEL 8
REMARK VINA RESULT:      -6.1      0.827      1.321
REMARK  Name = 
REMARK  7 active torsions:
REMARK  status: ('A' for Active; 'I' for Inactive)
REMARK    1  A    between atoms: C_1  and  C_2
REMARK    2  A    between atoms: C_2  and  C_3
REMARK    3  A    between atoms: C_3  and  C_4
REMARK    4  A    between atoms: C_3  and  C_5
REMARK    5  A    between atoms: C_5  and  N_6
REMARK    6  A    between atoms: C_5  and  C_7
REMARK    7  A    between atoms: C_10  and  C_11
REMARK                            x       y       z     vdW  Elec       q    Type
REMARK                         _______ _______ _______ _____ _____    ______ ____
ROOT
ATOM      1  C   UNL     1       4.623   3.859  19.498  0.00  0.00    +0.000 C 
ATOM      2  O   UNL     1       5.238   2.884  19.973  0.00  0.00    +0.000 OA
ATOM      3  N   UNL     1       3.214   3.892  19.631  0.00  0.00    +0.000 N 
ATOM      4  C   UNL     1       1.921   4.802  19.276  0.00  0.00    +0.000 C 
ATOM      5  C   UNL     1       0.918   4.347  20.354  0.00  0.00    +0.000 C 
ATOM      6  C   UNL     1       1.213   2.899  20.570  0.00  0.00    +0.000 C 
ATOM      7  C   UNL     1       2.248   2.443  21.580  0.00  0.00    +0.000 C 
ATOM      8  C   UNL     1       2.636   2.650  20.151  0.00  0.00    +0.000 C 
ENDROOT
BRANCH   4   9
ATOM      9  C   UNL     1       2.197   6.295  19.357  0.00  0.00    +0.000 C 
ATOM     10  N   UNL     1       2.428   7.533  19.425  0.00  0.00    +0.000 NA
ENDBRANCH   4   9
BRANCH   1  11
ATOM     11  C   UNL     1       5.528   4.944  18.795  0.00  0.00    +0.000 C 
BRANCH  11  12
ATOM     12  N   UNL     1       6.795   5.159  19.575  0.00  0.00    +0.000 NA
ATOM     13  H   UNL     1       7.574   4.863  18.974  0.00  0.00    +0.000 HD
ATOM     14  H   UNL     1       6.830   4.490  20.348  0.00  0.00    +0.000 HD
ENDBRANCH  11  12
BRANCH  11  15
ATOM     15  C   UNL     1       5.957   4.701  17.319  0.00  0.00    +0.000 C 
ATOM     16  C   UNL     1       5.168   3.734  16.401  0.00  0.00    +0.000 C 
BRANCH  15  18
ATOM     17  C   UNL     1       4.885   6.825  16.459  0.00  0.00    +0.000 C 
ATOM     18  C   UNL     1       6.175   6.027  16.603  0.00  0.00    +0.000 C 
ENDBRANCH  15  18
ENDBRANCH  11  15
ENDBRANCH   1  11
TORSDOF 5
ENDMDL
MODEL 9
REMARK VINA RESULT:      -6.1      1.757      5.177
REMARK  Name = 
REMARK  7 active torsions:
REMARK  status: ('A' for Active; 'I' for Inactive)
REMARK    1  A    between atoms: C_1  and  C_2
REMARK    2  A    between atoms: C_2  and  C_3
REMARK    3  A    between atoms: C_3  and  C_4
REMARK    4  A    between atoms: C_3  and  C_5
REMARK    5  A    between atoms: C_5  and  N_6
REMARK    6  A    between atoms: C_5  and  C_7
REMARK    7  A    between atoms: C_10  and  C_11
REMARK                            x       y       z     vdW  Elec       q    Type
REMARK                         _______ _______ _______ _____ _____    ______ ____
ROOT
ATOM      1  C   UNL     1       2.997   3.950  17.521  0.00  0.00    +0.000 C 
ATOM      2  O   UNL     1       3.070   2.819  17.000  0.00  0.00    +0.000 OA
ATOM      3  N   UNL     1       4.039   4.873  17.267  0.00  0.00    +0.000 N 
ATOM      4  C   UNL     1       4.512   6.387  17.602  0.00  0.00    +0.000 C 
ATOM      5  C   UNL     1       5.418   6.701  16.396  0.00  0.00    +0.000 C 
ATOM      6  C   UNL     1       6.068   5.401  16.051  0.00  0.00    +0.000 C 
ATOM      7  C   UNL     1       5.420   4.419  15.095  0.00  0.00    +0.000 C 
ATOM      8  C   UNL     1       5.189   4.295  16.566  0.00  0.00    +0.000 C 
ENDROOT
BRANCH   4   9
ATOM      9  C   UNL     1       3.355   7.367  17.707  0.00  0.00    +0.000 C 
ATOM     10  N   UNL     1       2.393   8.178  17.795  0.00  0.00    +0.000 NA
ENDBRANCH   4   9
BRANCH   1  11
ATOM     11  C   UNL     1       1.720   4.194  18.416  0.00  0.00    +0.000 C 
BRANCH  11  12
ATOM     12  N   UNL     1       0.749   3.056  18.269  0.00  0.00    +0.000 NA
ATOM     13  H   UNL     1       0.405   2.831  19.211  0.00  0.00    +0.000 HD
ATOM     14  H   UNL     1       1.260   2.213  17.999  0.00  0.00    +0.000 HD
ENDBRANCH  11  12
BRANCH  11  15
ATOM     15  C   UNL     1       1.920   4.408  19.944  0.00  0.00    +0.000 C 
ATOM     16  C   UNL     1       1.772   5.810  20.586  0.00  0.00    +0.000 C 
BRANCH  15  18
ATOM     17  C   UNL     1       1.952   2.657  21.770  0.00  0.00    +0.000 C 
ATOM     18  C   UNL     1       1.108   3.391  20.735  0.00  0.00    +0.000 C 
ENDBRANCH  15  18
ENDBRANCH  11  15
ENDBRANCH   1  11
TORSDOF 5
ENDMDL
