MODEL 1
REMARK VINA RESULT:      -6.2      0.000      0.000
REMARK  Name = 
REMARK  9 active torsions:
REMARK  status: ('A' for Active; 'I' for Inactive)
REMARK    1  A    between atoms: C_2  and  O_3
REMARK    2  A    between atoms: O_3  and  C_4
REMARK    3  A    between atoms: C_4  and  C_5
REMARK    4  A    between atoms: C_5  and  C_6
REMARK    5  A    between atoms: C_6  and  N_7
REMARK    6  A    between atoms: N_7  and  C_8
REMARK    7  A    between atoms: C_8  and  C_9
REMARK    8  A    between atoms: C_12  and  C_13
REMARK    9  A    between atoms: C_16  and  C_17
REMARK                            x       y       z     vdW  Elec       q    Type
REMARK                         _______ _______ _______ _____ _____    ______ ____
ROOT
ATOM      1  C   UNL     1       3.512   2.623  18.700  0.00  0.00    +0.000 A 
ATOM      2  C   UNL     1       4.429   2.333  19.684  0.00  0.00    +0.000 A 
ATOM      3  O   UNL     1       5.402   3.279  19.652  0.00  0.00    +0.000 OA
ATOM      4  C   UNL     1       5.027   4.119  18.633  0.00  0.00    +0.000 A 
ATOM      5  N   UNL     1       3.904   3.769  18.035  0.00  0.00    +0.000 NA
ENDROOT
BRANCH   4   6
ATOM      6  C   UNL     1       5.893   5.268  18.383  0.00  0.00    +0.000 A 
ATOM      7  C   UNL     1       7.106   5.433  19.065  0.00  0.00    +0.000 A 
ATOM      8  C   UNL     1       7.911   6.554  18.837  0.00  0.00    +0.000 A 
ATOM      9  C   UNL     1       7.516   7.533  17.921  0.00  0.00    +0.000 A 
ATOM     10  C   UNL     1       8.355   8.756  17.698  0.00  0.00    +0.000 C 
ATOM     11  C   UNL     1       6.314   7.368  17.224  0.00  0.00    +0.000 A 
ATOM     12  C   UNL     1       5.510   6.245  17.453  0.00  0.00    +0.000 A 
ENDBRANCH   4   6
BRANCH   1  13
ATOM     13  C   UNL     1       2.245   1.924  18.360  0.00  0.00    +0.000 C 
BRANCH  13  14
ATOM     14  N   UNL     1       1.078   2.690  18.820  0.00  0.00    +0.000 NA
ATOM     15  H   UNL     1       1.097   3.602  18.363  0.00  0.00    +0.000 HD
BRANCH  14  16
ATOM     16  C   UNL     1       1.086   2.888  20.274  0.00  0.00    +0.000 C 
BRANCH  16  17
ATOM     17  C   UNL     1       0.765   4.343  20.593  0.00  0.00    +0.000 C 
BRANCH  17  18
ATOM     18  C   UNL     1       2.027   5.200  20.573  0.00  0.00    +0.000 C 
BRANCH  18  19
ATOM     19  O   UNL     1       2.064   5.889  19.322  0.00  0.00    +0.000 OA
BRANCH  19  21
ATOM     20  C   UNL     1       2.542   8.015  18.442  0.00  0.00    +0.000 C 
ATOM     21  C   UNL     1       2.166   7.244  19.463  0.00  0.00    +0.000 C 
ENDBRANCH  19  21
ENDBRANCH  18  19
ENDBRANCH  17  18
ENDBRANCH  16  17
ENDBRANCH  14  16
ENDBRANCH  13  14
ENDBRANCH   1  13
TORSDOF 8
ENDMDL
MODEL 2
REMARK VINA RESULT:      -6.1      3.161      6.167
REMARK  Name = 
REMARK  9 active torsions:
REMARK  status: ('A' for Active; 'I' for Inactive)
REMARK    1  A    between atoms: C_2  and  O_3
REMARK    2  A    between atoms: O_3  and  C_4
REMARK    3  A    between atoms: C_4  and  C_5
REMARK    4  A    between atoms: C_5  and  C_6
REMARK    5  A    between atoms: C_6  and  N_7
REMARK    6  A    between atoms: N_7  and  C_8
REMARK    7  A    between atoms: C_8  and  C_9
REMARK    8  A    between atoms: C_12  and  C_13
REMARK    9  A    between atoms: C_16  and  C_17
REMARK                            x       y       z     vdW  Elec       q    Type
REMARK                         _______ _______ _______ _____ _____    ______ ____
ROOT
ATOM      1  C   UNL     1       4.160   4.566  17.920  0.00  0.00    +0.000 A 
ATOM      2  C   UNL     1       4.197   4.475  19.292  0.00  0.00    +0.000 A 
ATOM      3  O   UNL     1       3.524   5.535  19.808  0.00  0.00    +0.000 OA
ATOM      4  C   UNL     1       3.098   6.236  18.707  0.00  0.00    +0.000 A 
ATOM      5  N   UNL     1       3.453   5.695  17.557  0.00  0.00    +0.000 NA
ENDROOT
BRANCH   4   6
ATOM      6  C   UNL     1       2.309   7.438  18.965  0.00  0.00    +0.000 A 
ATOM      7  C   UNL     1       2.033   8.363  17.950  0.00  0.00    +0.000 A 
ATOM      8  C   UNL     1       1.301   9.525  18.218  0.00  0.00    +0.000 A 
ATOM      9  C   UNL     1       0.832   9.782  19.509  0.00  0.00    +0.000 A 
ATOM     10  C   UNL     1       0.080  11.044  19.813  0.00  0.00    +0.000 C 
ATOM     11  C   UNL     1       1.090   8.856  20.524  0.00  0.00    +0.000 A 
ATOM     12  C   UNL     1       1.822   7.694  20.254  0.00  0.00    +0.000 A 
ENDBRANCH   4   6
BRANCH   1  13
ATOM     13  C   UNL     1       4.703   3.630  16.901  0.00  0.00    +0.000 C 
BRANCH  13  14
ATOM     14  N   UNL     1       6.162   3.766  16.780  0.00  0.00    +0.000 NA
ATOM     15  H   UNL     1       6.573   3.596  17.699  0.00  0.00    +0.000 HD
BRANCH  14  16
ATOM     16  C   UNL     1       6.555   5.104  16.325  0.00  0.00    +0.000 C 
BRANCH  16  17
ATOM     17  C   UNL     1       5.996   5.353  14.929  0.00  0.00    +0.000 C 
BRANCH  17  18
ATOM     18  C   UNL     1       6.814   4.618  13.872  0.00  0.00    +0.000 C 
BRANCH  18  19
ATOM     19  O   UNL     1       6.147   3.388  13.585  0.00  0.00    +0.000 OA
BRANCH  19  21
ATOM     20  C   UNL     1       4.670   3.428  11.757  0.00  0.00    +0.000 C 
ATOM     21  C   UNL     1       5.890   3.219  12.254  0.00  0.00    +0.000 C 
ENDBRANCH  19  21
ENDBRANCH  18  19
ENDBRANCH  17  18
ENDBRANCH  16  17
ENDBRANCH  14  16
ENDBRANCH  13  14
ENDBRANCH   1  13
TORSDOF 8
ENDMDL
MODEL 3
REMARK VINA RESULT:      -6.1      2.326      5.208
REMARK  Name = 
REMARK  9 active torsions:
REMARK  status: ('A' for Active; 'I' for Inactive)
REMARK    1  A    between atoms: C_2  and  O_3
REMARK    2  A    between atoms: O_3  and  C_4
REMARK    3  A    between atoms: C_4  and  C_5
REMARK    4  A    between atoms: C_5  and  C_6
REMARK    5  A    between atoms: C_6  and  N_7
REMARK    6  A    between atoms: N_7  and  C_8
REMARK    7  A    between atoms: C_8  and  C_9
REMARK    8  A    between atoms: C_12  and  C_13
REMARK    9  A    between atoms: C_16  and  C_17
REMARK                            x       y       z     vdW  Elec       q    Type
REMARK                         _______ _______ _______ _____ _____    ______ ____
ROOT
ATOM      1  C   UNL     1       4.498   5.435  18.384  0.00  0.00    +0.000 A 
ATOM      2  C   UNL     1       4.672   6.223  17.270  0.00  0.00    +0.000 A 
ATOM      3  O   UNL     1       3.806   7.267  17.347  0.00  0.00    +0.000 OA
ATOM      4  C   UNL     1       3.134   7.064  18.527  0.00  0.00    +0.000 A 
ATOM      5  N   UNL     1       3.513   5.983  19.182  0.00  0.00    +0.000 NA
ENDROOT
BRANCH   4   6
ATOM      6  C   UNL     1       2.136   8.067  18.890  0.00  0.00    +0.000 A 
ATOM      7  C   UNL     1       1.659   8.184  20.202  0.00  0.00    +0.000 A 
ATOM      8  C   UNL     1       0.681   9.130  20.528  0.00  0.00    +0.000 A 
ATOM      9  C   UNL     1       0.162   9.977  19.546  0.00  0.00    +0.000 A 
ATOM     10  C   UNL     1      -0.913  10.968  19.880  0.00  0.00    +0.000 C 
ATOM     11  C   UNL     1       0.644   9.877  18.237  0.00  0.00    +0.000 A 
ATOM     12  C   UNL     1       1.623   8.931  17.912  0.00  0.00    +0.000 A 
ENDBRANCH   4   6
BRANCH   1  13
ATOM     13  C   UNL     1       5.235   4.210  18.792  0.00  0.00    +0.000 C 
BRANCH  13  14
ATOM     14  N   UNL     1       4.321   3.069  18.946  0.00  0.00    +0.000 NA
ATOM     15  H   UNL     1       4.819   2.329  19.442  0.00  0.00    +0.000 HD
BRANCH  14  16
ATOM     16  C   UNL     1       3.867   2.548  17.651  0.00  0.00    +0.000 C 
BRANCH  16  17
ATOM     17  C   UNL     1       2.397   2.155  17.746  0.00  0.00    +0.000 C 
BRANCH  17  18
ATOM     18  C   UNL     1       1.581   3.248  18.428  0.00  0.00    +0.000 C 
BRANCH  18  19
ATOM     19  O   UNL     1       0.998   2.686  19.605  0.00  0.00    +0.000 OA
BRANCH  19  21
ATOM     20  C   UNL     1       1.988   3.089  21.698  0.00  0.00    +0.000 C 
ATOM     21  C   UNL     1       1.173   3.466  20.712  0.00  0.00    +0.000 C 
ENDBRANCH  19  21
ENDBRANCH  18  19
ENDBRANCH  17  18
ENDBRANCH  16  17
ENDBRANCH  14  16
ENDBRANCH  13  14
ENDBRANCH   1  13
TORSDOF 8
ENDMDL
MODEL 4
REMARK VINA RESULT:      -6.1      2.318      5.085
REMARK  Name = 
REMARK  9 active torsions:
REMARK  status: ('A' for Active; 'I' for Inactive)
REMARK    1  A    between atoms: C_2  and  O_3
REMARK    2  A    between atoms: O_3  and  C_4
REMARK    3  A    between atoms: C_4  and  C_5
REMARK    4  A    between atoms: C_5  and  C_6
REMARK    5  A    between atoms: C_6  and  N_7
REMARK    6  A    between atoms: N_7  and  C_8
REMARK    7  A    between atoms: C_8  and  C_9
REMARK    8  A    between atoms: C_12  and  C_13
REMARK    9  A    between atoms: C_16  and  C_17
REMARK                            x       y       z     vdW  Elec       q    Type
REMARK                         _______ _______ _______ _____ _____    ______ ____
ROOT
ATOM      1  C   UNL     1       4.376   5.320  17.287  0.00  0.00    +0.000 A 
ATOM      2  C   UNL     1       5.040   6.462  16.903  0.00  0.00    +0.000 A 
ATOM      3  O   UNL     1       4.328   7.535  17.334  0.00  0.00    +0.000 OA
ATOM      4  C   UNL     1       3.244   6.988  17.974  0.00  0.00    +0.000 A 
ATOM      5  N   UNL     1       3.229   5.668  17.972  0.00  0.00    +0.000 NA
ENDROOT
BRANCH   4   6
ATOM      6  C   UNL     1       2.298   7.926  18.572  0.00  0.00    +0.000 A 
ATOM      7  C   UNL     1       1.704   8.948  17.819  0.00  0.00    +0.000 A 
ATOM      8  C   UNL     1       0.823   9.858  18.413  0.00  0.00    +0.000 A 
ATOM      9  C   UNL     1       0.521   9.763  19.774  0.00  0.00    +0.000 A 
ATOM     10  C   UNL     1      -0.393  10.757  20.427  0.00  0.00    +0.000 C 
ATOM     11  C   UNL     1       1.098   8.737  20.530  0.00  0.00    +0.000 A 
ATOM     12  C   UNL     1       1.978   7.827  19.934  0.00  0.00    +0.000 A 
ENDBRANCH   4   6
BRANCH   1  13
ATOM     13  C   UNL     1       4.768   3.898  17.101  0.00  0.00    +0.000 C 
BRANCH  13  14
ATOM     14  N   UNL     1       4.502   3.112  18.314  0.00  0.00    +0.000 NA
ATOM     15  H   UNL     1       5.395   2.766  18.668  0.00  0.00    +0.000 HD
BRANCH  14  16
ATOM     16  C   UNL     1       3.621   1.970  18.050  0.00  0.00    +0.000 C 
BRANCH  16  17
ATOM     17  C   UNL     1       2.214   2.470  17.745  0.00  0.00    +0.000 C 
BRANCH  17  18
ATOM     18  C   UNL     1       1.233   2.043  18.833  0.00  0.00    +0.000 C 
BRANCH  18  19
ATOM     19  O   UNL     1       0.875   3.209  19.577  0.00  0.00    +0.000 OA
BRANCH  19  21
ATOM     20  C   UNL     1       2.092   4.425  21.178  0.00  0.00    +0.000 C 
ATOM     21  C   UNL     1       1.513   3.291  20.781  0.00  0.00    +0.000 C 
ENDBRANCH  19  21
ENDBRANCH  18  19
ENDBRANCH  17  18
ENDBRANCH  16  17
ENDBRANCH  14  16
ENDBRANCH  13  14
ENDBRANCH   1  13
TORSDOF 8
ENDMDL
MODEL 5
REMARK VINA RESULT:      -6.0      3.648      7.660
REMARK  Name = 
REMARK  9 active torsions:
REMARK  status: ('A' for Active; 'I' for Inactive)
REMARK    1  A    between atoms: C_2  and  O_3
REMARK    2  A    between atoms: O_3  and  C_4
REMARK    3  A    between atoms: C_4  and  C_5
REMARK    4  A    between atoms: C_5  and  C_6
REMARK    5  A    between atoms: C_6  and  N_7
REMARK    6  A    between atoms: N_7  and  C_8
REMARK    7  A    between atoms: C_8  and  C_9
REMARK    8  A    between atoms: C_12  and  C_13
REMARK    9  A    between atoms: C_16  and  C_17
REMARK                            x       y       z     vdW  Elec       q    Type
REMARK                         _______ _______ _______ _____ _____    ______ ____
ROOT
ATOM      1  C   UNL     1       7.209   6.665  18.013  0.00  0.00    +0.000 A 
ATOM      2  C   UNL     1       7.609   5.818  19.020  0.00  0.00    +0.000 A 
ATOM      3  O   UNL     1       6.581   4.977  19.303  0.00  0.00    +0.000 OA
ATOM      4  C   UNL     1       5.584   5.357  18.439  0.00  0.00    +0.000 A 
ATOM      5  N   UNL     1       5.912   6.360  17.648  0.00  0.00    +0.000 NA
ENDROOT
BRANCH   4   6
ATOM      6  C   UNL     1       4.340   4.592  18.503  0.00  0.00    +0.000 A 
ATOM      7  C   UNL     1       3.234   4.928  17.711  0.00  0.00    +0.000 A 
ATOM      8  C   UNL     1       2.040   4.206  17.805  0.00  0.00    +0.000 A 
ATOM      9  C   UNL     1       1.930   3.133  18.693  0.00  0.00    +0.000 A 
ATOM     10  C   UNL     1       0.641   2.378  18.827  0.00  0.00    +0.000 C 
ATOM     11  C   UNL     1       3.035   2.782  19.476  0.00  0.00    +0.000 A 
ATOM     12  C   UNL     1       4.230   3.505  19.381  0.00  0.00    +0.000 A 
ENDBRANCH   4   6
BRANCH   1  13
ATOM     13  C   UNL     1       7.981   7.728  17.317  0.00  0.00    +0.000 C 
BRANCH  13  14
ATOM     14  N   UNL     1       7.735   9.045  17.922  0.00  0.00    +0.000 NA
ATOM     15  H   UNL     1       7.607   9.721  17.168  0.00  0.00    +0.000 HD
BRANCH  14  16
ATOM     16  C   UNL     1       8.853   9.482  18.766  0.00  0.00    +0.000 C 
BRANCH  16  17
ATOM     17  C   UNL     1       9.273  10.891  18.367  0.00  0.00    +0.000 C 
BRANCH  17  18
ATOM     18  C   UNL     1      10.487  11.348  19.169  0.00  0.00    +0.000 C 
BRANCH  18  19
ATOM     19  O   UNL     1      11.503  11.731  18.240  0.00  0.00    +0.000 OA
BRANCH  19  21
ATOM     20  C   UNL     1      11.323  13.866  17.273  0.00  0.00    +0.000 C 
ATOM     21  C   UNL     1      11.042  12.562  17.258  0.00  0.00    +0.000 C 
ENDBRANCH  19  21
ENDBRANCH  18  19
ENDBRANCH  17  18
ENDBRANCH  16  17
ENDBRANCH  14  16
ENDBRANCH  13  14
ENDBRANCH   1  13
TORSDOF 8
ENDMDL
MODEL 6
REMARK VINA RESULT:      -5.9      2.276      5.464
REMARK  Name = 
REMARK  9 active torsions:
REMARK  status: ('A' for Active; 'I' for Inactive)
REMARK    1  A    between atoms: C_2  and  O_3
REMARK    2  A    between atoms: O_3  and  C_4
REMARK    3  A    between atoms: C_4  and  C_5
REMARK    4  A    between atoms: C_5  and  C_6
REMARK    5  A    between atoms: C_6  and  N_7
REMARK    6  A    between atoms: N_7  and  C_8
REMARK    7  A    between atoms: C_8  and  C_9
REMARK    8  A    between atoms: C_12  and  C_13
REMARK    9  A    between atoms: C_16  and  C_17
REMARK                            x       y       z     vdW  Elec       q    Type
REMARK                         _______ _______ _______ _____ _____    ______ ____
ROOT
ATOM      1  C   UNL     1       3.856   4.526  18.096  0.00  0.00    +0.000 A 
ATOM      2  C   UNL     1       4.406   4.824  19.321  0.00  0.00    +0.000 A 
ATOM      3  O   UNL     1       3.857   5.985  19.763  0.00  0.00    +0.000 OA
ATOM      4  C   UNL     1       2.981   6.347  18.770  0.00  0.00    +0.000 A 
ATOM      5  N   UNL     1       2.945   5.505  17.754  0.00  0.00    +0.000 NA
ENDROOT
BRANCH   4   6
ATOM      6  C   UNL     1       2.214   7.570  18.991  0.00  0.00    +0.000 A 
ATOM      7  C   UNL     1       1.986   8.487  17.957  0.00  0.00    +0.000 A 
ATOM      8  C   UNL     1       1.275   9.669  18.191  0.00  0.00    +0.000 A 
ATOM      9  C   UNL     1       0.780   9.956  19.466  0.00  0.00    +0.000 A 
ATOM     10  C   UNL     1       0.050  11.239  19.733  0.00  0.00    +0.000 C 
ATOM     11  C   UNL     1       0.991   9.038  20.500  0.00  0.00    +0.000 A 
ATOM     12  C   UNL     1       1.702   7.856  20.264  0.00  0.00    +0.000 A 
ENDBRANCH   4   6
BRANCH   1  13
ATOM     13  C   UNL     1       4.086   3.342  17.225  0.00  0.00    +0.000 C 
BRANCH  13  14
ATOM     14  N   UNL     1       5.468   3.311  16.728  0.00  0.00    +0.000 NA
ATOM     15  H   UNL     1       6.037   3.903  17.335  0.00  0.00    +0.000 HD
BRANCH  14  16
ATOM     16  C   UNL     1       5.571   3.807  15.351  0.00  0.00    +0.000 C 
BRANCH  16  17
ATOM     17  C   UNL     1       6.353   5.115  15.336  0.00  0.00    +0.000 C 
BRANCH  17  18
ATOM     18  C   UNL     1       5.415   6.316  15.402  0.00  0.00    +0.000 C 
BRANCH  18  19
ATOM     19  O   UNL     1       5.783   7.092  16.544  0.00  0.00    +0.000 OA
BRANCH  19  21
ATOM     20  C   UNL     1       7.742   7.478  17.783  0.00  0.00    +0.000 C 
ATOM     21  C   UNL     1       6.919   6.639  17.153  0.00  0.00    +0.000 C 
ENDBRANCH  19  21
ENDBRANCH  18  19
ENDBRANCH  17  18
ENDBRANCH  16  17
ENDBRANCH  14  16
ENDBRANCH  13  14
ENDBRANCH   1  13
TORSDOF 8
ENDMDL
MODEL 7
REMARK VINA RESULT:      -5.9      2.561      5.913
REMARK  Name = 
REMARK  9 active torsions:
REMARK  status: ('A' for Active; 'I' for Inactive)
REMARK    1  A    between atoms: C_2  and  O_3
REMARK    2  A    between atoms: O_3  and  C_4
REMARK    3  A    between atoms: C_4  and  C_5
REMARK    4  A    between atoms: C_5  and  C_6
REMARK    5  A    between atoms: C_6  and  N_7
REMARK    6  A    between atoms: N_7  and  C_8
REMARK    7  A    between atoms: C_8  and  C_9
REMARK    8  A    between atoms: C_12  and  C_13
REMARK    9  A    between atoms: C_16  and  C_17
REMARK                            x       y       z     vdW  Elec       q    Type
REMARK                         _______ _______ _______ _____ _____    ______ ____
ROOT
ATOM      1  C   UNL     1       3.679   4.880  19.006  0.00  0.00    +0.000 A 
ATOM      2  C   UNL     1       3.319   5.288  17.743  0.00  0.00    +0.000 A 
ATOM      3  O   UNL     1       2.605   6.438  17.854  0.00  0.00    +0.000 OA
ATOM      4  C   UNL     1       2.564   6.683  19.204  0.00  0.00    +0.000 A 
ATOM      5  N   UNL     1       3.192   5.780  19.933  0.00  0.00    +0.000 NA
ENDROOT
BRANCH   4   6
ATOM      6  C   UNL     1       1.867   7.896  19.625  0.00  0.00    +0.000 A 
ATOM      7  C   UNL     1       1.411   8.059  20.940  0.00  0.00    +0.000 A 
ATOM      8  C   UNL     1       0.719   9.214  21.321  0.00  0.00    +0.000 A 
ATOM      9  C   UNL     1       0.469  10.227  20.392  0.00  0.00    +0.000 A 
ATOM     10  C   UNL     1      -0.304  11.451  20.783  0.00  0.00    +0.000 C 
ATOM     11  C   UNL     1       0.935  10.079  19.082  0.00  0.00    +0.000 A 
ATOM     12  C   UNL     1       1.628   8.924  18.702  0.00  0.00    +0.000 A 
ENDBRANCH   4   6
BRANCH   1  13
ATOM     13  C   UNL     1       4.504   3.713  19.417  0.00  0.00    +0.000 C 
BRANCH  13  14
ATOM     14  N   UNL     1       5.902   3.878  18.993  0.00  0.00    +0.000 NA
ATOM     15  H   UNL     1       6.462   3.167  19.465  0.00  0.00    +0.000 HD
BRANCH  14  16
ATOM     16  C   UNL     1       6.430   5.203  19.339  0.00  0.00    +0.000 C 
BRANCH  16  17
ATOM     17  C   UNL     1       7.486   5.613  18.319  0.00  0.00    +0.000 C 
BRANCH  17  18
ATOM     18  C   UNL     1       7.643   4.552  17.235  0.00  0.00    +0.000 C 
BRANCH  18  19
ATOM     19  O   UNL     1       6.516   4.652  16.364  0.00  0.00    +0.000 OA
BRANCH  19  21
ATOM     20  C   UNL     1       5.885   4.194  14.147  0.00  0.00    +0.000 C 
ATOM     21  C   UNL     1       6.833   4.431  15.054  0.00  0.00    +0.000 C 
ENDBRANCH  19  21
ENDBRANCH  18  19
ENDBRANCH  17  18
ENDBRANCH  16  17
ENDBRANCH  14  16
ENDBRANCH  13  14
ENDBRANCH   1  13
TORSDOF 8
ENDMDL
MODEL 8
REMARK VINA RESULT:      -5.9      3.233      6.676
REMARK  Name = 
REMARK  9 active torsions:
REMARK  status: ('A' for Active; 'I' for Inactive)
REMARK    1  A    between atoms: C_2  and  O_3
REMARK    2  A    between atoms: O_3  and  C_4
REMARK    3  A    between atoms: C_4  and  C_5
REMARK    4  A    between atoms: C_5  and  C_6
REMARK    5  A    between atoms: C_6  and  N_7
REMARK    6  A    between atoms: N_7  and  C_8
REMARK    7  A    between atoms: C_8  and  C_9
REMARK    8  A    between atoms: C_12  and  C_13
REMARK    9  A    between atoms: C_16  and  C_17
REMARK                            x       y       z     vdW  Elec       q    Type
REMARK                         _______ _______ _______ _____ _____    ______ ____
ROOT
ATOM      1  C   UNL     1       2.871   6.440  18.905  0.00  0.00    +0.000 A 
ATOM      2  C   UNL     1       2.454   5.663  19.962  0.00  0.00    +0.000 A 
ATOM      3  O   UNL     1       1.702   6.436  20.787  0.00  0.00    +0.000 OA
ATOM      4  C   UNL     1       1.693   7.669  20.184  0.00  0.00    +0.000 A 
ATOM      5  N   UNL     1       2.377   7.720  19.057  0.00  0.00    +0.000 NA
ENDROOT
BRANCH   4   6
ATOM      6  C   UNL     1       0.922   8.715  20.851  0.00  0.00    +0.000 A 
ATOM      7  C   UNL     1       0.340   9.767  20.132  0.00  0.00    +0.000 A 
ATOM      8  C   UNL     1      -0.370  10.778  20.787  0.00  0.00    +0.000 A 
ATOM      9  C   UNL     1      -0.510  10.756  22.178  0.00  0.00    +0.000 A 
ATOM     10  C   UNL     1      -1.237  11.856  22.892  0.00  0.00    +0.000 C 
ATOM     11  C   UNL     1       0.055   9.701  22.902  0.00  0.00    +0.000 A 
ATOM     12  C   UNL     1       0.764   8.690  22.244  0.00  0.00    +0.000 A 
ENDBRANCH   4   6
BRANCH   1  13
ATOM     13  C   UNL     1       3.671   6.053  17.713  0.00  0.00    +0.000 C 
BRANCH  13  14
ATOM     14  N   UNL     1       3.465   4.638  17.373  0.00  0.00    +0.000 NA
ATOM     15  H   UNL     1       3.248   4.134  18.233  0.00  0.00    +0.000 HD
BRANCH  14  16
ATOM     16  C   UNL     1       4.655   4.040  16.759  0.00  0.00    +0.000 C 
BRANCH  16  17
ATOM     17  C   UNL     1       5.432   5.110  16.000  0.00  0.00    +0.000 C 
BRANCH  17  18
ATOM     18  C   UNL     1       6.925   5.015  16.294  0.00  0.00    +0.000 C 
BRANCH  18  19
ATOM     19  O   UNL     1       7.448   6.344  16.323  0.00  0.00    +0.000 OA
BRANCH  19  21
ATOM     20  C   UNL     1       7.663   6.155  18.655  0.00  0.00    +0.000 C 
ATOM     21  C   UNL     1       7.433   6.897  17.571  0.00  0.00    +0.000 C 
ENDBRANCH  19  21
ENDBRANCH  18  19
ENDBRANCH  17  18
ENDBRANCH  16  17
ENDBRANCH  14  16
ENDBRANCH  13  14
ENDBRANCH   1  13
TORSDOF 8
ENDMDL
MODEL 9
REMARK VINA RESULT:      -5.8      1.420      1.610
REMARK  Name = 
REMARK  9 active torsions:
REMARK  status: ('A' for Active; 'I' for Inactive)
REMARK    1  A    between atoms: C_2  and  O_3
REMARK    2  A    between atoms: O_3  and  C_4
REMARK    3  A    between atoms: C_4  and  C_5
REMARK    4  A    between atoms: C_5  and  C_6
REMARK    5  A    between atoms: C_6  and  N_7
REMARK    6  A    between atoms: N_7  and  C_8
REMARK    7  A    between atoms: C_8  and  C_9
REMARK    8  A    between atoms: C_12  and  C_13
REMARK    9  A    between atoms: C_16  and  C_17
REMARK                            x       y       z     vdW  Elec       q    Type
REMARK                         _______ _______ _______ _____ _____    ______ ____
ROOT
ATOM      1  C   UNL     1       4.316   2.962  17.665  0.00  0.00    +0.000 A 
ATOM      2  C   UNL     1       4.299   3.421  16.368  0.00  0.00    +0.000 A 
ATOM      3  O   UNL     1       5.065   4.540  16.301  0.00  0.00    +0.000 OA
ATOM      4  C   UNL     1       5.523   4.714  17.584  0.00  0.00    +0.000 A 
ATOM      5  N   UNL     1       5.104   3.796  18.433  0.00  0.00    +0.000 NA
ENDROOT
BRANCH   4   6
ATOM      6  C   UNL     1       6.411   5.852  17.809  0.00  0.00    +0.000 A 
ATOM      7  C   UNL     1       7.454   5.793  18.744  0.00  0.00    +0.000 A 
ATOM      8  C   UNL     1       8.278   6.900  18.970  0.00  0.00    +0.000 A 
ATOM      9  C   UNL     1       8.073   8.090  18.266  0.00  0.00    +0.000 A 
ATOM     10  C   UNL     1       8.927   9.293  18.531  0.00  0.00    +0.000 C 
ATOM     11  C   UNL     1       7.044   8.152  17.320  0.00  0.00    +0.000 A 
ATOM     12  C   UNL     1       6.221   7.043  17.094  0.00  0.00    +0.000 A 
ENDBRANCH   4   6
BRANCH   1  13
ATOM     13  C   UNL     1       3.679   1.748  18.241  0.00  0.00    +0.000 C 
BRANCH  13  14
ATOM     14  N   UNL     1       2.224   1.919  18.361  0.00  0.00    +0.000 NA
ATOM     15  H   UNL     1       1.961   2.760  17.846  0.00  0.00    +0.000 HD
BRANCH  14  16
ATOM     16  C   UNL     1       1.800   2.066  19.758  0.00  0.00    +0.000 C 
BRANCH  16  17
ATOM     17  C   UNL     1       0.891   3.283  19.891  0.00  0.00    +0.000 C 
BRANCH  17  18
ATOM     18  C   UNL     1       1.684   4.577  19.740  0.00  0.00    +0.000 C 
BRANCH  18  19
ATOM     19  O   UNL     1       1.724   4.903  18.350  0.00  0.00    +0.000 OA
BRANCH  19  21
ATOM     20  C   UNL     1       2.760   6.877  19.094  0.00  0.00    +0.000 C 
ATOM     21  C   UNL     1       2.348   6.091  18.098  0.00  0.00    +0.000 C 
ENDBRANCH  19  21
ENDBRANCH  18  19
ENDBRANCH  17  18
ENDBRANCH  16  17
ENDBRANCH  14  16
ENDBRANCH  13  14
ENDBRANCH   1  13
TORSDOF 8
ENDMDL
