MODEL 1
REMARK VINA RESULT:      -7.4      0.000      0.000
REMARK  Name = 
REMARK  11 active torsions:
REMARK  status: ('A' for Active; 'I' for Inactive)
REMARK    1  A    between atoms: CD1_1  and  CG1_2
REMARK    2  A    between atoms: CG1_2  and  CB_3
REMARK    3  A    between atoms: CB_3  and  CG2_4
REMARK    4  A    between atoms: CB_3  and  CA_5
REMARK    5  A    between atoms: CA_5  and  N_6
REMARK    6  A    between atoms: CA_5  and  C_19
REMARK    7  A    between atoms: C_7  and  C_9
REMARK    8  A    between atoms: C_9  and  N_10
REMARK    9  A    between atoms: C_14  and  C_15
REMARK   10  A    between atoms: C_15  and  O_17
REMARK   11  A    between atoms: C_19  and  OXT_21
REMARK                            x       y       z     vdW  Elec       q    Type
REMARK                         _______ _______ _______ _____ _____    ______ ____
ROOT
ATOM      1  N   ILE A   1       3.562   3.878  18.596  0.00  0.00    +0.000 N 
ATOM      2  C   UNK A   0       4.898   3.694  18.876  0.00  0.00    +0.000 C 
ATOM      3  O   UNK A   0       5.293   2.860  19.685  0.00  0.00    +0.000 OA
ATOM      4  H   ILE A   1       3.330   4.597  17.908  0.00  0.00    +0.000 HD
ENDROOT
BRANCH   2   5
ATOM      5  C   UNK A   0       5.830   4.671  18.091  0.00  0.00    +0.000 C 
ATOM      6  C   UNK A   0       5.464   6.154  18.337  0.00  0.00    +0.000 C 
ATOM      7  C   UNK A   0       5.963   6.896  17.091  0.00  0.00    +0.000 C 
ATOM      8  C   UNK A   0       5.721   5.916  15.981  0.00  0.00    +0.000 C 
ATOM      9  C   UNK A   0       6.748   4.892  15.560  0.00  0.00    +0.000 C 
ATOM     10  C   UNK A   0       5.676   4.533  16.582  0.00  0.00    +0.000 C 
BRANCH   5  11
ATOM     11  N   UNK A   0       7.241   4.386  18.452  0.00  0.00    +0.000 NA
ATOM     12  H   UNK A   0       7.778   4.338  17.581  0.00  0.00    +0.000 HD
ATOM     13  H   UNK A   0       7.300   3.443  18.832  0.00  0.00    +0.000 HD
ENDBRANCH   5  11
BRANCH   9  14
ATOM     14  C   UNK A   0       6.676   4.291  14.201  0.00  0.00    +0.000 C 
ATOM     15  O   UNK A   0       7.117   4.847  13.208  0.00  0.00    +0.000 OA
BRANCH  14  16
ATOM     16  O   UNK A   0       6.069   3.083  14.173  0.00  0.00    +0.000 OA
ATOM     17  H   UNK A   0       6.694   2.339  14.107  0.00  0.00    +0.000 HD
ENDBRANCH  14  16
ENDBRANCH   9  14
ENDBRANCH   2   5
BRANCH   1  18
ATOM     18  CA  ILE A   1       2.470   3.139  19.230  0.00  0.00    +0.000 C 
BRANCH  18  19
ATOM     19  CB  ILE A   1       2.126   3.690  20.638  0.00  0.00    +0.000 C 
ATOM     20  CG2 ILE A   1       1.595   2.584  21.559  0.00  0.00    +0.000 C 
BRANCH  19  22
ATOM     21  CD1 ILE A   1       1.862   6.236  20.501  0.00  0.00    +0.000 C 
ATOM     22  CG1 ILE A   1       1.157   4.889  20.574  0.00  0.00    +0.000 C 
ENDBRANCH  19  22
ENDBRANCH  18  19
BRANCH  18  23
ATOM     23  C   ILE A   1       1.275   3.185  18.259  0.00  0.00    +0.000 C 
ATOM     24  O   ILE A   1       1.163   4.002  17.356  0.00  0.00    +0.000 OA
BRANCH  23  25
ATOM     25  OXT ILE A   1       0.343   2.228  18.477  0.00  0.00    +0.000 OA
ATOM     26  HXT ILE A   1      -0.223   2.023  17.709  0.00  0.00    +0.000 HD
ENDBRANCH  23  25
ENDBRANCH  18  23
ENDBRANCH   1  18
TORSDOF 9
ENDMDL
MODEL 2
REMARK VINA RESULT:      -7.2      0.398      1.289
REMARK  Name = 
REMARK  11 active torsions:
REMARK  status: ('A' for Active; 'I' for Inactive)
REMARK    1  A    between atoms: CD1_1  and  CG1_2
REMARK    2  A    between atoms: CG1_2  and  CB_3
REMARK    3  A    between atoms: CB_3  and  CG2_4
REMARK    4  A    between atoms: CB_3  and  CA_5
REMARK    5  A    between atoms: CA_5  and  N_6
REMARK    6  A    between atoms: CA_5  and  C_19
REMARK    7  A    between atoms: C_7  and  C_9
REMARK    8  A    between atoms: C_9  and  N_10
REMARK    9  A    between atoms: C_14  and  C_15
REMARK   10  A    between atoms: C_15  and  O_17
REMARK   11  A    between atoms: C_19  and  OXT_21
REMARK                            x       y       z     vdW  Elec       q    Type
REMARK                         _______ _______ _______ _____ _____    ______ ____
ROOT
ATOM      1  N   ILE A   1       3.542   4.171  18.575  0.00  0.00    +0.000 N 
ATOM      2  C   UNK A   0       4.854   3.831  18.824  0.00  0.00    +0.000 C 
ATOM      3  O   UNK A   0       5.165   2.925  19.590  0.00  0.00    +0.000 OA
ATOM      4  H   ILE A   1       3.381   4.942  17.924  0.00  0.00    +0.000 HD
ENDROOT
BRANCH   2   5
ATOM      5  C   UNK A   0       5.877   4.736  18.065  0.00  0.00    +0.000 C 
ATOM      6  C   UNK A   0       5.637   6.241  18.330  0.00  0.00    +0.000 C 
ATOM      7  C   UNK A   0       6.214   6.954  17.101  0.00  0.00    +0.000 C 
ATOM      8  C   UNK A   0       5.902   6.015  15.974  0.00  0.00    +0.000 C 
ATOM      9  C   UNK A   0       6.843   4.912  15.549  0.00  0.00    +0.000 C 
ATOM     10  C   UNK A   0       5.730   4.633  16.553  0.00  0.00    +0.000 C 
BRANCH   5  11
ATOM     11  N   UNK A   0       7.252   4.324  18.438  0.00  0.00    +0.000 NA
ATOM     12  H   UNK A   0       7.358   3.338  18.185  0.00  0.00    +0.000 HD
ATOM     13  H   UNK A   0       7.335   4.330  19.454  0.00  0.00    +0.000 HD
ENDBRANCH   5  11
BRANCH   9  14
ATOM     14  C   UNK A   0       6.737   4.339  14.181  0.00  0.00    +0.000 C 
ATOM     15  O   UNK A   0       7.143   4.920  13.187  0.00  0.00    +0.000 OA
BRANCH  14  16
ATOM     16  O   UNK A   0       6.140   3.126  14.144  0.00  0.00    +0.000 OA
ATOM     17  H   UNK A   0       5.685   2.946  13.301  0.00  0.00    +0.000 HD
ENDBRANCH  14  16
ENDBRANCH   9  14
ENDBRANCH   2   5
BRANCH   1  18
ATOM     18  CA  ILE A   1       2.384   3.529  19.197  0.00  0.00    +0.000 C 
BRANCH  18  19
ATOM     19  CB  ILE A   1       1.770   4.390  20.331  0.00  0.00    +0.000 C 
ATOM     20  CG2 ILE A   1       2.158   5.868  20.187  0.00  0.00    +0.000 C 
BRANCH  19  22
ATOM     21  CD1 ILE A   1       1.811   2.365  21.901  0.00  0.00    +0.000 C 
ATOM     22  CG1 ILE A   1       2.122   3.845  21.732  0.00  0.00    +0.000 C 
ENDBRANCH  19  22
ENDBRANCH  18  19
BRANCH  18  23
ATOM     23  C   ILE A   1       1.383   3.221  18.068  0.00  0.00    +0.000 C 
ATOM     24  O   ILE A   1       1.174   3.967  17.121  0.00  0.00    +0.000 OA
BRANCH  23  25
ATOM     25  OXT ILE A   1       0.744   2.035  18.197  0.00  0.00    +0.000 OA
ATOM     26  HXT ILE A   1      -0.215   2.100  18.365  0.00  0.00    +0.000 HD
ENDBRANCH  23  25
ENDBRANCH  18  23
ENDBRANCH   1  18
TORSDOF 9
ENDMDL
MODEL 3
REMARK VINA RESULT:      -7.2      1.991      3.042
REMARK  Name = 
REMARK  11 active torsions:
REMARK  status: ('A' for Active; 'I' for Inactive)
REMARK    1  A    between atoms: CD1_1  and  CG1_2
REMARK    2  A    between atoms: CG1_2  and  CB_3
REMARK    3  A    between atoms: CB_3  and  CG2_4
REMARK    4  A    between atoms: CB_3  and  CA_5
REMARK    5  A    between atoms: CA_5  and  N_6
REMARK    6  A    between atoms: CA_5  and  C_19
REMARK    7  A    between atoms: C_7  and  C_9
REMARK    8  A    between atoms: C_9  and  N_10
REMARK    9  A    between atoms: C_14  and  C_15
REMARK   10  A    between atoms: C_15  and  O_17
REMARK   11  A    between atoms: C_19  and  OXT_21
REMARK                            x       y       z     vdW  Elec       q    Type
REMARK                         _______ _______ _______ _____ _____    ______ ____
ROOT
ATOM      1  N   ILE A   1       3.315   3.830  18.515  0.00  0.00    +0.000 N 
ATOM      2  C   UNK A   0       4.129   3.305  17.535  0.00  0.00    +0.000 C 
ATOM      3  O   UNK A   0       4.083   2.126  17.202  0.00  0.00    +0.000 OA
ATOM      4  H   ILE A   1       3.428   4.824  18.724  0.00  0.00    +0.000 HD
ENDROOT
BRANCH   2   5
ATOM      5  C   UNK A   0       5.121   4.353  16.934  0.00  0.00    +0.000 C 
ATOM      6  C   UNK A   0       5.742   3.873  15.601  0.00  0.00    +0.000 C 
ATOM      7  C   UNK A   0       7.078   4.619  15.497  0.00  0.00    +0.000 C 
ATOM      8  C   UNK A   0       7.550   4.690  16.919  0.00  0.00    +0.000 C 
ATOM      9  C   UNK A   0       7.191   5.832  17.840  0.00  0.00    +0.000 C 
ATOM     10  C   UNK A   0       6.344   4.565  17.817  0.00  0.00    +0.000 C 
BRANCH   5  11
ATOM     11  N   UNK A   0       4.417   5.649  16.778  0.00  0.00    +0.000 NA
ATOM     12  H   UNK A   0       4.194   5.994  17.716  0.00  0.00    +0.000 HD
ATOM     13  H   UNK A   0       3.506   5.481  16.353  0.00  0.00    +0.000 HD
ENDBRANCH   5  11
BRANCH   9  14
ATOM     14  C   UNK A   0       8.036   6.110  19.033  0.00  0.00    +0.000 C 
ATOM     15  O   UNK A   0       8.213   5.292  19.922  0.00  0.00    +0.000 OA
BRANCH  14  16
ATOM     16  O   UNK A   0       8.574   7.350  19.042  0.00  0.00    +0.000 OA
ATOM     17  H   UNK A   0       8.935   7.620  18.178  0.00  0.00    +0.000 HD
ENDBRANCH  14  16
ENDBRANCH   9  14
ENDBRANCH   2   5
BRANCH   1  18
ATOM     18  CA  ILE A   1       2.336   3.062  19.282  0.00  0.00    +0.000 C 
BRANCH  18  19
ATOM     19  CB  ILE A   1       2.082   3.666  20.688  0.00  0.00    +0.000 C 
ATOM     20  CG2 ILE A   1       1.595   2.600  21.678  0.00  0.00    +0.000 C 
BRANCH  19  22
ATOM     21  CD1 ILE A   1       1.840   6.213  20.527  0.00  0.00    +0.000 C 
ATOM     22  CG1 ILE A   1       1.123   4.875  20.637  0.00  0.00    +0.000 C 
ENDBRANCH  19  22
ENDBRANCH  18  19
BRANCH  18  23
ATOM     23  C   ILE A   1       1.059   2.979  18.425  0.00  0.00    +0.000 C 
ATOM     24  O   ILE A   1       0.196   2.125  18.572  0.00  0.00    +0.000 OA
BRANCH  23  25
ATOM     25  OXT ILE A   1       0.955   3.946  17.484  0.00  0.00    +0.000 OA
ATOM     26  HXT ILE A   1       1.599   3.882  16.755  0.00  0.00    +0.000 HD
ENDBRANCH  23  25
ENDBRANCH  18  23
ENDBRANCH   1  18
TORSDOF 9
ENDMDL
MODEL 4
REMARK VINA RESULT:      -7.2      2.677      3.720
REMARK  Name = 
REMARK  11 active torsions:
REMARK  status: ('A' for Active; 'I' for Inactive)
REMARK    1  A    between atoms: CD1_1  and  CG1_2
REMARK    2  A    between atoms: CG1_2  and  CB_3
REMARK    3  A    between atoms: CB_3  and  CG2_4
REMARK    4  A    between atoms: CB_3  and  CA_5
REMARK    5  A    between atoms: CA_5  and  N_6
REMARK    6  A    between atoms: CA_5  and  C_19
REMARK    7  A    between atoms: C_7  and  C_9
REMARK    8  A    between atoms: C_9  and  N_10
REMARK    9  A    between atoms: C_14  and  C_15
REMARK   10  A    between atoms: C_15  and  O_17
REMARK   11  A    between atoms: C_19  and  OXT_21
REMARK                            x       y       z     vdW  Elec       q    Type
REMARK                         _______ _______ _______ _____ _____    ______ ____
ROOT
ATOM      1  N   ILE A   1       4.193   3.709  18.761  0.00  0.00    +0.000 N 
ATOM      2  C   UNK A   0       4.191   5.079  18.906  0.00  0.00    +0.000 C 
ATOM      3  O   UNK A   0       3.688   5.639  19.875  0.00  0.00    +0.000 OA
ATOM      4  H   ILE A   1       4.635   3.335  17.920  0.00  0.00    +0.000 HD
ENDROOT
BRANCH   2   5
ATOM      5  C   UNK A   0       4.857   5.824  17.705  0.00  0.00    +0.000 C 
ATOM      6  C   UNK A   0       5.107   4.886  16.500  0.00  0.00    +0.000 C 
ATOM      7  C   UNK A   0       6.274   5.525  15.738  0.00  0.00    +0.000 C 
ATOM      8  C   UNK A   0       7.131   6.098  16.829  0.00  0.00    +0.000 C 
ATOM      9  C   UNK A   0       6.947   7.501  17.357  0.00  0.00    +0.000 C 
ATOM     10  C   UNK A   0       6.257   6.323  18.037  0.00  0.00    +0.000 C 
BRANCH   5  11
ATOM     11  N   UNK A   0       4.015   6.987  17.332  0.00  0.00    +0.000 NA
ATOM     12  H   UNK A   0       3.077   6.633  17.123  0.00  0.00    +0.000 HD
ATOM     13  H   UNK A   0       4.343   7.361  16.443  0.00  0.00    +0.000 HD
ENDBRANCH   5  11
BRANCH   9  14
ATOM     14  C   UNK A   0       8.071   8.178  18.058  0.00  0.00    +0.000 C 
ATOM     15  O   UNK A   0       8.430   9.312  17.788  0.00  0.00    +0.000 OA
BRANCH  14  16
ATOM     16  O   UNK A   0       8.658   7.415  19.008  0.00  0.00    +0.000 OA
ATOM     17  H   UNK A   0       8.061   6.744  19.386  0.00  0.00    +0.000 HD
ENDBRANCH  14  16
ENDBRANCH   9  14
ENDBRANCH   2   5
BRANCH   1  18
ATOM     18  CA  ILE A   1       3.586   2.773  19.707  0.00  0.00    +0.000 C 
BRANCH  18  19
ATOM     19  CB  ILE A   1       2.152   2.356  19.286  0.00  0.00    +0.000 C 
ATOM     20  CG2 ILE A   1       1.830   2.816  17.858  0.00  0.00    +0.000 C 
BRANCH  19  22
ATOM     21  CD1 ILE A   1       1.628   3.035  21.702  0.00  0.00    +0.000 C 
ATOM     22  CG1 ILE A   1       1.087   2.840  20.293  0.00  0.00    +0.000 C 
ENDBRANCH  19  22
ENDBRANCH  18  19
BRANCH  18  23
ATOM     23  C   ILE A   1       4.547   1.575  19.831  0.00  0.00    +0.000 C 
ATOM     24  O   ILE A   1       5.328   1.424  20.760  0.00  0.00    +0.000 OA
BRANCH  23  25
ATOM     25  OXT ILE A   1       4.454   0.678  18.822  0.00  0.00    +0.000 OA
ATOM     26  HXT ILE A   1       5.112   0.791  18.110  0.00  0.00    +0.000 HD
ENDBRANCH  23  25
ENDBRANCH  18  23
ENDBRANCH   1  18
TORSDOF 9
ENDMDL
MODEL 5
REMARK VINA RESULT:      -7.1      2.053      5.888
REMARK  Name = 
REMARK  11 active torsions:
REMARK  status: ('A' for Active; 'I' for Inactive)
REMARK    1  A    between atoms: CD1_1  and  CG1_2
REMARK    2  A    between atoms: CG1_2  and  CB_3
REMARK    3  A    between atoms: CB_3  and  CG2_4
REMARK    4  A    between atoms: CB_3  and  CA_5
REMARK    5  A    between atoms: CA_5  and  N_6
REMARK    6  A    between atoms: CA_5  and  C_19
REMARK    7  A    between atoms: C_7  and  C_9
REMARK    8  A    between atoms: C_9  and  N_10
REMARK    9  A    between atoms: C_14  and  C_15
REMARK   10  A    between atoms: C_15  and  O_17
REMARK   11  A    between atoms: C_19  and  OXT_21
REMARK                            x       y       z     vdW  Elec       q    Type
REMARK                         _______ _______ _______ _____ _____    ______ ____
ROOT
ATOM      1  N   ILE A   1       5.161   5.623  17.186  0.00  0.00    +0.000 N 
ATOM      2  C   UNK A   0       3.988   6.201  17.618  0.00  0.00    +0.000 C 
ATOM      3  O   UNK A   0       3.694   7.364  17.364  0.00  0.00    +0.000 OA
ATOM      4  H   ILE A   1       5.319   4.648  17.449  0.00  0.00    +0.000 HD
ENDROOT
BRANCH   2   5
ATOM      5  C   UNK A   0       3.111   5.239  18.481  0.00  0.00    +0.000 C 
ATOM      6  C   UNK A   0       2.457   5.962  19.683  0.00  0.00    +0.000 C 
ATOM      7  C   UNK A   0       2.216   4.860  20.723  0.00  0.00    +0.000 C 
ATOM      8  C   UNK A   0       3.398   3.952  20.549  0.00  0.00    +0.000 C 
ATOM      9  C   UNK A   0       3.397   2.790  19.585  0.00  0.00    +0.000 C 
ATOM     10  C   UNK A   0       3.936   4.149  19.154  0.00  0.00    +0.000 C 
BRANCH   5  11
ATOM     11  N   UNK A   0       2.098   4.597  17.608  0.00  0.00    +0.000 NA
ATOM     12  H   UNK A   0       1.175   4.899  17.933  0.00  0.00    +0.000 HD
ATOM     13  H   UNK A   0       2.104   3.592  17.778  0.00  0.00    +0.000 HD
ENDBRANCH   5  11
BRANCH   9  14
ATOM     14  C   UNK A   0       4.353   1.668  19.782  0.00  0.00    +0.000 C 
ATOM     15  O   UNK A   0       5.097   1.595  20.747  0.00  0.00    +0.000 OA
BRANCH  14  16
ATOM     16  O   UNK A   0       4.326   0.749  18.791  0.00  0.00    +0.000 OA
ATOM     17  H   UNK A   0       4.049  -0.136  19.092  0.00  0.00    +0.000 HD
ENDBRANCH  14  16
ENDBRANCH   9  14
ENDBRANCH   2   5
BRANCH   1  18
ATOM     18  CA  ILE A   1       6.192   6.313  16.411  0.00  0.00    +0.000 C 
BRANCH  18  19
ATOM     19  CB  ILE A   1       7.365   6.806  17.297  0.00  0.00    +0.000 C 
ATOM     20  CG2 ILE A   1       7.475   5.987  18.590  0.00  0.00    +0.000 C 
BRANCH  19  22
ATOM     21  CD1 ILE A   1       8.517   8.877  18.273  0.00  0.00    +0.000 C 
ATOM     22  CG1 ILE A   1       7.277   8.320  17.589  0.00  0.00    +0.000 C 
ENDBRANCH  19  22
ENDBRANCH  18  19
BRANCH  18  23
ATOM     23  C   ILE A   1       6.644   5.343  15.302  0.00  0.00    +0.000 C 
ATOM     24  O   ILE A   1       7.743   5.386  14.768  0.00  0.00    +0.000 OA
BRANCH  23  25
ATOM     25  OXT ILE A   1       5.720   4.414  14.963  0.00  0.00    +0.000 OA
ATOM     26  HXT ILE A   1       5.258   4.581  14.120  0.00  0.00    +0.000 HD
ENDBRANCH  23  25
ENDBRANCH  18  23
ENDBRANCH   1  18
TORSDOF 9
ENDMDL
MODEL 6
REMARK VINA RESULT:      -7.1      0.845      1.096
REMARK  Name = 
REMARK  11 active torsions:
REMARK  status: ('A' for Active; 'I' for Inactive)
REMARK    1  A    between atoms: CD1_1  and  CG1_2
REMARK    2  A    between atoms: CG1_2  and  CB_3
REMARK    3  A    between atoms: CB_3  and  CG2_4
REMARK    4  A    between atoms: CB_3  and  CA_5
REMARK    5  A    between atoms: CA_5  and  N_6
REMARK    6  A    between atoms: CA_5  and  C_19
REMARK    7  A    between atoms: C_7  and  C_9
REMARK    8  A    between atoms: C_9  and  N_10
REMARK    9  A    between atoms: C_14  and  C_15
REMARK   10  A    between atoms: C_15  and  O_17
REMARK   11  A    between atoms: C_19  and  OXT_21
REMARK                            x       y       z     vdW  Elec       q    Type
REMARK                         _______ _______ _______ _____ _____    ______ ____
ROOT
ATOM      1  N   ILE A   1       3.387   3.847  18.711  0.00  0.00    +0.000 N 
ATOM      2  C   UNK A   0       4.278   3.336  17.793  0.00  0.00    +0.000 C 
ATOM      3  O   UNK A   0       4.267   2.159  17.448  0.00  0.00    +0.000 OA
ATOM      4  H   ILE A   1       3.476   4.840  18.935  0.00  0.00    +0.000 HD
ENDROOT
BRANCH   2   5
ATOM      5  C   UNK A   0       5.305   4.395  17.278  0.00  0.00    +0.000 C 
ATOM      6  C   UNK A   0       4.845   5.844  17.565  0.00  0.00    +0.000 C 
ATOM      7  C   UNK A   0       5.542   6.698  16.499  0.00  0.00    +0.000 C 
ATOM      8  C   UNK A   0       5.549   5.810  15.290  0.00  0.00    +0.000 C 
ATOM      9  C   UNK A   0       6.674   4.847  14.994  0.00  0.00    +0.000 C 
ATOM     10  C   UNK A   0       5.442   4.381  15.761  0.00  0.00    +0.000 C 
BRANCH   5  11
ATOM     11  N   UNK A   0       6.632   4.111  17.878  0.00  0.00    +0.000 NA
ATOM     12  H   UNK A   0       7.340   4.543  17.278  0.00  0.00    +0.000 HD
ATOM     13  H   UNK A   0       6.821   3.112  17.804  0.00  0.00    +0.000 HD
ENDBRANCH   5  11
BRANCH   9  14
ATOM     14  C   UNK A   0       6.881   4.360  13.603  0.00  0.00    +0.000 C 
ATOM     15  O   UNK A   0       7.493   4.999  12.763  0.00  0.00    +0.000 OA
BRANCH  14  16
ATOM     16  O   UNK A   0       6.319   3.154  13.360  0.00  0.00    +0.000 OA
ATOM     17  H   UNK A   0       5.882   2.767  14.141  0.00  0.00    +0.000 HD
ENDBRANCH  14  16
ENDBRANCH   9  14
ENDBRANCH   2   5
BRANCH   1  18
ATOM     18  CA  ILE A   1       2.358   3.065  19.395  0.00  0.00    +0.000 C 
BRANCH  18  19
ATOM     19  CB  ILE A   1       2.009   3.643  20.791  0.00  0.00    +0.000 C 
ATOM     20  CG2 ILE A   1       1.434   2.564  21.718  0.00  0.00    +0.000 C 
BRANCH  19  22
ATOM     21  CD1 ILE A   1       1.817   6.188  20.547  0.00  0.00    +0.000 C 
ATOM     22  CG1 ILE A   1       1.074   4.868  20.698  0.00  0.00    +0.000 C 
ENDBRANCH  19  22
ENDBRANCH  18  19
BRANCH  18  23
ATOM     23  C   ILE A   1       1.142   3.001  18.451  0.00  0.00    +0.000 C 
ATOM     24  O   ILE A   1       0.259   2.160  18.537  0.00  0.00    +0.000 OA
BRANCH  23  25
ATOM     25  OXT ILE A   1       1.117   3.971  17.507  0.00  0.00    +0.000 OA
ATOM     26  HXT ILE A   1       0.264   4.073  17.045  0.00  0.00    +0.000 HD
ENDBRANCH  23  25
ENDBRANCH  18  23
ENDBRANCH   1  18
TORSDOF 9
ENDMDL
MODEL 7
REMARK VINA RESULT:      -7.1      1.710      2.317
REMARK  Name = 
REMARK  11 active torsions:
REMARK  status: ('A' for Active; 'I' for Inactive)
REMARK    1  A    between atoms: CD1_1  and  CG1_2
REMARK    2  A    between atoms: CG1_2  and  CB_3
REMARK    3  A    between atoms: CB_3  and  CG2_4
REMARK    4  A    between atoms: CB_3  and  CA_5
REMARK    5  A    between atoms: CA_5  and  N_6
REMARK    6  A    between atoms: CA_5  and  C_19
REMARK    7  A    between atoms: C_7  and  C_9
REMARK    8  A    between atoms: C_9  and  N_10
REMARK    9  A    between atoms: C_14  and  C_15
REMARK   10  A    between atoms: C_15  and  O_17
REMARK   11  A    between atoms: C_19  and  OXT_21
REMARK                            x       y       z     vdW  Elec       q    Type
REMARK                         _______ _______ _______ _____ _____    ______ ____
ROOT
ATOM      1  N   ILE A   1       4.227   3.946  18.220  0.00  0.00    +0.000 N 
ATOM      2  C   UNK A   0       5.508   4.438  18.340  0.00  0.00    +0.000 C 
ATOM      3  O   UNK A   0       6.185   4.272  19.349  0.00  0.00    +0.000 OA
ATOM      4  H   ILE A   1       3.741   4.135  17.341  0.00  0.00    +0.000 HD
ENDROOT
BRANCH   2   5
ATOM      5  C   UNK A   0       5.977   5.243  17.086  0.00  0.00    +0.000 C 
ATOM      6  C   UNK A   0       5.372   6.666  17.044  0.00  0.00    +0.000 C 
ATOM      7  C   UNK A   0       5.366   7.049  15.560  0.00  0.00    +0.000 C 
ATOM      8  C   UNK A   0       5.070   5.753  14.865  0.00  0.00    +0.000 C 
ATOM      9  C   UNK A   0       6.155   4.797  14.427  0.00  0.00    +0.000 C 
ATOM     10  C   UNK A   0       5.480   4.629  15.784  0.00  0.00    +0.000 C 
BRANCH   5  11
ATOM     11  N   UNK A   0       7.459   5.275  17.060  0.00  0.00    +0.000 NA
ATOM     12  H   UNK A   0       7.772   4.547  16.411  0.00  0.00    +0.000 HD
ATOM     13  H   UNK A   0       7.812   4.967  17.965  0.00  0.00    +0.000 HD
ENDBRANCH   5  11
BRANCH   9  14
ATOM     14  C   UNK A   0       5.874   3.804  13.357  0.00  0.00    +0.000 C 
ATOM     15  O   UNK A   0       4.775   3.681  12.841  0.00  0.00    +0.000 OA
BRANCH  14  16
ATOM     16  O   UNK A   0       6.944   3.049  13.020  0.00  0.00    +0.000 OA
ATOM     17  H   UNK A   0       7.628   3.544  12.535  0.00  0.00    +0.000 HD
ENDBRANCH  14  16
ENDBRANCH   9  14
ENDBRANCH   2   5
BRANCH   1  18
ATOM     18  CA  ILE A   1       3.518   3.206  19.264  0.00  0.00    +0.000 C 
BRANCH  18  19
ATOM     19  CB  ILE A   1       1.980   3.241  19.071  0.00  0.00    +0.000 C 
ATOM     20  CG2 ILE A   1       1.583   4.126  17.882  0.00  0.00    +0.000 C 
BRANCH  19  22
ATOM     21  CD1 ILE A   1       2.058   3.439  21.626  0.00  0.00    +0.000 C 
ATOM     22  CG1 ILE A   1       1.241   3.659  20.361  0.00  0.00    +0.000 C 
ENDBRANCH  19  22
ENDBRANCH  18  19
BRANCH  18  23
ATOM     23  C   ILE A   1       4.090   1.776  19.267  0.00  0.00    +0.000 C 
ATOM     24  O   ILE A   1       3.708   0.889  18.517  0.00  0.00    +0.000 OA
BRANCH  23  25
ATOM     25  OXT ILE A   1       5.076   1.571  20.172  0.00  0.00    +0.000 OA
ATOM     26  HXT ILE A   1       5.441   2.382  20.573  0.00  0.00    +0.000 HD
ENDBRANCH  23  25
ENDBRANCH  18  23
ENDBRANCH   1  18
TORSDOF 9
ENDMDL
MODEL 8
REMARK VINA RESULT:      -7.1      2.014      2.564
REMARK  Name = 
REMARK  11 active torsions:
REMARK  status: ('A' for Active; 'I' for Inactive)
REMARK    1  A    between atoms: CD1_1  and  CG1_2
REMARK    2  A    between atoms: CG1_2  and  CB_3
REMARK    3  A    between atoms: CB_3  and  CG2_4
REMARK    4  A    between atoms: CB_3  and  CA_5
REMARK    5  A    between atoms: CA_5  and  N_6
REMARK    6  A    between atoms: CA_5  and  C_19
REMARK    7  A    between atoms: C_7  and  C_9
REMARK    8  A    between atoms: C_9  and  N_10
REMARK    9  A    between atoms: C_14  and  C_15
REMARK   10  A    between atoms: C_15  and  O_17
REMARK   11  A    between atoms: C_19  and  OXT_21
REMARK                            x       y       z     vdW  Elec       q    Type
REMARK                         _______ _______ _______ _____ _____    ______ ____
ROOT
ATOM      1  N   ILE A   1       4.970   3.505  18.500  0.00  0.00    +0.000 N 
ATOM      2  C   UNK A   0       5.961   4.388  18.868  0.00  0.00    +0.000 C 
ATOM      3  O   UNK A   0       6.122   4.753  20.028  0.00  0.00    +0.000 OA
ATOM      4  H   ILE A   1       4.914   3.262  17.509  0.00  0.00    +0.000 HD
ENDROOT
BRANCH   2   5
ATOM      5  C   UNK A   0       6.817   4.889  17.661  0.00  0.00    +0.000 C 
ATOM      6  C   UNK A   0       7.074   6.414  17.717  0.00  0.00    +0.000 C 
ATOM      7  C   UNK A   0       7.308   6.829  16.260  0.00  0.00    +0.000 C 
ATOM      8  C   UNK A   0       6.376   5.941  15.490  0.00  0.00    +0.000 C 
ATOM      9  C   UNK A   0       6.785   4.580  14.977  0.00  0.00    +0.000 C 
ATOM     10  C   UNK A   0       6.096   4.719  16.330  0.00  0.00    +0.000 C 
BRANCH   5  11
ATOM     11  N   UNK A   0       8.084   4.119  17.616  0.00  0.00    +0.000 NA
ATOM     12  H   UNK A   0       8.344   4.010  16.631  0.00  0.00    +0.000 HD
ATOM     13  H   UNK A   0       7.903   3.167  17.931  0.00  0.00    +0.000 HD
ENDBRANCH   5  11
BRANCH   9  14
ATOM     14  C   UNK A   0       6.037   3.962  13.850  0.00  0.00    +0.000 C 
ATOM     15  O   UNK A   0       4.868   4.219  13.612  0.00  0.00    +0.000 OA
BRANCH  14  16
ATOM     16  O   UNK A   0       6.769   3.084  13.127  0.00  0.00    +0.000 OA
ATOM     17  H   UNK A   0       7.329   3.512  12.454  0.00  0.00    +0.000 HD
ENDBRANCH  14  16
ENDBRANCH   9  14
ENDBRANCH   2   5
BRANCH   1  18
ATOM     18  CA  ILE A   1       3.990   2.926  19.418  0.00  0.00    +0.000 C 
BRANCH  18  19
ATOM     19  CB  ILE A   1       2.643   2.607  18.718  0.00  0.00    +0.000 C 
ATOM     20  CG2 ILE A   1       2.331   3.622  17.611  0.00  0.00    +0.000 C 
BRANCH  19  22
ATOM     21  CD1 ILE A   1       1.190   3.781  20.474  0.00  0.00    +0.000 C 
ATOM     22  CG1 ILE A   1       1.478   2.488  19.724  0.00  0.00    +0.000 C 
ENDBRANCH  19  22
ENDBRANCH  18  19
BRANCH  18  23
ATOM     23  C   ILE A   1       4.646   1.684  20.050  0.00  0.00    +0.000 C 
ATOM     24  O   ILE A   1       5.062   1.646  21.200  0.00  0.00    +0.000 OA
BRANCH  23  25
ATOM     25  OXT ILE A   1       4.722   0.613  19.227  0.00  0.00    +0.000 OA
ATOM     26  HXT ILE A   1       4.690  -0.253  19.675  0.00  0.00    +0.000 HD
ENDBRANCH  23  25
ENDBRANCH  18  23
ENDBRANCH   1  18
TORSDOF 9
ENDMDL
MODEL 9
REMARK VINA RESULT:      -7.1      2.280      6.745
REMARK  Name = 
REMARK  11 active torsions:
REMARK  status: ('A' for Active; 'I' for Inactive)
REMARK    1  A    between atoms: CD1_1  and  CG1_2
REMARK    2  A    between atoms: CG1_2  and  CB_3
REMARK    3  A    between atoms: CB_3  and  CG2_4
REMARK    4  A    between atoms: CB_3  and  CA_5
REMARK    5  A    between atoms: CA_5  and  N_6
REMARK    6  A    between atoms: CA_5  and  C_19
REMARK    7  A    between atoms: C_7  and  C_9
REMARK    8  A    between atoms: C_9  and  N_10
REMARK    9  A    between atoms: C_14  and  C_15
REMARK   10  A    between atoms: C_15  and  O_17
REMARK   11  A    between atoms: C_19  and  OXT_21
REMARK                            x       y       z     vdW  Elec       q    Type
REMARK                         _______ _______ _______ _____ _____    ______ ____
ROOT
ATOM      1  N   ILE A   1       5.257   4.049  16.537  0.00  0.00    +0.000 N 
ATOM      2  C   UNK A   0       5.014   3.808  17.872  0.00  0.00    +0.000 C 
ATOM      3  O   UNK A   0       5.837   4.056  18.747  0.00  0.00    +0.000 OA
ATOM      4  H   ILE A   1       4.511   3.808  15.882  0.00  0.00    +0.000 HD
ENDROOT
BRANCH   2   5
ATOM      5  C   UNK A   0       3.615   3.163  18.134  0.00  0.00    +0.000 C 
ATOM      6  C   UNK A   0       2.542   3.669  17.141  0.00  0.00    +0.000 C 
ATOM      7  C   UNK A   0       1.209   3.498  17.880  0.00  0.00    +0.000 C 
ATOM      8  C   UNK A   0       1.559   3.802  19.307  0.00  0.00    +0.000 C 
ATOM      9  C   UNK A   0       2.024   2.740  20.276  0.00  0.00    +0.000 C 
ATOM     10  C   UNK A   0       3.037   3.561  19.485  0.00  0.00    +0.000 C 
BRANCH   5  11
ATOM     11  N   UNK A   0       3.750   1.686  18.091  0.00  0.00    +0.000 NA
ATOM     12  H   UNK A   0       4.749   1.466  18.134  0.00  0.00    +0.000 HD
ATOM     13  H   UNK A   0       3.462   1.354  17.172  0.00  0.00    +0.000 HD
ENDBRANCH   5  11
BRANCH   9  14
ATOM     14  C   UNK A   0       1.898   2.972  21.739  0.00  0.00    +0.000 C 
ATOM     15  O   UNK A   0       2.665   3.685  22.364  0.00  0.00    +0.000 OA
BRANCH  14  16
ATOM     16  O   UNK A   0       0.864   2.311  22.307  0.00  0.00    +0.000 OA
ATOM     17  H   UNK A   0       0.823   1.370  22.057  0.00  0.00    +0.000 HD
ENDBRANCH  14  16
ENDBRANCH   9  14
ENDBRANCH   2   5
BRANCH   1  18
ATOM     18  CA  ILE A   1       6.506   4.593  16.005  0.00  0.00    +0.000 C 
BRANCH  18  19
ATOM     19  CB  ILE A   1       6.753   4.171  14.533  0.00  0.00    +0.000 C 
ATOM     20  CG2 ILE A   1       7.621   5.196  13.792  0.00  0.00    +0.000 C 
BRANCH  19  22
ATOM     21  CD1 ILE A   1       5.646   3.359  12.368  0.00  0.00    +0.000 C 
ATOM     22  CG1 ILE A   1       5.436   3.891  13.778  0.00  0.00    +0.000 C 
ENDBRANCH  19  22
ENDBRANCH  18  19
BRANCH  18  23
ATOM     23  C   ILE A   1       6.444   6.121  16.188  0.00  0.00    +0.000 C 
ATOM     24  O   ILE A   1       5.480   6.805  15.875  0.00  0.00    +0.000 OA
BRANCH  23  25
ATOM     25  OXT ILE A   1       7.554   6.662  16.743  0.00  0.00    +0.000 OA
ATOM     26  HXT ILE A   1       7.639   7.628  16.634  0.00  0.00    +0.000 HD
ENDBRANCH  23  25
ENDBRANCH  18  23
ENDBRANCH   1  18
TORSDOF 9
ENDMDL
