MODEL 1
REMARK VINA RESULT:      -7.4      0.000      0.000
REMARK  Name = 
REMARK  12 active torsions:
REMARK  status: ('A' for Active; 'I' for Inactive)
REMARK    1  A    between atoms: C_1  and  C_2
REMARK    2  A    between atoms: C_2  and  C_3
REMARK    3  A    between atoms: C_3  and  C_4
REMARK    4  A    between atoms: C_4  and  N_5
REMARK    5  A    between atoms: N_5  and  C_6
REMARK    6  A    between atoms: C_6  and  N_8
REMARK    7  A    between atoms: C_11  and  C_12
REMARK    8  A    between atoms: N_14  and  N_15
REMARK    9  A    between atoms: N_15  and  C_16
REMARK   10  A    between atoms: C_16  and  N_18
REMARK   11  A    between atoms: N_18  and  C_19
REMARK   12  A    between atoms: C_19  and  C_20
REMARK                            x       y       z     vdW  Elec       q    Type
REMARK                         _______ _______ _______ _____ _____    ______ ____
ROOT
ATOM      1  C   UNL     1       2.540   7.263  18.860  0.00  0.00    +0.000 C 
ATOM      2  O   UNL     1       2.525   8.280  18.174  0.00  0.00    +0.000 OA
ATOM      3  N   UNL     1       2.175   7.195  20.195  0.00  0.00    +0.000 N 
ATOM      4  H   UNL     1       2.370   6.348  20.718  0.00  0.00    +0.000 HD
ENDROOT
BRANCH   1   8
ATOM      5  N   UNL     1       5.516   3.955  16.880  0.00  0.00    +0.000 N 
ATOM      6  C   UNL     1       4.407   4.565  17.394  0.00  0.00    +0.000 A 
ATOM      7  N   UNL     1       4.278   5.805  17.802  0.00  0.00    +0.000 NA
ATOM      8  C   UNL     1       2.997   5.973  18.336  0.00  0.00    +0.000 A 
ATOM      9  C   UNL     1       2.214   4.831  18.322  0.00  0.00    +0.000 A 
ATOM     10  S   UNL     1       3.050   3.549  17.553  0.00  0.00    +0.000 S 
ATOM     11  H   UNL     1       5.424   2.984  16.614  0.00  0.00    +0.000 HD
BRANCH   5  12
ATOM     12  C   UNL     1       6.757   4.511  16.762  0.00  0.00    +0.000 C 
ATOM     13  S   UNL     1       7.565   4.906  18.172  0.00  0.00    +0.000 S 
BRANCH  12  14
ATOM     14  N   UNL     1       7.241   4.696  15.499  0.00  0.00    +0.000 N 
ATOM     15  H   UNL     1       8.241   4.868  15.441  0.00  0.00    +0.000 HD
BRANCH  14  16
ATOM     16  C   UNL     1       6.460   4.833  14.282  0.00  0.00    +0.000 C 
BRANCH  16  17
ATOM     17  C   UNL     1       6.199   3.494  13.595  0.00  0.00    +0.000 C 
BRANCH  17  19
ATOM     18  C   UNL     1       4.633   3.169  11.646  0.00  0.00    +0.000 C 
ATOM     19  C   UNL     1       6.014   3.633  12.083  0.00  0.00    +0.000 C 
ENDBRANCH  17  19
ENDBRANCH  16  17
ENDBRANCH  14  16
ENDBRANCH  12  14
ENDBRANCH   5  12
ENDBRANCH   1   8
BRANCH   3  20
ATOM     20  N   UNL     1       1.875   8.366  20.892  0.00  0.00    +0.000 N 
ATOM     21  H   UNL     1       2.605   8.769  21.469  0.00  0.00    +0.000 HD
BRANCH  20  22
ATOM     22  C   UNL     1       0.621   8.925  20.905  0.00  0.00    +0.000 C 
ATOM     23  S   UNL     1      -0.500   8.815  22.139  0.00  0.00    +0.000 S 
BRANCH  22  24
ATOM     24  N   UNL     1       0.274   9.610  19.772  0.00  0.00    +0.000 N 
ATOM     25  H   UNL     1       0.888   9.429  18.987  0.00  0.00    +0.000 HD
BRANCH  24  26
ATOM     26  C   UNL     1      -0.513  10.831  19.717  0.00  0.00    +0.000 C 
BRANCH  26  27
ATOM     27  C   UNL     1      -1.565  10.776  18.640  0.00  0.00    +0.000 A 
ATOM     28  C   UNL     1      -2.725  11.562  18.722  0.00  0.00    +0.000 A 
ATOM     29  C   UNL     1      -3.692  11.500  17.720  0.00  0.00    +0.000 A 
ATOM     30  C   UNL     1      -3.511  10.669  16.612  0.00  0.00    +0.000 A 
ATOM     31  C   UNL     1      -2.352   9.894  16.517  0.00  0.00    +0.000 A 
ATOM     32  C   UNL     1      -1.387   9.946  17.520  0.00  0.00    +0.000 A 
ENDBRANCH  26  27
ENDBRANCH  24  26
ENDBRANCH  22  24
ENDBRANCH  20  22
ENDBRANCH   3  20
TORSDOF 11
ENDMDL
MODEL 2
REMARK VINA RESULT:      -7.4      1.664      2.833
REMARK  Name = 
REMARK  12 active torsions:
REMARK  status: ('A' for Active; 'I' for Inactive)
REMARK    1  A    between atoms: C_1  and  C_2
REMARK    2  A    between atoms: C_2  and  C_3
REMARK    3  A    between atoms: C_3  and  C_4
REMARK    4  A    between atoms: C_4  and  N_5
REMARK    5  A    between atoms: N_5  and  C_6
REMARK    6  A    between atoms: C_6  and  N_8
REMARK    7  A    between atoms: C_11  and  C_12
REMARK    8  A    between atoms: N_14  and  N_15
REMARK    9  A    between atoms: N_15  and  C_16
REMARK   10  A    between atoms: C_16  and  N_18
REMARK   11  A    between atoms: N_18  and  C_19
REMARK   12  A    between atoms: C_19  and  C_20
REMARK                            x       y       z     vdW  Elec       q    Type
REMARK                         _______ _______ _______ _____ _____    ______ ____
ROOT
ATOM      1  C   UNL     1       2.573   7.008  18.976  0.00  0.00    +0.000 C 
ATOM      2  O   UNL     1       2.774   8.038  18.341  0.00  0.00    +0.000 OA
ATOM      3  N   UNL     1       2.088   6.951  20.273  0.00  0.00    +0.000 N 
ATOM      4  H   UNL     1       2.105   6.066  20.768  0.00  0.00    +0.000 HD
ENDROOT
BRANCH   1   8
ATOM      5  N   UNL     1       4.983   3.501  16.606  0.00  0.00    +0.000 N 
ATOM      6  C   UNL     1       4.018   4.179  17.295  0.00  0.00    +0.000 A 
ATOM      7  N   UNL     1       4.018   5.436  17.668  0.00  0.00    +0.000 NA
ATOM      8  C   UNL     1       2.871   5.681  18.429  0.00  0.00    +0.000 A 
ATOM      9  C   UNL     1       2.056   4.576  18.613  0.00  0.00    +0.000 A 
ATOM     10  S   UNL     1       2.678   3.233  17.752  0.00  0.00    +0.000 S 
ATOM     11  H   UNL     1       4.804   2.527  16.403  0.00  0.00    +0.000 HD
BRANCH   5  12
ATOM     12  C   UNL     1       6.198   3.995  16.230  0.00  0.00    +0.000 C 
ATOM     13  S   UNL     1       6.440   4.304  14.605  0.00  0.00    +0.000 S 
BRANCH  12  14
ATOM     14  N   UNL     1       7.120   4.203  17.216  0.00  0.00    +0.000 N 
ATOM     15  H   UNL     1       7.550   3.362  17.590  0.00  0.00    +0.000 HD
BRANCH  14  16
ATOM     16  C   UNL     1       7.412   5.463  17.879  0.00  0.00    +0.000 C 
BRANCH  16  17
ATOM     17  C   UNL     1       7.454   6.642  16.910  0.00  0.00    +0.000 C 
BRANCH  17  19
ATOM     18  C   UNL     1       8.283   8.721  18.073  0.00  0.00    +0.000 C 
ATOM     19  C   UNL     1       7.063   7.964  17.573  0.00  0.00    +0.000 C 
ENDBRANCH  17  19
ENDBRANCH  16  17
ENDBRANCH  14  16
ENDBRANCH  12  14
ENDBRANCH   5  12
ENDBRANCH   1   8
BRANCH   3  20
ATOM     20  N   UNL     1       1.913   8.129  20.999  0.00  0.00    +0.000 N 
ATOM     21  H   UNL     1       2.651   8.402  21.639  0.00  0.00    +0.000 HD
BRANCH  20  22
ATOM     22  C   UNL     1       0.754   8.865  20.956  0.00  0.00    +0.000 C 
ATOM     23  S   UNL     1      -0.351   9.048  22.196  0.00  0.00    +0.000 S 
BRANCH  22  24
ATOM     24  N   UNL     1       0.494   9.476  19.760  0.00  0.00    +0.000 N 
ATOM     25  H   UNL     1       1.044   9.111  18.992  0.00  0.00    +0.000 HD
BRANCH  24  26
ATOM     26  C   UNL     1      -0.079  10.800  19.580  0.00  0.00    +0.000 C 
BRANCH  26  27
ATOM     27  C   UNL     1      -1.281  10.777  18.674  0.00  0.00    +0.000 A 
ATOM     28  C   UNL     1      -1.305   9.971  17.524  0.00  0.00    +0.000 A 
ATOM     29  C   UNL     1      -2.424   9.961  16.692  0.00  0.00    +0.000 A 
ATOM     30  C   UNL     1      -3.542  10.738  17.000  0.00  0.00    +0.000 A 
ATOM     31  C   UNL     1      -3.531  11.531  18.151  0.00  0.00    +0.000 A 
ATOM     32  C   UNL     1      -2.413  11.551  18.981  0.00  0.00    +0.000 A 
ENDBRANCH  26  27
ENDBRANCH  24  26
ENDBRANCH  22  24
ENDBRANCH  20  22
ENDBRANCH   3  20
TORSDOF 11
ENDMDL
MODEL 3
REMARK VINA RESULT:      -7.1      2.909      3.998
REMARK  Name = 
REMARK  12 active torsions:
REMARK  status: ('A' for Active; 'I' for Inactive)
REMARK    1  A    between atoms: C_1  and  C_2
REMARK    2  A    between atoms: C_2  and  C_3
REMARK    3  A    between atoms: C_3  and  C_4
REMARK    4  A    between atoms: C_4  and  N_5
REMARK    5  A    between atoms: N_5  and  C_6
REMARK    6  A    between atoms: C_6  and  N_8
REMARK    7  A    between atoms: C_11  and  C_12
REMARK    8  A    between atoms: N_14  and  N_15
REMARK    9  A    between atoms: N_15  and  C_16
REMARK   10  A    between atoms: C_16  and  N_18
REMARK   11  A    between atoms: N_18  and  C_19
REMARK   12  A    between atoms: C_19  and  C_20
REMARK                            x       y       z     vdW  Elec       q    Type
REMARK                         _______ _______ _______ _____ _____    ______ ____
ROOT
ATOM      1  C   UNL     1       2.131   5.010  20.348  0.00  0.00    +0.000 C 
ATOM      2  O   UNL     1       1.493   4.572  21.300  0.00  0.00    +0.000 OA
ATOM      3  N   UNL     1       2.439   6.345  20.139  0.00  0.00    +0.000 N 
ATOM      4  H   UNL     1       2.833   6.626  19.247  0.00  0.00    +0.000 HD
ENDROOT
BRANCH   1   8
ATOM      5  N   UNL     1       4.909   3.474  16.654  0.00  0.00    +0.000 N 
ATOM      6  C   UNL     1       3.911   3.561  17.582  0.00  0.00    +0.000 A 
ATOM      7  N   UNL     1       3.706   4.507  18.467  0.00  0.00    +0.000 NA
ATOM      8  C   UNL     1       2.621   4.144  19.272  0.00  0.00    +0.000 A 
ATOM      9  C   UNL     1       2.062   2.915  18.963  0.00  0.00    +0.000 A 
ATOM     10  S   UNL     1       2.839   2.239  17.594  0.00  0.00    +0.000 S 
ATOM     11  H   UNL     1       4.904   2.665  16.047  0.00  0.00    +0.000 HD
BRANCH   5  12
ATOM     12  C   UNL     1       5.957   4.337  16.519  0.00  0.00    +0.000 C 
ATOM     13  S   UNL     1       6.663   4.468  15.008  0.00  0.00    +0.000 S 
BRANCH  12  14
ATOM     14  N   UNL     1       6.344   5.031  17.629  0.00  0.00    +0.000 N 
ATOM     15  H   UNL     1       5.613   5.584  18.069  0.00  0.00    +0.000 HD
BRANCH  14  16
ATOM     16  C   UNL     1       7.699   5.182  18.130  0.00  0.00    +0.000 C 
BRANCH  16  17
ATOM     17  C   UNL     1       7.985   6.594  18.639  0.00  0.00    +0.000 C 
BRANCH  17  19
ATOM     18  C   UNL     1       8.249   9.013  17.979  0.00  0.00    +0.000 C 
ATOM     19  C   UNL     1       7.629   7.673  17.615  0.00  0.00    +0.000 C 
ENDBRANCH  17  19
ENDBRANCH  16  17
ENDBRANCH  14  16
ENDBRANCH  12  14
ENDBRANCH   5  12
ENDBRANCH   1   8
BRANCH   3  20
ATOM     20  N   UNL     1       1.904   7.319  20.981  0.00  0.00    +0.000 N 
ATOM     21  H   UNL     1       2.011   7.187  21.980  0.00  0.00    +0.000 HD
BRANCH  20  22
ATOM     22  C   UNL     1       1.163   8.378  20.518  0.00  0.00    +0.000 C 
ATOM     23  S   UNL     1       1.377   9.178  19.066  0.00  0.00    +0.000 S 
BRANCH  22  24
ATOM     24  N   UNL     1       0.177   8.815  21.360  0.00  0.00    +0.000 N 
ATOM     25  H   UNL     1      -0.757   8.590  21.039  0.00  0.00    +0.000 HD
BRANCH  24  26
ATOM     26  C   UNL     1       0.291   9.894  22.327  0.00  0.00    +0.000 C 
BRANCH  26  27
ATOM     27  C   UNL     1      -0.784  10.932  22.146  0.00  0.00    +0.000 A 
ATOM     28  C   UNL     1      -0.981  11.561  20.905  0.00  0.00    +0.000 A 
ATOM     29  C   UNL     1      -1.979  12.522  20.751  0.00  0.00    +0.000 A 
ATOM     30  C   UNL     1      -2.808  12.859  21.822  0.00  0.00    +0.000 A 
ATOM     31  C   UNL     1      -2.628  12.227  23.056  0.00  0.00    +0.000 A 
ATOM     32  C   UNL     1      -1.626  11.272  23.217  0.00  0.00    +0.000 A 
ENDBRANCH  26  27
ENDBRANCH  24  26
ENDBRANCH  22  24
ENDBRANCH  20  22
ENDBRANCH   3  20
TORSDOF 11
ENDMDL
MODEL 4
REMARK VINA RESULT:      -7.1      2.511      3.668
REMARK  Name = 
REMARK  12 active torsions:
REMARK  status: ('A' for Active; 'I' for Inactive)
REMARK    1  A    between atoms: C_1  and  C_2
REMARK    2  A    between atoms: C_2  and  C_3
REMARK    3  A    between atoms: C_3  and  C_4
REMARK    4  A    between atoms: C_4  and  N_5
REMARK    5  A    between atoms: N_5  and  C_6
REMARK    6  A    between atoms: C_6  and  N_8
REMARK    7  A    between atoms: C_11  and  C_12
REMARK    8  A    between atoms: N_14  and  N_15
REMARK    9  A    between atoms: N_15  and  C_16
REMARK   10  A    between atoms: C_16  and  N_18
REMARK   11  A    between atoms: N_18  and  C_19
REMARK   12  A    between atoms: C_19  and  C_20
REMARK                            x       y       z     vdW  Elec       q    Type
REMARK                         _______ _______ _______ _____ _____    ______ ____
ROOT
ATOM      1  C   UNL     1       1.676   4.597  20.138  0.00  0.00    +0.000 C 
ATOM      2  O   UNL     1       0.571   4.200  20.492  0.00  0.00    +0.000 OA
ATOM      3  N   UNL     1       2.206   5.845  20.425  0.00  0.00    +0.000 N 
ATOM      4  H   UNL     1       3.057   6.139  19.958  0.00  0.00    +0.000 HD
ENDROOT
BRANCH   1   8
ATOM      5  N   UNL     1       5.120   3.515  16.869  0.00  0.00    +0.000 N 
ATOM      6  C   UNL     1       4.112   3.399  17.782  0.00  0.00    +0.000 A 
ATOM      7  N   UNL     1       3.454   4.356  18.392  0.00  0.00    +0.000 NA
ATOM      8  C   UNL     1       2.571   3.782  19.311  0.00  0.00    +0.000 A 
ATOM      9  C   UNL     1       2.616   2.399  19.366  0.00  0.00    +0.000 A 
ATOM     10  S   UNL     1       3.710   1.796  18.194  0.00  0.00    +0.000 S 
ATOM     11  H   UNL     1       5.508   2.656  16.501  0.00  0.00    +0.000 HD
BRANCH   5  12
ATOM     12  C   UNL     1       5.706   4.678  16.462  0.00  0.00    +0.000 C 
ATOM     13  S   UNL     1       6.035   4.851  14.832  0.00  0.00    +0.000 S 
BRANCH  12  14
ATOM     14  N   UNL     1       5.972   5.613  17.422  0.00  0.00    +0.000 N 
ATOM     15  H   UNL     1       5.548   6.523  17.268  0.00  0.00    +0.000 HD
BRANCH  14  16
ATOM     16  C   UNL     1       6.912   5.483  18.522  0.00  0.00    +0.000 C 
BRANCH  16  17
ATOM     17  C   UNL     1       7.916   6.632  18.576  0.00  0.00    +0.000 C 
BRANCH  17  19
ATOM     18  C   UNL     1       8.205   9.066  17.982  0.00  0.00    +0.000 C 
ATOM     19  C   UNL     1       7.611   7.731  17.558  0.00  0.00    +0.000 C 
ENDBRANCH  17  19
ENDBRANCH  16  17
ENDBRANCH  14  16
ENDBRANCH  12  14
ENDBRANCH   5  12
ENDBRANCH   1   8
BRANCH   3  20
ATOM     20  N   UNL     1       1.416   6.804  21.059  0.00  0.00    +0.000 N 
ATOM     21  H   UNL     1       0.670   6.474  21.661  0.00  0.00    +0.000 HD
BRANCH  20  22
ATOM     22  C   UNL     1       1.545   8.150  20.823  0.00  0.00    +0.000 C 
ATOM     23  S   UNL     1       1.104   9.385  21.859  0.00  0.00    +0.000 S 
BRANCH  22  24
ATOM     24  N   UNL     1       2.066   8.482  19.602  0.00  0.00    +0.000 N 
ATOM     25  H   UNL     1       3.001   8.870  19.654  0.00  0.00    +0.000 HD
BRANCH  24  26
ATOM     26  C   UNL     1       1.308   8.768  18.396  0.00  0.00    +0.000 C 
BRANCH  26  27
ATOM     27  C   UNL     1       0.695  10.143  18.426  0.00  0.00    +0.000 A 
ATOM     28  C   UNL     1      -0.690  10.321  18.278  0.00  0.00    +0.000 A 
ATOM     29  C   UNL     1      -1.245  11.600  18.306  0.00  0.00    +0.000 A 
ATOM     30  C   UNL     1      -0.433  12.719  18.500  0.00  0.00    +0.000 A 
ATOM     31  C   UNL     1       0.945  12.548  18.663  0.00  0.00    +0.000 A 
ATOM     32  C   UNL     1       1.504  11.273  18.627  0.00  0.00    +0.000 A 
ENDBRANCH  26  27
ENDBRANCH  24  26
ENDBRANCH  22  24
ENDBRANCH  20  22
ENDBRANCH   3  20
TORSDOF 11
ENDMDL
MODEL 5
REMARK VINA RESULT:      -7.0      3.734      4.980
REMARK  Name = 
REMARK  12 active torsions:
REMARK  status: ('A' for Active; 'I' for Inactive)
REMARK    1  A    between atoms: C_1  and  C_2
REMARK    2  A    between atoms: C_2  and  C_3
REMARK    3  A    between atoms: C_3  and  C_4
REMARK    4  A    between atoms: C_4  and  N_5
REMARK    5  A    between atoms: N_5  and  C_6
REMARK    6  A    between atoms: C_6  and  N_8
REMARK    7  A    between atoms: C_11  and  C_12
REMARK    8  A    between atoms: N_14  and  N_15
REMARK    9  A    between atoms: N_15  and  C_16
REMARK   10  A    between atoms: C_16  and  N_18
REMARK   11  A    between atoms: N_18  and  C_19
REMARK   12  A    between atoms: C_19  and  C_20
REMARK                            x       y       z     vdW  Elec       q    Type
REMARK                         _______ _______ _______ _____ _____    ______ ____
ROOT
ATOM      1  C   UNL     1       4.648   3.455  18.043  0.00  0.00    +0.000 C 
ATOM      2  O   UNL     1       3.705   2.994  17.408  0.00  0.00    +0.000 OA
ATOM      3  N   UNL     1       4.908   3.206  19.382  0.00  0.00    +0.000 N 
ATOM      4  H   UNL     1       5.616   3.754  19.857  0.00  0.00    +0.000 HD
ENDROOT
BRANCH   1   8
ATOM      5  N   UNL     1       7.545   5.465  14.684  0.00  0.00    +0.000 N 
ATOM      6  C   UNL     1       6.924   5.189  15.868  0.00  0.00    +0.000 A 
ATOM      7  N   UNL     1       6.057   4.239  16.128  0.00  0.00    +0.000 NA
ATOM      8  C   UNL     1       5.613   4.383  17.446  0.00  0.00    +0.000 A 
ATOM      9  C   UNL     1       6.160   5.460  18.124  0.00  0.00    +0.000 A 
ATOM     10  S   UNL     1       7.312   6.255  17.137  0.00  0.00    +0.000 S 
ATOM     11  H   UNL     1       8.192   6.242  14.675  0.00  0.00    +0.000 HD
BRANCH   5  12
ATOM     12  C   UNL     1       7.317   4.840  13.492  0.00  0.00    +0.000 C 
ATOM     13  S   UNL     1       7.973   5.531  12.118  0.00  0.00    +0.000 S 
BRANCH  12  14
ATOM     14  N   UNL     1       6.575   3.694  13.519  0.00  0.00    +0.000 N 
ATOM     15  H   UNL     1       6.608   3.178  14.394  0.00  0.00    +0.000 HD
BRANCH  14  16
ATOM     16  C   UNL     1       5.897   3.073  12.394  0.00  0.00    +0.000 C 
BRANCH  16  17
ATOM     17  C   UNL     1       4.581   3.763  12.045  0.00  0.00    +0.000 C 
BRANCH  17  19
ATOM     18  C   UNL     1       3.149   4.012   9.984  0.00  0.00    +0.000 C 
ATOM     19  C   UNL     1       3.806   3.034  10.946  0.00  0.00    +0.000 C 
ENDBRANCH  17  19
ENDBRANCH  16  17
ENDBRANCH  14  16
ENDBRANCH  12  14
ENDBRANCH   5  12
ENDBRANCH   1   8
BRANCH   3  20
ATOM     20  N   UNL     1       3.992   2.478  20.141  0.00  0.00    +0.000 N 
ATOM     21  H   UNL     1       4.259   1.544  20.431  0.00  0.00    +0.000 HD
BRANCH  20  22
ATOM     22  C   UNL     1       2.726   2.933  20.418  0.00  0.00    +0.000 C 
ATOM     23  S   UNL     1       1.291   2.188  19.995  0.00  0.00    +0.000 S 
BRANCH  22  24
ATOM     24  N   UNL     1       2.666   4.127  21.084  0.00  0.00    +0.000 N 
ATOM     25  H   UNL     1       3.244   4.155  21.915  0.00  0.00    +0.000 HD
BRANCH  24  26
ATOM     26  C   UNL     1       1.587   5.097  21.008  0.00  0.00    +0.000 C 
BRANCH  26  27
ATOM     27  C   UNL     1       1.887   6.200  20.027  0.00  0.00    +0.000 A 
ATOM     28  C   UNL     1       1.647   7.544  20.355  0.00  0.00    +0.000 A 
ATOM     29  C   UNL     1       1.928   8.556  19.437  0.00  0.00    +0.000 A 
ATOM     30  C   UNL     1       2.468   8.247  18.187  0.00  0.00    +0.000 A 
ATOM     31  C   UNL     1       2.723   6.912  17.859  0.00  0.00    +0.000 A 
ATOM     32  C   UNL     1       2.436   5.898  18.770  0.00  0.00    +0.000 A 
ENDBRANCH  26  27
ENDBRANCH  24  26
ENDBRANCH  22  24
ENDBRANCH  20  22
ENDBRANCH   3  20
TORSDOF 11
ENDMDL
MODEL 6
REMARK VINA RESULT:      -7.0      2.572      3.762
REMARK  Name = 
REMARK  12 active torsions:
REMARK  status: ('A' for Active; 'I' for Inactive)
REMARK    1  A    between atoms: C_1  and  C_2
REMARK    2  A    between atoms: C_2  and  C_3
REMARK    3  A    between atoms: C_3  and  C_4
REMARK    4  A    between atoms: C_4  and  N_5
REMARK    5  A    between atoms: N_5  and  C_6
REMARK    6  A    between atoms: C_6  and  N_8
REMARK    7  A    between atoms: C_11  and  C_12
REMARK    8  A    between atoms: N_14  and  N_15
REMARK    9  A    between atoms: N_15  and  C_16
REMARK   10  A    between atoms: C_16  and  N_18
REMARK   11  A    between atoms: N_18  and  C_19
REMARK   12  A    between atoms: C_19  and  C_20
REMARK                            x       y       z     vdW  Elec       q    Type
REMARK                         _______ _______ _______ _____ _____    ______ ____
ROOT
ATOM      1  C   UNL     1       2.562   7.674  18.039  0.00  0.00    +0.000 C 
ATOM      2  O   UNL     1       2.799   8.452  17.119  0.00  0.00    +0.000 OA
ATOM      3  N   UNL     1       1.838   7.983  19.180  0.00  0.00    +0.000 N 
ATOM      4  H   UNL     1       1.830   7.326  19.952  0.00  0.00    +0.000 HD
ENDROOT
BRANCH   1   8
ATOM      5  N   UNL     1       5.354   3.847  16.908  0.00  0.00    +0.000 N 
ATOM      6  C   UNL     1       4.362   4.622  17.437  0.00  0.00    +0.000 A 
ATOM      7  N   UNL     1       4.135   5.899  17.238  0.00  0.00    +0.000 NA
ATOM      8  C   UNL     1       3.069   6.299  18.050  0.00  0.00    +0.000 A 
ATOM      9  C   UNL     1       2.545   5.296  18.848  0.00  0.00    +0.000 A 
ATOM     10  S   UNL     1       3.330   3.810  18.521  0.00  0.00    +0.000 S 
ATOM     11  H   UNL     1       5.368   2.873  17.176  0.00  0.00    +0.000 HD
BRANCH   5  12
ATOM     12  C   UNL     1       6.375   4.282  16.113  0.00  0.00    +0.000 C 
ATOM     13  S   UNL     1       6.232   4.030  14.465  0.00  0.00    +0.000 S 
BRANCH  12  14
ATOM     14  N   UNL     1       7.430   4.893  16.727  0.00  0.00    +0.000 N 
ATOM     15  H   UNL     1       8.163   5.219  16.104  0.00  0.00    +0.000 HD
BRANCH  14  16
ATOM     16  C   UNL     1       7.676   4.969  18.157  0.00  0.00    +0.000 C 
BRANCH  16  17
ATOM     17  C   UNL     1       7.891   6.401  18.642  0.00  0.00    +0.000 C 
BRANCH  17  19
ATOM     18  C   UNL     1       8.139   8.805  17.922  0.00  0.00    +0.000 C 
ATOM     19  C   UNL     1       7.561   7.442  17.572  0.00  0.00    +0.000 C 
ENDBRANCH  17  19
ENDBRANCH  16  17
ENDBRANCH  14  16
ENDBRANCH  12  14
ENDBRANCH   5  12
ENDBRANCH   1   8
BRANCH   3  20
ATOM     20  N   UNL     1       1.428   9.297  19.405  0.00  0.00    +0.000 N 
ATOM     21  H   UNL     1       1.669   9.991  18.706  0.00  0.00    +0.000 HD
BRANCH  20  22
ATOM     22  C   UNL     1       0.810   9.696  20.565  0.00  0.00    +0.000 C 
ATOM     23  S   UNL     1       1.099   9.098  22.098  0.00  0.00    +0.000 S 
BRANCH  22  24
ATOM     24  N   UNL     1      -0.149  10.660  20.414  0.00  0.00    +0.000 N 
ATOM     25  H   UNL     1      -0.635  10.612  19.527  0.00  0.00    +0.000 HD
BRANCH  24  26
ATOM     26  C   UNL     1      -0.206  11.930  21.120  0.00  0.00    +0.000 C 
BRANCH  26  27
ATOM     27  C   UNL     1      -1.579  12.207  21.673  0.00  0.00    +0.000 A 
ATOM     28  C   UNL     1      -1.872  11.984  23.028  0.00  0.00    +0.000 A 
ATOM     29  C   UNL     1      -3.148  12.243  23.527  0.00  0.00    +0.000 A 
ATOM     30  C   UNL     1      -4.147  12.744  22.690  0.00  0.00    +0.000 A 
ATOM     31  C   UNL     1      -3.858  12.982  21.343  0.00  0.00    +0.000 A 
ATOM     32  C   UNL     1      -2.587  12.717  20.838  0.00  0.00    +0.000 A 
ENDBRANCH  26  27
ENDBRANCH  24  26
ENDBRANCH  22  24
ENDBRANCH  20  22
ENDBRANCH   3  20
TORSDOF 11
ENDMDL
MODEL 7
REMARK VINA RESULT:      -6.9      2.583      3.027
REMARK  Name = 
REMARK  12 active torsions:
REMARK  status: ('A' for Active; 'I' for Inactive)
REMARK    1  A    between atoms: C_1  and  C_2
REMARK    2  A    between atoms: C_2  and  C_3
REMARK    3  A    between atoms: C_3  and  C_4
REMARK    4  A    between atoms: C_4  and  N_5
REMARK    5  A    between atoms: N_5  and  C_6
REMARK    6  A    between atoms: C_6  and  N_8
REMARK    7  A    between atoms: C_11  and  C_12
REMARK    8  A    between atoms: N_14  and  N_15
REMARK    9  A    between atoms: N_15  and  C_16
REMARK   10  A    between atoms: C_16  and  N_18
REMARK   11  A    between atoms: N_18  and  C_19
REMARK   12  A    between atoms: C_19  and  C_20
REMARK                            x       y       z     vdW  Elec       q    Type
REMARK                         _______ _______ _______ _____ _____    ______ ____
ROOT
ATOM      1  C   UNL     1       1.750   5.035  20.587  0.00  0.00    +0.000 C 
ATOM      2  O   UNL     1       0.592   4.628  20.579  0.00  0.00    +0.000 OA
ATOM      3  N   UNL     1       2.141   6.322  20.921  0.00  0.00    +0.000 N 
ATOM      4  H   UNL     1       3.099   6.608  20.747  0.00  0.00    +0.000 HD
ENDROOT
BRANCH   1   8
ATOM      5  N   UNL     1       5.911   3.717  18.426  0.00  0.00    +0.000 N 
ATOM      6  C   UNL     1       4.745   3.678  19.137  0.00  0.00    +0.000 A 
ATOM      7  N   UNL     1       3.879   4.645  19.329  0.00  0.00    +0.000 NA
ATOM      8  C   UNL     1       2.879   4.188  20.193  0.00  0.00    +0.000 A 
ATOM      9  C   UNL     1       3.049   2.886  20.634  0.00  0.00    +0.000 A 
ATOM     10  S   UNL     1       4.426   2.186  19.892  0.00  0.00    +0.000 S 
ATOM     11  H   UNL     1       6.453   2.864  18.385  0.00  0.00    +0.000 HD
BRANCH   5  12
ATOM     12  C   UNL     1       6.452   4.819  17.830  0.00  0.00    +0.000 C 
ATOM     13  S   UNL     1       7.704   5.593  18.624  0.00  0.00    +0.000 S 
BRANCH  12  14
ATOM     14  N   UNL     1       5.929   5.199  16.628  0.00  0.00    +0.000 N 
ATOM     15  H   UNL     1       5.849   6.203  16.489  0.00  0.00    +0.000 HD
BRANCH  14  16
ATOM     16  C   UNL     1       5.336   4.330  15.625  0.00  0.00    +0.000 C 
BRANCH  16  17
ATOM     17  C   UNL     1       6.301   3.998  14.489  0.00  0.00    +0.000 C 
BRANCH  17  19
ATOM     18  C   UNL     1       6.417   3.132  12.124  0.00  0.00    +0.000 C 
ATOM     19  C   UNL     1       5.611   3.945  13.126  0.00  0.00    +0.000 C 
ENDBRANCH  17  19
ENDBRANCH  16  17
ENDBRANCH  14  16
ENDBRANCH  12  14
ENDBRANCH   5  12
ENDBRANCH   1   8
BRANCH   3  20
ATOM     20  N   UNL     1       1.175   7.301  21.157  0.00  0.00    +0.000 N 
ATOM     21  H   UNL     1       0.340   7.024  21.660  0.00  0.00    +0.000 HD
BRANCH  20  22
ATOM     22  C   UNL     1       1.267   8.575  20.654  0.00  0.00    +0.000 C 
ATOM     23  S   UNL     1       1.513   8.994  19.055  0.00  0.00    +0.000 S 
BRANCH  22  24
ATOM     24  N   UNL     1       1.169   9.578  21.580  0.00  0.00    +0.000 N 
ATOM     25  H   UNL     1       2.052  10.036  21.773  0.00  0.00    +0.000 HD
BRANCH  24  26
ATOM     26  C   UNL     1       0.128   9.718  22.584  0.00  0.00    +0.000 C 
BRANCH  26  27
ATOM     27  C   UNL     1      -0.819  10.844  22.262  0.00  0.00    +0.000 A 
ATOM     28  C   UNL     1      -1.684  11.364  23.238  0.00  0.00    +0.000 A 
ATOM     29  C   UNL     1      -2.558  12.404  22.926  0.00  0.00    +0.000 A 
ATOM     30  C   UNL     1      -2.572  12.955  21.643  0.00  0.00    +0.000 A 
ATOM     31  C   UNL     1      -1.703  12.452  20.669  0.00  0.00    +0.000 A 
ATOM     32  C   UNL     1      -0.835  11.407  20.975  0.00  0.00    +0.000 A 
ENDBRANCH  26  27
ENDBRANCH  24  26
ENDBRANCH  22  24
ENDBRANCH  20  22
ENDBRANCH   3  20
TORSDOF 11
ENDMDL
MODEL 8
REMARK VINA RESULT:      -6.9      3.660      5.700
REMARK  Name = 
REMARK  12 active torsions:
REMARK  status: ('A' for Active; 'I' for Inactive)
REMARK    1  A    between atoms: C_1  and  C_2
REMARK    2  A    between atoms: C_2  and  C_3
REMARK    3  A    between atoms: C_3  and  C_4
REMARK    4  A    between atoms: C_4  and  N_5
REMARK    5  A    between atoms: N_5  and  C_6
REMARK    6  A    between atoms: C_6  and  N_8
REMARK    7  A    between atoms: C_11  and  C_12
REMARK    8  A    between atoms: N_14  and  N_15
REMARK    9  A    between atoms: N_15  and  C_16
REMARK   10  A    between atoms: C_16  and  N_18
REMARK   11  A    between atoms: N_18  and  C_19
REMARK   12  A    between atoms: C_19  and  C_20
REMARK                            x       y       z     vdW  Elec       q    Type
REMARK                         _______ _______ _______ _____ _____    ______ ____
ROOT
ATOM      1  C   UNL     1       3.804   3.439  17.531  0.00  0.00    +0.000 C 
ATOM      2  O   UNL     1       3.762   2.218  17.647  0.00  0.00    +0.000 OA
ATOM      3  N   UNL     1       2.871   4.323  18.048  0.00  0.00    +0.000 N 
ATOM      4  H   UNL     1       2.905   5.297  17.767  0.00  0.00    +0.000 HD
ENDROOT
BRANCH   1   8
ATOM      5  N   UNL     1       7.451   6.521  16.569  0.00  0.00    +0.000 N 
ATOM      6  C   UNL     1       6.473   5.579  16.427  0.00  0.00    +0.000 A 
ATOM      7  N   UNL     1       5.623   5.148  17.329  0.00  0.00    +0.000 NA
ATOM      8  C   UNL     1       4.860   4.116  16.773  0.00  0.00    +0.000 A 
ATOM      9  C   UNL     1       5.187   3.799  15.465  0.00  0.00    +0.000 A 
ATOM     10  S   UNL     1       6.401   4.860  14.885  0.00  0.00    +0.000 S 
ATOM     11  H   UNL     1       8.012   6.727  15.754  0.00  0.00    +0.000 HD
BRANCH   5  12
ATOM     12  C   UNL     1       7.792   7.155  17.728  0.00  0.00    +0.000 C 
ATOM     13  S   UNL     1       8.008   6.212  19.093  0.00  0.00    +0.000 S 
BRANCH  12  14
ATOM     14  N   UNL     1       7.936   8.512  17.679  0.00  0.00    +0.000 N 
ATOM     15  H   UNL     1       7.614   8.950  16.821  0.00  0.00    +0.000 HD
BRANCH  14  16
ATOM     16  C   UNL     1       8.639   9.345  18.640  0.00  0.00    +0.000 C 
BRANCH  16  17
ATOM     17  C   UNL     1       9.106  10.670  18.041  0.00  0.00    +0.000 C 
BRANCH  17  19
ATOM     18  C   UNL     1       9.559  11.049  20.492  0.00  0.00    +0.000 C 
ATOM     19  C   UNL     1       9.561  11.670  19.104  0.00  0.00    +0.000 C 
ENDBRANCH  17  19
ENDBRANCH  16  17
ENDBRANCH  14  16
ENDBRANCH  12  14
ENDBRANCH   5  12
ENDBRANCH   1   8
BRANCH   3  20
ATOM     20  N   UNL     1       1.713   3.833  18.653  0.00  0.00    +0.000 N 
ATOM     21  H   UNL     1       1.005   3.427  18.052  0.00  0.00    +0.000 HD
BRANCH  20  22
ATOM     22  C   UNL     1       1.457   3.972  19.995  0.00  0.00    +0.000 C 
ATOM     23  S   UNL     1       1.463   2.752  21.136  0.00  0.00    +0.000 S 
BRANCH  22  24
ATOM     24  N   UNL     1       1.146   5.241  20.402  0.00  0.00    +0.000 N 
ATOM     25  H   UNL     1       0.213   5.533  20.136  0.00  0.00    +0.000 HD
BRANCH  24  26
ATOM     26  C   UNL     1       2.093   6.296  20.719  0.00  0.00    +0.000 C 
BRANCH  26  27
ATOM     27  C   UNL     1       1.882   7.520  19.867  0.00  0.00    +0.000 A 
ATOM     28  C   UNL     1       1.165   8.625  20.354  0.00  0.00    +0.000 A 
ATOM     29  C   UNL     1       0.975   9.751  19.555  0.00  0.00    +0.000 A 
ATOM     30  C   UNL     1       1.508   9.802  18.265  0.00  0.00    +0.000 A 
ATOM     31  C   UNL     1       2.234   8.711  17.779  0.00  0.00    +0.000 A 
ATOM     32  C   UNL     1       2.420   7.580  18.571  0.00  0.00    +0.000 A 
ENDBRANCH  26  27
ENDBRANCH  24  26
ENDBRANCH  22  24
ENDBRANCH  20  22
ENDBRANCH   3  20
TORSDOF 11
ENDMDL
MODEL 9
REMARK VINA RESULT:      -6.9      2.690      8.878
REMARK  Name = 
REMARK  12 active torsions:
REMARK  status: ('A' for Active; 'I' for Inactive)
REMARK    1  A    between atoms: C_1  and  C_2
REMARK    2  A    between atoms: C_2  and  C_3
REMARK    3  A    between atoms: C_3  and  C_4
REMARK    4  A    between atoms: C_4  and  N_5
REMARK    5  A    between atoms: N_5  and  C_6
REMARK    6  A    between atoms: C_6  and  N_8
REMARK    7  A    between atoms: C_11  and  C_12
REMARK    8  A    between atoms: N_14  and  N_15
REMARK    9  A    between atoms: N_15  and  C_16
REMARK   10  A    between atoms: C_16  and  N_18
REMARK   11  A    between atoms: N_18  and  C_19
REMARK   12  A    between atoms: C_19  and  C_20
REMARK                            x       y       z     vdW  Elec       q    Type
REMARK                         _______ _______ _______ _____ _____    ______ ____
ROOT
ATOM      1  C   UNL     1       2.333   7.473  19.613  0.00  0.00    +0.000 C 
ATOM      2  O   UNL     1       2.791   7.613  18.483  0.00  0.00    +0.000 OA
ATOM      3  N   UNL     1       2.604   6.409  20.458  0.00  0.00    +0.000 N 
ATOM      4  H   UNL     1       2.058   6.302  21.306  0.00  0.00    +0.000 HD
ENDROOT
BRANCH   1   8
ATOM      5  N   UNL     1      -0.589  11.356  19.943  0.00  0.00    +0.000 N 
ATOM      6  C   UNL     1       0.126  10.235  20.257  0.00  0.00    +0.000 A 
ATOM      7  N   UNL     1       0.945   9.553  19.492  0.00  0.00    +0.000 NA
ATOM      8  C   UNL     1       1.386   8.428  20.195  0.00  0.00    +0.000 A 
ATOM      9  C   UNL     1       0.859   8.302  21.470  0.00  0.00    +0.000 A 
ATOM     10  S   UNL     1      -0.133   9.650  21.835  0.00  0.00    +0.000 S 
ATOM     11  H   UNL     1      -1.171  11.749  20.670  0.00  0.00    +0.000 HD
BRANCH   5  12
ATOM     12  C   UNL     1      -0.651  11.951  18.716  0.00  0.00    +0.000 C 
ATOM     13  S   UNL     1      -0.515  13.616  18.656  0.00  0.00    +0.000 S 
BRANCH  12  14
ATOM     14  N   UNL     1      -0.814  11.135  17.633  0.00  0.00    +0.000 N 
ATOM     15  H   UNL     1      -0.042  11.133  16.973  0.00  0.00    +0.000 HD
BRANCH  14  16
ATOM     16  C   UNL     1      -2.023  10.420  17.260  0.00  0.00    +0.000 C 
BRANCH  16  17
ATOM     17  C   UNL     1      -2.653  10.957  15.977  0.00  0.00    +0.000 C 
BRANCH  17  19
ATOM     18  C   UNL     1      -4.839  11.767  16.941  0.00  0.00    +0.000 C 
ATOM     19  C   UNL     1      -4.176  10.810  15.962  0.00  0.00    +0.000 C 
ENDBRANCH  17  19
ENDBRANCH  16  17
ENDBRANCH  14  16
ENDBRANCH  12  14
ENDBRANCH   5  12
ENDBRANCH   1   8
BRANCH   3  20
ATOM     20  N   UNL     1       3.354   5.329  19.994  0.00  0.00    +0.000 N 
ATOM     21  H   UNL     1       4.345   5.318  20.208  0.00  0.00    +0.000 HD
BRANCH  20  22
ATOM     22  C   UNL     1       2.829   4.350  19.186  0.00  0.00    +0.000 C 
ATOM     23  S   UNL     1       1.276   3.738  19.252  0.00  0.00    +0.000 S 
BRANCH  22  24
ATOM     24  N   UNL     1       3.694   3.828  18.263  0.00  0.00    +0.000 N 
ATOM     25  H   UNL     1       4.234   3.045  18.612  0.00  0.00    +0.000 HD
BRANCH  24  26
ATOM     26  C   UNL     1       4.226   4.519  17.100  0.00  0.00    +0.000 C 
BRANCH  26  27
ATOM     27  C   UNL     1       5.464   5.311  17.431  0.00  0.00    +0.000 A 
ATOM     28  C   UNL     1       5.593   6.651  17.033  0.00  0.00    +0.000 A 
ATOM     29  C   UNL     1       6.745   7.373  17.344  0.00  0.00    +0.000 A 
ATOM     30  C   UNL     1       7.777   6.778  18.072  0.00  0.00    +0.000 A 
ATOM     31  C   UNL     1       7.649   5.448  18.484  0.00  0.00    +0.000 A 
ATOM     32  C   UNL     1       6.504   4.721  18.168  0.00  0.00    +0.000 A 
ENDBRANCH  26  27
ENDBRANCH  24  26
ENDBRANCH  22  24
ENDBRANCH  20  22
ENDBRANCH   3  20
TORSDOF 11
ENDMDL
