MODEL 1
REMARK VINA RESULT:      -5.9      0.000      0.000
REMARK  Name = 
REMARK  15 active torsions:
REMARK  status: ('A' for Active; 'I' for Inactive)
REMARK    1  A    between atoms: C_1  and  C_2
REMARK    2  A    between atoms: C_2  and  C_3
REMARK    3  A    between atoms: C_3  and  C_4
REMARK    4  A    between atoms: C_4  and  C_5
REMARK    5  A    between atoms: C_5  and  N_6
REMARK    6  A    between atoms: C_10  and  C_11
REMARK    7  A    between atoms: C_12  and  N_13
REMARK    8  A    between atoms: N_13  and  S_14
REMARK    9  A    between atoms: S_14  and  C_15
REMARK   10  A    between atoms: C_18  and  C_19
REMARK   11  A    between atoms: C_20  and  N_21
REMARK   12  A    between atoms: C_22  and  C_24
REMARK   13  A    between atoms: C_24  and  C_25
REMARK   14  A    between atoms: C_24  and  C_26
REMARK   15  A    between atoms: C_24  and  C_27
REMARK                            x       y       z     vdW  Elec       q    Type
REMARK                         _______ _______ _______ _____ _____    ______ ____
ROOT
ATOM      1  N   UNL     1      -4.030  11.683  18.050  0.00  0.00    +0.000 N 
ATOM      2  C   UNL     1      -3.623  11.244  16.708  0.00  0.00    +0.000 C 
ATOM      3  C   UNL     1      -2.432  10.322  16.882  0.00  0.00    +0.000 C 
ATOM      4  C   UNL     1      -1.918  10.791  18.208  0.00  0.00    +0.000 A 
ATOM      5  C   UNL     1      -0.684  10.468  18.767  0.00  0.00    +0.000 A 
ATOM      6  C   UNL     1       0.267   9.547  18.050  0.00  0.00    +0.000 C 
ATOM      7  C   UNL     1      -0.412  10.976  20.046  0.00  0.00    +0.000 A 
ATOM      8  C   UNL     1      -1.393  11.704  20.774  0.00  0.00    +0.000 A 
ATOM      9  C   UNL     1      -1.188  11.986  22.248  0.00  0.00    +0.000 C 
ATOM     10  C   UNL     1      -2.632  12.053  20.154  0.00  0.00    +0.000 A 
ATOM     11  C   UNL     1      -2.909  11.567  18.868  0.00  0.00    +0.000 A 
ENDROOT
BRANCH  10  12
ATOM     12  N   UNL     1      -3.606  12.808  20.873  0.00  0.00    +0.000 N 
ATOM     13  C   UNL     1      -3.551  14.193  21.007  0.00  0.00    +0.000 C 
ATOM     14  O   UNL     1      -2.640  14.884  20.549  0.00  0.00    +0.000 OA
ATOM     15  H   UNL     1      -4.529  12.411  20.863  0.00  0.00    +0.000 HD
BRANCH  13  16
ATOM     16  C   UNL     1      -4.726  14.842  21.798  0.00  0.00    +0.000 C 
ATOM     17  C   UNL     1      -5.838  13.808  22.029  0.00  0.00    +0.000 C 
ATOM     18  C   UNL     1      -4.218  15.328  23.172  0.00  0.00    +0.000 C 
ATOM     19  C   UNL     1      -5.319  16.060  21.077  0.00  0.00    +0.000 C 
ENDBRANCH  13  16
ENDBRANCH  10  12
BRANCH   7  20
ATOM     20  N   UNL     1       0.832  10.649  20.649  0.00  0.00    +0.000 N 
ATOM     21  H   UNL     1       1.671  11.166  20.394  0.00  0.00    +0.000 HD
BRANCH  20  22
ATOM     22  S   UNL     1       1.048   9.250  21.537  0.00  0.00    +0.000 S 
ATOM     23  C   UNL     1      -0.596   8.576  21.653  0.00  0.00    +0.000 C 
ATOM     24  O   UNL     1       1.809   8.370  20.677  0.00  0.00    +0.000 OA
ATOM     25  O   UNL     1       1.506   9.564  22.872  0.00  0.00    +0.000 OA
ENDBRANCH  20  22
ENDBRANCH   7  20
BRANCH   1  26
ATOM     26  C   UNL     1      -5.323  12.299  18.232  0.00  0.00    +0.000 C 
BRANCH  26  27
ATOM     27  C   UNL     1      -6.497  11.322  18.146  0.00  0.00    +0.000 C 
BRANCH  27  28
ATOM     28  C   UNL     1      -6.358  10.108  19.060  0.00  0.00    +0.000 C 
BRANCH  28  30
ATOM     29  C   UNL     1      -7.702   8.703  20.626  0.00  0.00    +0.000 C 
ATOM     30  C   UNL     1      -7.351  10.126  20.219  0.00  0.00    +0.000 C 
ENDBRANCH  28  30
ENDBRANCH  27  28
ENDBRANCH  26  27
ENDBRANCH   1  26
TORSDOF 8
ENDMDL
MODEL 2
REMARK VINA RESULT:      -5.8      1.758      2.290
REMARK  Name = 
REMARK  15 active torsions:
REMARK  status: ('A' for Active; 'I' for Inactive)
REMARK    1  A    between atoms: C_1  and  C_2
REMARK    2  A    between atoms: C_2  and  C_3
REMARK    3  A    between atoms: C_3  and  C_4
REMARK    4  A    between atoms: C_4  and  C_5
REMARK    5  A    between atoms: C_5  and  N_6
REMARK    6  A    between atoms: C_10  and  C_11
REMARK    7  A    between atoms: C_12  and  N_13
REMARK    8  A    between atoms: N_13  and  S_14
REMARK    9  A    between atoms: S_14  and  C_15
REMARK   10  A    between atoms: C_18  and  C_19
REMARK   11  A    between atoms: C_20  and  N_21
REMARK   12  A    between atoms: C_22  and  C_24
REMARK   13  A    between atoms: C_24  and  C_25
REMARK   14  A    between atoms: C_24  and  C_26
REMARK   15  A    between atoms: C_24  and  C_27
REMARK                            x       y       z     vdW  Elec       q    Type
REMARK                         _______ _______ _______ _____ _____    ______ ____
ROOT
ATOM      1  N   UNL     1      -5.861  12.299  18.941  0.00  0.00    +0.000 N 
ATOM      2  C   UNL     1      -5.964  11.599  17.652  0.00  0.00    +0.000 C 
ATOM      3  C   UNL     1      -4.729  10.730  17.517  0.00  0.00    +0.000 C 
ATOM      4  C   UNL     1      -3.787  11.453  18.428  0.00  0.00    +0.000 A 
ATOM      5  C   UNL     1      -2.412  11.246  18.513  0.00  0.00    +0.000 A 
ATOM      6  C   UNL     1      -1.738  10.199  17.666  0.00  0.00    +0.000 C 
ATOM      7  C   UNL     1      -1.713  11.999  19.469  0.00  0.00    +0.000 A 
ATOM      8  C   UNL     1      -2.395  12.859  20.373  0.00  0.00    +0.000 A 
ATOM      9  C   UNL     1      -1.666  13.429  21.571  0.00  0.00    +0.000 C 
ATOM     10  C   UNL     1      -3.799  13.079  20.229  0.00  0.00    +0.000 A 
ATOM     11  C   UNL     1      -4.507  12.347  19.265  0.00  0.00    +0.000 A 
ENDROOT
BRANCH  10  12
ATOM     12  N   UNL     1      -4.480  13.963  21.118  0.00  0.00    +0.000 N 
ATOM     13  C   UNL     1      -4.913  13.586  22.387  0.00  0.00    +0.000 C 
ATOM     14  O   UNL     1      -4.780  12.448  22.839  0.00  0.00    +0.000 OA
ATOM     15  H   UNL     1      -4.223  14.930  21.019  0.00  0.00    +0.000 HD
BRANCH  13  16
ATOM     16  C   UNL     1      -5.604  14.703  23.224  0.00  0.00    +0.000 C 
ATOM     17  C   UNL     1      -4.621  15.270  24.258  0.00  0.00    +0.000 C 
ATOM     18  C   UNL     1      -6.045  15.851  22.290  0.00  0.00    +0.000 C 
ATOM     19  C   UNL     1      -6.861  14.203  23.950  0.00  0.00    +0.000 C 
ENDBRANCH  13  16
ENDBRANCH  10  12
BRANCH   7  20
ATOM     20  N   UNL     1      -0.311  11.797  19.589  0.00  0.00    +0.000 N 
ATOM     21  H   UNL     1       0.319  12.187  18.892  0.00  0.00    +0.000 HD
BRANCH  20  22
ATOM     22  S   UNL     1       0.336  10.689  20.660  0.00  0.00    +0.000 S 
ATOM     23  C   UNL     1       1.136   9.506  19.597  0.00  0.00    +0.000 C 
ATOM     24  O   UNL     1       1.380  11.406  21.360  0.00  0.00    +0.000 OA
ATOM     25  O   UNL     1      -0.715  10.011  21.384  0.00  0.00    +0.000 OA
ENDBRANCH  20  22
ENDBRANCH   7  20
BRANCH   1  26
ATOM     26  C   UNL     1      -7.030  12.941  19.494  0.00  0.00    +0.000 C 
BRANCH  26  27
ATOM     27  C   UNL     1      -7.641  12.203  20.687  0.00  0.00    +0.000 C 
BRANCH  27  28
ATOM     28  C   UNL     1      -7.053  10.814  20.920  0.00  0.00    +0.000 C 
BRANCH  28  30
ATOM     29  C   UNL     1      -7.015   8.507  19.966  0.00  0.00    +0.000 C 
ATOM     30  C   UNL     1      -7.893   9.705  20.293  0.00  0.00    +0.000 C 
ENDBRANCH  28  30
ENDBRANCH  27  28
ENDBRANCH  26  27
ENDBRANCH   1  26
TORSDOF 8
ENDMDL
MODEL 3
REMARK VINA RESULT:      -5.8      9.325     12.814
REMARK  Name = 
REMARK  15 active torsions:
REMARK  status: ('A' for Active; 'I' for Inactive)
REMARK    1  A    between atoms: C_1  and  C_2
REMARK    2  A    between atoms: C_2  and  C_3
REMARK    3  A    between atoms: C_3  and  C_4
REMARK    4  A    between atoms: C_4  and  C_5
REMARK    5  A    between atoms: C_5  and  N_6
REMARK    6  A    between atoms: C_10  and  C_11
REMARK    7  A    between atoms: C_12  and  N_13
REMARK    8  A    between atoms: N_13  and  S_14
REMARK    9  A    between atoms: S_14  and  C_15
REMARK   10  A    between atoms: C_18  and  C_19
REMARK   11  A    between atoms: C_20  and  N_21
REMARK   12  A    between atoms: C_22  and  C_24
REMARK   13  A    between atoms: C_24  and  C_25
REMARK   14  A    between atoms: C_24  and  C_26
REMARK   15  A    between atoms: C_24  and  C_27
REMARK                            x       y       z     vdW  Elec       q    Type
REMARK                         _______ _______ _______ _____ _____    ______ ____
ROOT
ATOM      1  N   UNL     1       8.647  13.429  21.738  0.00  0.00    +0.000 N 
ATOM      2  C   UNL     1       8.037  12.903  22.967  0.00  0.00    +0.000 C 
ATOM      3  C   UNL     1       6.540  13.109  22.845  0.00  0.00    +0.000 C 
ATOM      4  C   UNL     1       6.501  14.239  21.865  0.00  0.00    +0.000 A 
ATOM      5  C   UNL     1       5.386  15.016  21.558  0.00  0.00    +0.000 A 
ATOM      6  C   UNL     1       4.056  14.742  22.207  0.00  0.00    +0.000 C 
ATOM      7  C   UNL     1       5.549  16.001  20.572  0.00  0.00    +0.000 A 
ATOM      8  C   UNL     1       6.769  16.129  19.852  0.00  0.00    +0.000 A 
ATOM      9  C   UNL     1       6.827  16.990  18.608  0.00  0.00    +0.000 C 
ATOM     10  C   UNL     1       7.903  15.344  20.222  0.00  0.00    +0.000 A 
ATOM     11  C   UNL     1       7.760  14.369  21.219  0.00  0.00    +0.000 A 
ENDROOT
BRANCH  10  12
ATOM     12  N   UNL     1       9.137  15.492  19.520  0.00  0.00    +0.000 N 
ATOM     13  C   UNL     1       9.440  14.790  18.355  0.00  0.00    +0.000 C 
ATOM     14  O   UNL     1       8.689  13.955  17.850  0.00  0.00    +0.000 OA
ATOM     15  H   UNL     1       9.550  16.404  19.593  0.00  0.00    +0.000 HD
BRANCH  13  16
ATOM     16  C   UNL     1      10.822  15.115  17.712  0.00  0.00    +0.000 C 
ATOM     17  C   UNL     1      11.224  13.999  16.737  0.00  0.00    +0.000 C 
ATOM     18  C   UNL     1      10.728  16.440  16.926  0.00  0.00    +0.000 C 
ATOM     19  C   UNL     1      11.931  15.288  18.759  0.00  0.00    +0.000 C 
ENDBRANCH  13  16
ENDBRANCH  10  12
BRANCH   7  20
ATOM     20  N   UNL     1       4.425  16.799  20.226  0.00  0.00    +0.000 N 
ATOM     21  H   UNL     1       4.148  17.573  20.827  0.00  0.00    +0.000 HD
BRANCH  20  22
ATOM     22  S   UNL     1       3.345  16.342  19.036  0.00  0.00    +0.000 S 
ATOM     23  C   UNL     1       1.764  16.461  19.844  0.00  0.00    +0.000 C 
ATOM     24  O   UNL     1       3.400  17.399  18.050  0.00  0.00    +0.000 OA
ATOM     25  O   UNL     1       3.561  14.963  18.660  0.00  0.00    +0.000 OA
ENDBRANCH  20  22
ENDBRANCH   7  20
BRANCH   1  26
ATOM     26  C   UNL     1      10.012  13.082  21.420  0.00  0.00    +0.000 C 
BRANCH  26  27
ATOM     27  C   UNL     1      10.176  11.689  20.808  0.00  0.00    +0.000 C 
BRANCH  27  28
ATOM     28  C   UNL     1      11.045  11.663  19.555  0.00  0.00    +0.000 C 
BRANCH  28  30
ATOM     29  C   UNL     1       9.132  10.212  18.873  0.00  0.00    +0.000 C 
ATOM     30  C   UNL     1      10.381  10.933  18.391  0.00  0.00    +0.000 C 
ENDBRANCH  28  30
ENDBRANCH  27  28
ENDBRANCH  26  27
ENDBRANCH   1  26
TORSDOF 8
ENDMDL
MODEL 4
REMARK VINA RESULT:      -5.7      1.281      1.649
REMARK  Name = 
REMARK  15 active torsions:
REMARK  status: ('A' for Active; 'I' for Inactive)
REMARK    1  A    between atoms: C_1  and  C_2
REMARK    2  A    between atoms: C_2  and  C_3
REMARK    3  A    between atoms: C_3  and  C_4
REMARK    4  A    between atoms: C_4  and  C_5
REMARK    5  A    between atoms: C_5  and  N_6
REMARK    6  A    between atoms: C_10  and  C_11
REMARK    7  A    between atoms: C_12  and  N_13
REMARK    8  A    between atoms: N_13  and  S_14
REMARK    9  A    between atoms: S_14  and  C_15
REMARK   10  A    between atoms: C_18  and  C_19
REMARK   11  A    between atoms: C_20  and  N_21
REMARK   12  A    between atoms: C_22  and  C_24
REMARK   13  A    between atoms: C_24  and  C_25
REMARK   14  A    between atoms: C_24  and  C_26
REMARK   15  A    between atoms: C_24  and  C_27
REMARK                            x       y       z     vdW  Elec       q    Type
REMARK                         _______ _______ _______ _____ _____    ______ ____
ROOT
ATOM      1  N   UNL     1      -4.436  12.307  18.910  0.00  0.00    +0.000 N 
ATOM      2  C   UNL     1      -4.502  11.701  17.573  0.00  0.00    +0.000 C 
ATOM      3  C   UNL     1      -3.447  10.613  17.523  0.00  0.00    +0.000 C 
ATOM      4  C   UNL     1      -2.510  11.095  18.587  0.00  0.00    +0.000 A 
ATOM      5  C   UNL     1      -1.222  10.619  18.818  0.00  0.00    +0.000 A 
ATOM      6  C   UNL     1      -0.655   9.499  17.985  0.00  0.00    +0.000 C 
ATOM      7  C   UNL     1      -0.522  11.176  19.899  0.00  0.00    +0.000 A 
ATOM      8  C   UNL     1      -1.140  12.111  20.774  0.00  0.00    +0.000 A 
ATOM      9  C   UNL     1      -0.477  12.472  22.087  0.00  0.00    +0.000 C 
ATOM     10  C   UNL     1      -2.447  12.608  20.482  0.00  0.00    +0.000 A 
ATOM     11  C   UNL     1      -3.151  12.074  19.393  0.00  0.00    +0.000 A 
ENDROOT
BRANCH  10  12
ATOM     12  N   UNL     1      -3.057  13.568  21.344  0.00  0.00    +0.000 N 
ATOM     13  C   UNL     1      -3.685  13.229  22.541  0.00  0.00    +0.000 C 
ATOM     14  O   UNL     1      -3.802  12.071  22.941  0.00  0.00    +0.000 OA
ATOM     15  H   UNL     1      -2.627  14.476  21.325  0.00  0.00    +0.000 HD
BRANCH  13  16
ATOM     16  C   UNL     1      -4.260  14.421  23.362  0.00  0.00    +0.000 C 
ATOM     17  C   UNL     1      -4.174  15.716  22.541  0.00  0.00    +0.000 C 
ATOM     18  C   UNL     1      -5.742  14.152  23.697  0.00  0.00    +0.000 C 
ATOM     19  C   UNL     1      -3.526  14.626  24.695  0.00  0.00    +0.000 C 
ENDBRANCH  13  16
ENDBRANCH  10  12
BRANCH   7  20
ATOM     20  N   UNL     1       0.788  10.698  20.169  0.00  0.00    +0.000 N 
ATOM     21  H   UNL     1       1.574  11.031  19.614  0.00  0.00    +0.000 HD
BRANCH  20  22
ATOM     22  S   UNL     1       1.066   9.380  21.159  0.00  0.00    +0.000 S 
ATOM     23  C   UNL     1      -0.573   8.815  21.564  0.00  0.00    +0.000 C 
ATOM     24  O   UNL     1       1.660   8.380  20.298  0.00  0.00    +0.000 OA
ATOM     25  O   UNL     1       1.720   9.793  22.379  0.00  0.00    +0.000 OA
ENDBRANCH  20  22
ENDBRANCH   7  20
BRANCH   1  26
ATOM     26  C   UNL     1      -5.524  13.140  19.365  0.00  0.00    +0.000 C 
BRANCH  26  27
ATOM     27  C   UNL     1      -6.392  12.496  20.448  0.00  0.00    +0.000 C 
BRANCH  27  28
ATOM     28  C   UNL     1      -7.538  11.652  19.899  0.00  0.00    +0.000 C 
BRANCH  28  30
ATOM     29  C   UNL     1      -6.966   9.263  19.455  0.00  0.00    +0.000 C 
ATOM     30  C   UNL     1      -7.553  10.235  20.466  0.00  0.00    +0.000 C 
ENDBRANCH  28  30
ENDBRANCH  27  28
ENDBRANCH  26  27
ENDBRANCH   1  26
TORSDOF 8
ENDMDL
MODEL 5
REMARK VINA RESULT:      -5.7      2.965      6.094
REMARK  Name = 
REMARK  15 active torsions:
REMARK  status: ('A' for Active; 'I' for Inactive)
REMARK    1  A    between atoms: C_1  and  C_2
REMARK    2  A    between atoms: C_2  and  C_3
REMARK    3  A    between atoms: C_3  and  C_4
REMARK    4  A    between atoms: C_4  and  C_5
REMARK    5  A    between atoms: C_5  and  N_6
REMARK    6  A    between atoms: C_10  and  C_11
REMARK    7  A    between atoms: C_12  and  N_13
REMARK    8  A    between atoms: N_13  and  S_14
REMARK    9  A    between atoms: S_14  and  C_15
REMARK   10  A    between atoms: C_18  and  C_19
REMARK   11  A    between atoms: C_20  and  N_21
REMARK   12  A    between atoms: C_22  and  C_24
REMARK   13  A    between atoms: C_24  and  C_25
REMARK   14  A    between atoms: C_24  and  C_26
REMARK   15  A    between atoms: C_24  and  C_27
REMARK                            x       y       z     vdW  Elec       q    Type
REMARK                         _______ _______ _______ _____ _____    ______ ____
ROOT
ATOM      1  N   UNL     1      -4.068  11.170  18.168  0.00  0.00    +0.000 N 
ATOM      2  C   UNL     1      -5.496  11.080  17.831  0.00  0.00    +0.000 C 
ATOM      3  C   UNL     1      -6.141  12.379  18.274  0.00  0.00    +0.000 C 
ATOM      4  C   UNL     1      -5.172  12.817  19.329  0.00  0.00    +0.000 A 
ATOM      5  C   UNL     1      -5.380  13.833  20.259  0.00  0.00    +0.000 A 
ATOM      6  C   UNL     1      -6.657  14.631  20.252  0.00  0.00    +0.000 C 
ATOM      7  C   UNL     1      -4.324  14.118  21.136  0.00  0.00    +0.000 A 
ATOM      8  C   UNL     1      -3.066  13.466  21.013  0.00  0.00    +0.000 A 
ATOM      9  C   UNL     1      -1.864  13.992  21.769  0.00  0.00    +0.000 C 
ATOM     10  C   UNL     1      -2.902  12.401  20.076  0.00  0.00    +0.000 A 
ATOM     11  C   UNL     1      -3.957  12.091  19.206  0.00  0.00    +0.000 A 
ENDROOT
BRANCH  10  12
ATOM     12  N   UNL     1      -1.649  11.726  19.971  0.00  0.00    +0.000 N 
ATOM     13  C   UNL     1      -0.662  12.087  19.055  0.00  0.00    +0.000 C 
ATOM     14  O   UNL     1      -0.799  12.993  18.233  0.00  0.00    +0.000 OA
ATOM     15  H   UNL     1      -1.314  11.335  20.834  0.00  0.00    +0.000 HD
BRANCH  13  16
ATOM     16  C   UNL     1       0.653  11.254  19.118  0.00  0.00    +0.000 C 
ATOM     17  C   UNL     1       0.953  10.854  20.569  0.00  0.00    +0.000 C 
ATOM     18  C   UNL     1       0.491   9.968  18.280  0.00  0.00    +0.000 C 
ATOM     19  C   UNL     1       1.859  12.015  18.550  0.00  0.00    +0.000 C 
ENDBRANCH  13  16
ENDBRANCH  10  12
BRANCH   7  20
ATOM     20  N   UNL     1      -4.501  15.161  22.085  0.00  0.00    +0.000 N 
ATOM     21  H   UNL     1      -4.186  16.105  21.867  0.00  0.00    +0.000 HD
BRANCH  20  22
ATOM     22  S   UNL     1      -4.929  14.854  23.671  0.00  0.00    +0.000 S 
ATOM     23  C   UNL     1      -6.452  15.755  23.870  0.00  0.00    +0.000 C 
ATOM     24  O   UNL     1      -5.259  13.446  23.707  0.00  0.00    +0.000 OA
ATOM     25  O   UNL     1      -3.950  15.411  24.576  0.00  0.00    +0.000 OA
ENDBRANCH  20  22
ENDBRANCH   7  20
BRANCH   1  26
ATOM     26  C   UNL     1      -3.142  10.232  17.579  0.00  0.00    +0.000 C 
BRANCH  26  27
ATOM     27  C   UNL     1      -2.757  10.558  16.134  0.00  0.00    +0.000 C 
BRANCH  27  28
ATOM     28  C   UNL     1      -3.363   9.608  15.105  0.00  0.00    +0.000 C 
BRANCH  28  30
ATOM     29  C   UNL     1      -4.165   9.846  12.753  0.00  0.00    +0.000 C 
ATOM     30  C   UNL     1      -2.959   9.953  13.674  0.00  0.00    +0.000 C 
ENDBRANCH  28  30
ENDBRANCH  27  28
ENDBRANCH  26  27
ENDBRANCH   1  26
TORSDOF 8
ENDMDL
MODEL 6
REMARK VINA RESULT:      -5.6      2.347      3.327
REMARK  Name = 
REMARK  15 active torsions:
REMARK  status: ('A' for Active; 'I' for Inactive)
REMARK    1  A    between atoms: C_1  and  C_2
REMARK    2  A    between atoms: C_2  and  C_3
REMARK    3  A    between atoms: C_3  and  C_4
REMARK    4  A    between atoms: C_4  and  C_5
REMARK    5  A    between atoms: C_5  and  N_6
REMARK    6  A    between atoms: C_10  and  C_11
REMARK    7  A    between atoms: C_12  and  N_13
REMARK    8  A    between atoms: N_13  and  S_14
REMARK    9  A    between atoms: S_14  and  C_15
REMARK   10  A    between atoms: C_18  and  C_19
REMARK   11  A    between atoms: C_20  and  N_21
REMARK   12  A    between atoms: C_22  and  C_24
REMARK   13  A    between atoms: C_24  and  C_25
REMARK   14  A    between atoms: C_24  and  C_26
REMARK   15  A    between atoms: C_24  and  C_27
REMARK                            x       y       z     vdW  Elec       q    Type
REMARK                         _______ _______ _______ _____ _____    ______ ____
ROOT
ATOM      1  N   UNL     1      -5.115  12.146  18.688  0.00  0.00    +0.000 N 
ATOM      2  C   UNL     1      -5.021  11.463  17.390  0.00  0.00    +0.000 C 
ATOM      3  C   UNL     1      -3.775  10.600  17.429  0.00  0.00    +0.000 C 
ATOM      4  C   UNL     1      -2.983  11.316  18.480  0.00  0.00    +0.000 A 
ATOM      5  C   UNL     1      -1.635  11.113  18.767  0.00  0.00    +0.000 A 
ATOM      6  C   UNL     1      -0.837  10.079  18.017  0.00  0.00    +0.000 C 
ATOM      7  C   UNL     1      -1.091  11.856  19.825  0.00  0.00    +0.000 A 
ATOM      8  C   UNL     1      -1.905  12.701  20.627  0.00  0.00    +0.000 A 
ATOM      9  C   UNL     1      -1.367  13.258  21.928  0.00  0.00    +0.000 C 
ATOM     10  C   UNL     1      -3.274  12.917  20.279  0.00  0.00    +0.000 A 
ATOM     11  C   UNL     1      -3.826  12.195  19.211  0.00  0.00    +0.000 A 
ENDROOT
BRANCH  10  12
ATOM     12  N   UNL     1      -4.085  13.787  21.067  0.00  0.00    +0.000 N 
ATOM     13  C   UNL     1      -4.799  13.361  22.184  0.00  0.00    +0.000 C 
ATOM     14  O   UNL     1      -4.824  12.191  22.568  0.00  0.00    +0.000 OA
ATOM     15  H   UNL     1      -3.764  14.739  21.097  0.00  0.00    +0.000 HD
BRANCH  13  16
ATOM     16  C   UNL     1      -5.598  14.467  22.937  0.00  0.00    +0.000 C 
ATOM     17  C   UNL     1      -4.662  15.248  23.870  0.00  0.00    +0.000 C 
ATOM     18  C   UNL     1      -6.203  15.453  21.915  0.00  0.00    +0.000 C 
ATOM     19  C   UNL     1      -6.762  13.896  23.759  0.00  0.00    +0.000 C 
ENDBRANCH  13  16
ENDBRANCH  10  12
BRANCH   7  20
ATOM     20  N   UNL     1       0.278  11.658  20.151  0.00  0.00    +0.000 N 
ATOM     21  H   UNL     1       0.531  11.083  20.952  0.00  0.00    +0.000 HD
BRANCH  20  22
ATOM     22  S   UNL     1       1.495  12.574  19.463  0.00  0.00    +0.000 S 
ATOM     23  C   UNL     1       0.621  13.943  18.735  0.00  0.00    +0.000 C 
ATOM     24  O   UNL     1       2.251  13.097  20.581  0.00  0.00    +0.000 OA
ATOM     25  O   UNL     1       2.147  11.836  18.405  0.00  0.00    +0.000 OA
ENDBRANCH  20  22
ENDBRANCH   7  20
BRANCH   1  26
ATOM     26  C   UNL     1      -6.358  12.776  19.069  0.00  0.00    +0.000 C 
BRANCH  26  27
ATOM     27  C   UNL     1      -7.412  12.796  17.960  0.00  0.00    +0.000 C 
BRANCH  27  28
ATOM     28  C   UNL     1      -7.853  14.199  17.553  0.00  0.00    +0.000 C 
BRANCH  28  30
ATOM     29  C   UNL     1      -7.326  16.250  16.232  0.00  0.00    +0.000 C 
ATOM     30  C   UNL     1      -7.017  14.772  16.412  0.00  0.00    +0.000 C 
ENDBRANCH  28  30
ENDBRANCH  27  28
ENDBRANCH  26  27
ENDBRANCH   1  26
TORSDOF 8
ENDMDL
MODEL 7
REMARK VINA RESULT:      -5.6      3.041      6.043
REMARK  Name = 
REMARK  15 active torsions:
REMARK  status: ('A' for Active; 'I' for Inactive)
REMARK    1  A    between atoms: C_1  and  C_2
REMARK    2  A    between atoms: C_2  and  C_3
REMARK    3  A    between atoms: C_3  and  C_4
REMARK    4  A    between atoms: C_4  and  C_5
REMARK    5  A    between atoms: C_5  and  N_6
REMARK    6  A    between atoms: C_10  and  C_11
REMARK    7  A    between atoms: C_12  and  N_13
REMARK    8  A    between atoms: N_13  and  S_14
REMARK    9  A    between atoms: S_14  and  C_15
REMARK   10  A    between atoms: C_18  and  C_19
REMARK   11  A    between atoms: C_20  and  N_21
REMARK   12  A    between atoms: C_22  and  C_24
REMARK   13  A    between atoms: C_24  and  C_25
REMARK   14  A    between atoms: C_24  and  C_26
REMARK   15  A    between atoms: C_24  and  C_27
REMARK                            x       y       z     vdW  Elec       q    Type
REMARK                         _______ _______ _______ _____ _____    ______ ____
ROOT
ATOM      1  N   UNL     1      -4.099  11.823  17.723  0.00  0.00    +0.000 N 
ATOM      2  C   UNL     1      -5.361  11.744  16.974  0.00  0.00    +0.000 C 
ATOM      3  C   UNL     1      -6.342  12.680  17.654  0.00  0.00    +0.000 C 
ATOM      4  C   UNL     1      -5.754  12.736  19.030  0.00  0.00    +0.000 A 
ATOM      5  C   UNL     1      -6.374  13.256  20.163  0.00  0.00    +0.000 A 
ATOM      6  C   UNL     1      -7.750  13.862  20.077  0.00  0.00    +0.000 C 
ATOM      7  C   UNL     1      -5.630  13.256  21.352  0.00  0.00    +0.000 A 
ATOM      8  C   UNL     1      -4.272  12.834  21.373  0.00  0.00    +0.000 A 
ATOM      9  C   UNL     1      -3.410  13.114  22.586  0.00  0.00    +0.000 C 
ATOM     10  C   UNL     1      -3.682  12.267  20.202  0.00  0.00    +0.000 A 
ATOM     11  C   UNL     1      -4.421  12.244  19.010  0.00  0.00    +0.000 A 
ENDROOT
BRANCH  10  12
ATOM     12  N   UNL     1      -2.328  11.817  20.228  0.00  0.00    +0.000 N 
ATOM     13  C   UNL     1      -1.242  12.650  19.970  0.00  0.00    +0.000 C 
ATOM     14  O   UNL     1      -1.355  13.836  19.659  0.00  0.00    +0.000 OA
ATOM     15  H   UNL     1      -2.152  11.067  20.873  0.00  0.00    +0.000 HD
BRANCH  13  16
ATOM     16  C   UNL     1       0.162  11.984  20.083  0.00  0.00    +0.000 C 
ATOM     17  C   UNL     1       0.430  11.567  21.537  0.00  0.00    +0.000 C 
ATOM     18  C   UNL     1       0.207  10.720  19.197  0.00  0.00    +0.000 C 
ATOM     19  C   UNL     1       1.292  12.908  19.611  0.00  0.00    +0.000 C 
ENDBRANCH  13  16
ENDBRANCH  10  12
BRANCH   7  20
ATOM     20  N   UNL     1      -6.231  13.796  22.521  0.00  0.00    +0.000 N 
ATOM     21  H   UNL     1      -6.048  14.762  22.786  0.00  0.00    +0.000 HD
BRANCH  20  22
ATOM     22  S   UNL     1      -6.986  12.830  23.657  0.00  0.00    +0.000 S 
ATOM     23  C   UNL     1      -7.916  11.679  22.668  0.00  0.00    +0.000 C 
ATOM     24  O   UNL     1      -5.919  12.085  24.289  0.00  0.00    +0.000 OA
ATOM     25  O   UNL     1      -7.916  13.608  24.444  0.00  0.00    +0.000 OA
ENDBRANCH  20  22
ENDBRANCH   7  20
BRANCH   1  26
ATOM     26  C   UNL     1      -2.890  11.301  17.130  0.00  0.00    +0.000 C 
BRANCH  26  27
ATOM     27  C   UNL     1      -3.093  10.012  16.332  0.00  0.00    +0.000 C 
BRANCH  27  28
ATOM     28  C   UNL     1      -2.869  10.173  14.831  0.00  0.00    +0.000 C 
BRANCH  28  30
ATOM     29  C   UNL     1      -3.849   9.750  12.574  0.00  0.00    +0.000 C 
ATOM     30  C   UNL     1      -4.162  10.074  14.027  0.00  0.00    +0.000 C 
ENDBRANCH  28  30
ENDBRANCH  27  28
ENDBRANCH  26  27
ENDBRANCH   1  26
TORSDOF 8
ENDMDL
MODEL 8
REMARK VINA RESULT:      -5.6      3.162      6.240
REMARK  Name = 
REMARK  15 active torsions:
REMARK  status: ('A' for Active; 'I' for Inactive)
REMARK    1  A    between atoms: C_1  and  C_2
REMARK    2  A    between atoms: C_2  and  C_3
REMARK    3  A    between atoms: C_3  and  C_4
REMARK    4  A    between atoms: C_4  and  C_5
REMARK    5  A    between atoms: C_5  and  N_6
REMARK    6  A    between atoms: C_10  and  C_11
REMARK    7  A    between atoms: C_12  and  N_13
REMARK    8  A    between atoms: N_13  and  S_14
REMARK    9  A    between atoms: S_14  and  C_15
REMARK   10  A    between atoms: C_18  and  C_19
REMARK   11  A    between atoms: C_20  and  N_21
REMARK   12  A    between atoms: C_22  and  C_24
REMARK   13  A    between atoms: C_24  and  C_25
REMARK   14  A    between atoms: C_24  and  C_26
REMARK   15  A    between atoms: C_24  and  C_27
REMARK                            x       y       z     vdW  Elec       q    Type
REMARK                         _______ _______ _______ _____ _____    ______ ____
ROOT
ATOM      1  N   UNL     1      -0.886  10.847  18.304  0.00  0.00    +0.000 N 
ATOM      2  C   UNL     1      -1.438   9.705  17.560  0.00  0.00    +0.000 C 
ATOM      3  C   UNL     1      -2.865  10.060  17.193  0.00  0.00    +0.000 C 
ATOM      4  C   UNL     1      -3.172  11.077  18.248  0.00  0.00    +0.000 A 
ATOM      5  C   UNL     1      -4.434  11.578  18.558  0.00  0.00    +0.000 A 
ATOM      6  C   UNL     1      -5.649  11.128  17.791  0.00  0.00    +0.000 C 
ATOM      7  C   UNL     1      -4.500  12.564  19.553  0.00  0.00    +0.000 A 
ATOM      8  C   UNL     1      -3.321  13.094  20.146  0.00  0.00    +0.000 A 
ATOM      9  C   UNL     1      -3.397  14.347  20.993  0.00  0.00    +0.000 C 
ATOM     10  C   UNL     1      -2.047  12.528  19.834  0.00  0.00    +0.000 A 
ATOM     11  C   UNL     1      -1.969  11.528  18.854  0.00  0.00    +0.000 A 
ENDROOT
BRANCH  10  12
ATOM     12  N   UNL     1      -0.866  13.040  20.449  0.00  0.00    +0.000 N 
ATOM     13  C   UNL     1      -0.076  14.034  19.874  0.00  0.00    +0.000 C 
ATOM     14  O   UNL     1      -0.306  14.530  18.771  0.00  0.00    +0.000 OA
ATOM     15  H   UNL     1      -0.882  13.030  21.453  0.00  0.00    +0.000 HD
BRANCH  13  16
ATOM     16  C   UNL     1       1.154  14.489  20.715  0.00  0.00    +0.000 C 
ATOM     17  C   UNL     1       1.758  15.766  20.115  0.00  0.00    +0.000 C 
ATOM     18  C   UNL     1       0.707  14.792  22.161  0.00  0.00    +0.000 C 
ATOM     19  C   UNL     1       2.243  13.410  20.795  0.00  0.00    +0.000 C 
ENDBRANCH  13  16
ENDBRANCH  10  12
BRANCH   7  20
ATOM     20  N   UNL     1      -5.773  13.106  19.880  0.00  0.00    +0.000 N 
ATOM     21  H   UNL     1      -6.071  13.987  19.466  0.00  0.00    +0.000 HD
BRANCH  20  22
ATOM     22  S   UNL     1      -6.687  12.520  21.150  0.00  0.00    +0.000 S 
ATOM     23  C   UNL     1      -7.560  13.959  21.730  0.00  0.00    +0.000 C 
ATOM     24  O   UNL     1      -7.665  11.645  20.540  0.00  0.00    +0.000 OA
ATOM     25  O   UNL     1      -5.830  12.049  22.215  0.00  0.00    +0.000 OA
ENDBRANCH  20  22
ENDBRANCH   7  20
BRANCH   1  26
ATOM     26  C   UNL     1       0.541  10.941  18.500  0.00  0.00    +0.000 C 
BRANCH  26  27
ATOM     27  C   UNL     1       1.343   9.854  17.781  0.00  0.00    +0.000 C 
BRANCH  27  28
ATOM     28  C   UNL     1       1.833   8.739  18.700  0.00  0.00    +0.000 C 
BRANCH  28  30
ATOM     29  C   UNL     1       2.569   6.359  18.541  0.00  0.00    +0.000 C 
ATOM     30  C   UNL     1       2.772   7.764  17.996  0.00  0.00    +0.000 C 
ENDBRANCH  28  30
ENDBRANCH  27  28
ENDBRANCH  26  27
ENDBRANCH   1  26
TORSDOF 8
ENDMDL
MODEL 9
REMARK VINA RESULT:      -5.5      3.877      5.299
REMARK  Name = 
REMARK  15 active torsions:
REMARK  status: ('A' for Active; 'I' for Inactive)
REMARK    1  A    between atoms: C_1  and  C_2
REMARK    2  A    between atoms: C_2  and  C_3
REMARK    3  A    between atoms: C_3  and  C_4
REMARK    4  A    between atoms: C_4  and  C_5
REMARK    5  A    between atoms: C_5  and  N_6
REMARK    6  A    between atoms: C_10  and  C_11
REMARK    7  A    between atoms: C_12  and  N_13
REMARK    8  A    between atoms: N_13  and  S_14
REMARK    9  A    between atoms: S_14  and  C_15
REMARK   10  A    between atoms: C_18  and  C_19
REMARK   11  A    between atoms: C_20  and  N_21
REMARK   12  A    between atoms: C_22  and  C_24
REMARK   13  A    between atoms: C_24  and  C_25
REMARK   14  A    between atoms: C_24  and  C_26
REMARK   15  A    between atoms: C_24  and  C_27
REMARK                            x       y       z     vdW  Elec       q    Type
REMARK                         _______ _______ _______ _____ _____    ______ ____
ROOT
ATOM      1  N   UNL     1      -0.019  11.335  18.905  0.00  0.00    +0.000 N 
ATOM      2  C   UNL     1       1.102  10.645  18.252  0.00  0.00    +0.000 C 
ATOM      3  C   UNL     1       2.315  11.546  18.379  0.00  0.00    +0.000 C 
ATOM      4  C   UNL     1       1.648  12.875  18.549  0.00  0.00    +0.000 A 
ATOM      5  C   UNL     1       2.271  14.119  18.469  0.00  0.00    +0.000 A 
ATOM      6  C   UNL     1       3.752  14.222  18.218  0.00  0.00    +0.000 C 
ATOM      7  C   UNL     1       1.472  15.247  18.707  0.00  0.00    +0.000 A 
ATOM      8  C   UNL     1       0.113  15.118  19.108  0.00  0.00    +0.000 A 
ATOM      9  C   UNL     1      -0.637  16.322  19.638  0.00  0.00    +0.000 C 
ATOM     10  C   UNL     1      -0.503  13.830  19.139  0.00  0.00    +0.000 A 
ATOM     11  C   UNL     1       0.279  12.695  18.885  0.00  0.00    +0.000 A 
ENDROOT
BRANCH  10  12
ATOM     12  N   UNL     1      -1.874  13.701  19.514  0.00  0.00    +0.000 N 
ATOM     13  C   UNL     1      -2.291  13.521  20.831  0.00  0.00    +0.000 C 
ATOM     14  O   UNL     1      -1.515  13.419  21.781  0.00  0.00    +0.000 OA
ATOM     15  H   UNL     1      -2.515  14.201  18.924  0.00  0.00    +0.000 HD
BRANCH  13  16
ATOM     16  C   UNL     1      -3.832  13.439  21.046  0.00  0.00    +0.000 C 
ATOM     17  C   UNL     1      -4.141  12.783  22.399  0.00  0.00    +0.000 C 
ATOM     18  C   UNL     1      -4.431  14.862  21.045  0.00  0.00    +0.000 C 
ATOM     19  C   UNL     1      -4.540  12.650  19.935  0.00  0.00    +0.000 C 
ENDBRANCH  13  16
ENDBRANCH  10  12
BRANCH   7  20
ATOM     20  N   UNL     1       2.083  16.528  18.648  0.00  0.00    +0.000 N 
ATOM     21  H   UNL     1       2.157  17.015  17.756  0.00  0.00    +0.000 HD
BRANCH  20  22
ATOM     22  S   UNL     1       2.964  17.151  19.924  0.00  0.00    +0.000 S 
ATOM     23  C   UNL     1       2.075  18.630  20.359  0.00  0.00    +0.000 C 
ATOM     24  O   UNL     1       2.779  16.208  21.006  0.00  0.00    +0.000 OA
ATOM     25  O   UNL     1       4.289  17.529  19.487  0.00  0.00    +0.000 OA
ENDBRANCH  20  22
ENDBRANCH   7  20
BRANCH   1  26
ATOM     26  C   UNL     1      -1.214  10.592  19.231  0.00  0.00    +0.000 C 
BRANCH  26  27
ATOM     27  C   UNL     1      -1.912   9.971  18.020  0.00  0.00    +0.000 C 
BRANCH  27  28
ATOM     28  C   UNL     1      -2.338  10.987  16.964  0.00  0.00    +0.000 C 
BRANCH  28  30
ATOM     29  C   UNL     1      -3.062  10.276  14.684  0.00  0.00    +0.000 C 
ATOM     30  C   UNL     1      -3.513  10.504  16.118  0.00  0.00    +0.000 C 
ENDBRANCH  28  30
ENDBRANCH  27  28
ENDBRANCH  26  27
ENDBRANCH   1  26
TORSDOF 8
ENDMDL
