MODEL 1
REMARK VINA RESULT:      -5.6      0.000      0.000
REMARK  Name = 
REMARK  17 active torsions:
REMARK  status: ('A' for Active; 'I' for Inactive)
REMARK    1  A    between atoms: C_1  and  C_2
REMARK    2  A    between atoms: C_2  and  C_3
REMARK    3  A    between atoms: C_3  and  C_4
REMARK    4  A    between atoms: C_4  and  C_5
REMARK    5  A    between atoms: C_5  and  C_6
REMARK    6  A    between atoms: C_7  and  C_8
REMARK    7  A    between atoms: C_8  and  C_9
REMARK    8  A    between atoms: C_10  and  C_11
REMARK    9  A    between atoms: C_11  and  C_12
REMARK   10  A    between atoms: C_13  and  C_14
REMARK   11  A    between atoms: C_14  and  C_15
REMARK   12  A    between atoms: C_17  and  C_18
REMARK   13  A    between atoms: C_18  and  C_19
REMARK   14  A    between atoms: C_19  and  C_20
REMARK   15  A    between atoms: C_20  and  C_21
REMARK   16  A    between atoms: C_21  and  O_23
REMARK   17  A    between atoms: O_23  and  C_24
REMARK                            x       y       z     vdW  Elec       q    Type
REMARK                         _______ _______ _______ _____ _____    ______ ____
ROOT
ATOM      1  C   UNL     1       7.170   5.444  18.759  0.00  0.00    +0.000 C 
ATOM      2  C   UNL     1       7.353   6.326  17.764  0.00  0.00    +0.000 C 
ENDROOT
BRANCH   1   3
ATOM      3  C   UNL     1       5.876   5.318  19.504  0.00  0.00    +0.000 C 
BRANCH   3   5
ATOM      4  C   UNL     1       4.436   3.185  18.523  0.00  0.00    +0.000 C 
ATOM      5  C   UNL     1       5.112   4.192  19.001  0.00  0.00    +0.000 C 
BRANCH   4   6
ATOM      6  C   UNL     1       3.645   2.012  17.964  0.00  0.00    +0.000 C 
BRANCH   6   8
ATOM      7  C   UNL     1       1.289   2.499  18.649  0.00  0.00    +0.000 C 
ATOM      8  C   UNL     1       2.237   2.431  17.701  0.00  0.00    +0.000 C 
BRANCH   7   9
ATOM      9  C   UNL     1       1.564   2.124  20.073  0.00  0.00    +0.000 C 
BRANCH   9  10
ATOM     10  C   UNL     1       1.250   3.237  21.060  0.00  0.00    +0.000 C 
BRANCH  10  11
ATOM     11  C   UNL     1       0.985   4.530  20.292  0.00  0.00    +0.000 C 
BRANCH  11  13
ATOM     12  C   UNL     1       1.485   6.918  20.860  0.00  0.00    +0.000 C 
ATOM     13  C   UNL     1       2.079   5.554  20.554  0.00  0.00    +0.000 C 
ENDBRANCH  11  13
ENDBRANCH  10  11
ENDBRANCH   9  10
ENDBRANCH   7   9
ENDBRANCH   6   8
ENDBRANCH   4   6
ENDBRANCH   3   5
ENDBRANCH   1   3
BRANCH   2  14
ATOM     14  C   UNL     1       6.299   7.292  17.301  0.00  0.00    +0.000 C 
BRANCH  14  15
ATOM     15  C   UNL     1       5.158   6.628  16.573  0.00  0.00    +0.000 C 
ATOM     16  I   UNL     1       5.624   5.158  15.156  0.00  0.00    +0.000 I 
ATOM     17  C   UNL     1       3.867   6.882  16.846  0.00  0.00    +0.000 C 
BRANCH  17  18
ATOM     18  C   UNL     1       3.416   7.863  17.891  0.00  0.00    +0.000 C 
BRANCH  18  19
ATOM     19  C   UNL     1       2.107   8.524  17.508  0.00  0.00    +0.000 C 
BRANCH  19  20
ATOM     20  C   UNL     1       1.773   9.672  18.455  0.00  0.00    +0.000 C 
BRANCH  20  21
ATOM     21  C   UNL     1       0.283   9.900  18.481  0.00  0.00    +0.000 C 
ATOM     22  O   UNL     1      -0.485   9.622  17.573  0.00  0.00    +0.000 OA
BRANCH  21  23
ATOM     23  O   UNL     1      -0.077  10.462  19.662  0.00  0.00    +0.000 OA
ATOM     24  C   UNL     1       1.027  10.991  20.391  0.00  0.00    +0.000 C 
ENDBRANCH  21  23
ENDBRANCH  20  21
ENDBRANCH  19  20
ENDBRANCH  18  19
ENDBRANCH  17  18
ENDBRANCH  14  15
ENDBRANCH   2  14
TORSDOF 15
ENDMDL
MODEL 2
REMARK VINA RESULT:      -5.6      5.449      9.037
REMARK  Name = 
REMARK  17 active torsions:
REMARK  status: ('A' for Active; 'I' for Inactive)
REMARK    1  A    between atoms: C_1  and  C_2
REMARK    2  A    between atoms: C_2  and  C_3
REMARK    3  A    between atoms: C_3  and  C_4
REMARK    4  A    between atoms: C_4  and  C_5
REMARK    5  A    between atoms: C_5  and  C_6
REMARK    6  A    between atoms: C_7  and  C_8
REMARK    7  A    between atoms: C_8  and  C_9
REMARK    8  A    between atoms: C_10  and  C_11
REMARK    9  A    between atoms: C_11  and  C_12
REMARK   10  A    between atoms: C_13  and  C_14
REMARK   11  A    between atoms: C_14  and  C_15
REMARK   12  A    between atoms: C_17  and  C_18
REMARK   13  A    between atoms: C_18  and  C_19
REMARK   14  A    between atoms: C_19  and  C_20
REMARK   15  A    between atoms: C_20  and  C_21
REMARK   16  A    between atoms: C_21  and  O_23
REMARK   17  A    between atoms: O_23  and  C_24
REMARK                            x       y       z     vdW  Elec       q    Type
REMARK                         _______ _______ _______ _____ _____    ______ ____
ROOT
ATOM      1  C   UNL     1       7.945   7.013  18.214  0.00  0.00    +0.000 C 
ATOM      2  C   UNL     1       6.927   6.139  18.211  0.00  0.00    +0.000 C 
ENDROOT
BRANCH   1   3
ATOM      3  C   UNL     1       7.865   8.354  17.551  0.00  0.00    +0.000 C 
BRANCH   3   5
ATOM      4  C   UNL     1       9.145  10.237  19.102  0.00  0.00    +0.000 C 
ATOM      5  C   UNL     1       8.537   9.356  18.357  0.00  0.00    +0.000 C 
BRANCH   4   6
ATOM      6  C   UNL     1       9.853  11.264  19.971  0.00  0.00    +0.000 C 
BRANCH   6   8
ATOM      7  C   UNL     1       9.607  13.734  20.282  0.00  0.00    +0.000 C 
ATOM      8  C   UNL     1       9.075  12.539  19.982  0.00  0.00    +0.000 C 
BRANCH   7   9
ATOM      9  C   UNL     1      11.046  13.888  20.668  0.00  0.00    +0.000 C 
BRANCH   9  10
ATOM     10  C   UNL     1      11.953  14.220  19.493  0.00  0.00    +0.000 C 
BRANCH  10  11
ATOM     11  C   UNL     1      11.153  14.988  18.443  0.00  0.00    +0.000 C 
BRANCH  11  13
ATOM     12  C   UNL     1      11.303  12.942  17.005  0.00  0.00    +0.000 C 
ATOM     13  C   UNL     1      11.432  14.454  17.046  0.00  0.00    +0.000 C 
ENDBRANCH  11  13
ENDBRANCH  10  11
ENDBRANCH   9  10
ENDBRANCH   7   9
ENDBRANCH   6   8
ENDBRANCH   4   6
ENDBRANCH   3   5
ENDBRANCH   1   3
BRANCH   2  14
ATOM     14  C   UNL     1       5.610   6.393  17.531  0.00  0.00    +0.000 C 
BRANCH  14  15
ATOM     15  C   UNL     1       5.058   5.181  16.827  0.00  0.00    +0.000 C 
ATOM     16  I   UNL     1       6.203   4.331  15.295  0.00  0.00    +0.000 I 
ATOM     17  C   UNL     1       3.908   4.584  17.188  0.00  0.00    +0.000 C 
BRANCH  17  18
ATOM     18  C   UNL     1       3.041   5.064  18.317  0.00  0.00    +0.000 C 
BRANCH  18  19
ATOM     19  C   UNL     1       3.547   4.571  19.658  0.00  0.00    +0.000 C 
BRANCH  19  20
ATOM     20  C   UNL     1       2.440   4.597  20.707  0.00  0.00    +0.000 C 
BRANCH  20  21
ATOM     21  C   UNL     1       2.196   3.204  21.230  0.00  0.00    +0.000 C 
ATOM     22  O   UNL     1       3.010   2.532  21.843  0.00  0.00    +0.000 OA
BRANCH  21  23
ATOM     23  O   UNL     1       0.936   2.808  20.916  0.00  0.00    +0.000 OA
ATOM     24  C   UNL     1       0.712   2.717  19.512  0.00  0.00    +0.000 C 
ENDBRANCH  21  23
ENDBRANCH  20  21
ENDBRANCH  19  20
ENDBRANCH  18  19
ENDBRANCH  17  18
ENDBRANCH  14  15
ENDBRANCH   2  14
TORSDOF 15
ENDMDL
MODEL 3
REMARK VINA RESULT:      -5.5      5.073      8.315
REMARK  Name = 
REMARK  17 active torsions:
REMARK  status: ('A' for Active; 'I' for Inactive)
REMARK    1  A    between atoms: C_1  and  C_2
REMARK    2  A    between atoms: C_2  and  C_3
REMARK    3  A    between atoms: C_3  and  C_4
REMARK    4  A    between atoms: C_4  and  C_5
REMARK    5  A    between atoms: C_5  and  C_6
REMARK    6  A    between atoms: C_7  and  C_8
REMARK    7  A    between atoms: C_8  and  C_9
REMARK    8  A    between atoms: C_10  and  C_11
REMARK    9  A    between atoms: C_11  and  C_12
REMARK   10  A    between atoms: C_13  and  C_14
REMARK   11  A    between atoms: C_14  and  C_15
REMARK   12  A    between atoms: C_17  and  C_18
REMARK   13  A    between atoms: C_18  and  C_19
REMARK   14  A    between atoms: C_19  and  C_20
REMARK   15  A    between atoms: C_20  and  C_21
REMARK   16  A    between atoms: C_21  and  O_23
REMARK   17  A    between atoms: O_23  and  C_24
REMARK                            x       y       z     vdW  Elec       q    Type
REMARK                         _______ _______ _______ _____ _____    ______ ____
ROOT
ATOM      1  C   UNL     1       6.940   6.098  18.411  0.00  0.00    +0.000 C 
ATOM      2  C   UNL     1       5.685   5.629  18.490  0.00  0.00    +0.000 C 
ENDROOT
BRANCH   1   3
ATOM      3  C   UNL     1       7.440   6.883  17.237  0.00  0.00    +0.000 C 
BRANCH   3   5
ATOM      4  C   UNL     1       8.303   9.372  18.045  0.00  0.00    +0.000 C 
ATOM      5  C   UNL     1       7.880   8.200  17.662  0.00  0.00    +0.000 C 
BRANCH   4   6
ATOM      6  C   UNL     1       8.795  10.739  18.493  0.00  0.00    +0.000 C 
BRANCH   6   8
ATOM      7  C   UNL     1      10.446  11.609  20.159  0.00  0.00    +0.000 C 
ATOM      8  C   UNL     1       9.809  10.580  19.577  0.00  0.00    +0.000 C 
BRANCH   7   9
ATOM      9  C   UNL     1      10.209  13.028  19.741  0.00  0.00    +0.000 C 
BRANCH   9  10
ATOM     10  C   UNL     1       9.142  13.729  20.566  0.00  0.00    +0.000 C 
BRANCH  10  11
ATOM     11  C   UNL     1       9.518  13.652  22.045  0.00  0.00    +0.000 C 
BRANCH  11  13
ATOM     12  C   UNL     1       8.002  11.853  22.906  0.00  0.00    +0.000 C 
ATOM     13  C   UNL     1       8.301  13.342  22.903  0.00  0.00    +0.000 C 
ENDBRANCH  11  13
ENDBRANCH  10  11
ENDBRANCH   9  10
ENDBRANCH   7   9
ENDBRANCH   6   8
ENDBRANCH   4   6
ENDBRANCH   3   5
ENDBRANCH   1   3
BRANCH   2  14
ATOM     14  C   UNL     1       4.653   5.820  17.413  0.00  0.00    +0.000 C 
BRANCH  14  15
ATOM     15  C   UNL     1       3.239   5.656  17.905  0.00  0.00    +0.000 C 
ATOM     16  I   UNL     1       2.300   7.320  18.762  0.00  0.00    +0.000 I 
ATOM     17  C   UNL     1       2.536   4.520  17.751  0.00  0.00    +0.000 C 
BRANCH  17  18
ATOM     18  C   UNL     1       3.083   3.288  17.089  0.00  0.00    +0.000 C 
BRANCH  18  19
ATOM     19  C   UNL     1       2.994   2.078  17.998  0.00  0.00    +0.000 C 
BRANCH  19  20
ATOM     20  C   UNL     1       2.405   2.453  19.355  0.00  0.00    +0.000 C 
BRANCH  20  21
ATOM     21  C   UNL     1       3.495   2.484  20.396  0.00  0.00    +0.000 C 
ATOM     22  O   UNL     1       4.658   2.165  20.205  0.00  0.00    +0.000 OA
BRANCH  21  23
ATOM     23  O   UNL     1       2.990   2.917  21.579  0.00  0.00    +0.000 OA
ATOM     24  C   UNL     1       1.597   2.655  21.723  0.00  0.00    +0.000 C 
ENDBRANCH  21  23
ENDBRANCH  20  21
ENDBRANCH  19  20
ENDBRANCH  18  19
ENDBRANCH  17  18
ENDBRANCH  14  15
ENDBRANCH   2  14
TORSDOF 15
ENDMDL
MODEL 4
REMARK VINA RESULT:      -5.3      3.099      5.362
REMARK  Name = 
REMARK  17 active torsions:
REMARK  status: ('A' for Active; 'I' for Inactive)
REMARK    1  A    between atoms: C_1  and  C_2
REMARK    2  A    between atoms: C_2  and  C_3
REMARK    3  A    between atoms: C_3  and  C_4
REMARK    4  A    between atoms: C_4  and  C_5
REMARK    5  A    between atoms: C_5  and  C_6
REMARK    6  A    between atoms: C_7  and  C_8
REMARK    7  A    between atoms: C_8  and  C_9
REMARK    8  A    between atoms: C_10  and  C_11
REMARK    9  A    between atoms: C_11  and  C_12
REMARK   10  A    between atoms: C_13  and  C_14
REMARK   11  A    between atoms: C_14  and  C_15
REMARK   12  A    between atoms: C_17  and  C_18
REMARK   13  A    between atoms: C_18  and  C_19
REMARK   14  A    between atoms: C_19  and  C_20
REMARK   15  A    between atoms: C_20  and  C_21
REMARK   16  A    between atoms: C_21  and  O_23
REMARK   17  A    between atoms: O_23  and  C_24
REMARK                            x       y       z     vdW  Elec       q    Type
REMARK                         _______ _______ _______ _____ _____    ______ ____
ROOT
ATOM      1  C   UNL     1       1.755   8.343  17.890  0.00  0.00    +0.000 C 
ATOM      2  C   UNL     1       1.085   9.467  18.187  0.00  0.00    +0.000 C 
ENDROOT
BRANCH   1   3
ATOM      3  C   UNL     1       2.775   7.740  18.808  0.00  0.00    +0.000 C 
BRANCH   3   5
ATOM      4  C   UNL     1       1.780   5.476  20.022  0.00  0.00    +0.000 C 
ATOM      5  C   UNL     1       2.238   6.555  19.450  0.00  0.00    +0.000 C 
BRANCH   4   6
ATOM      6  C   UNL     1       1.247   4.217  20.688  0.00  0.00    +0.000 C 
BRANCH   6   8
ATOM      7  C   UNL     1       1.499   2.346  19.047  0.00  0.00    +0.000 C 
ATOM      8  C   UNL     1       0.738   3.273  19.649  0.00  0.00    +0.000 C 
BRANCH   7   9
ATOM      9  C   UNL     1       2.958   2.198  19.351  0.00  0.00    +0.000 C 
BRANCH   9  10
ATOM     10  C   UNL     1       3.860   2.807  18.289  0.00  0.00    +0.000 C 
BRANCH  10  11
ATOM     11  C   UNL     1       4.889   3.713  18.962  0.00  0.00    +0.000 C 
BRANCH  11  13
ATOM     12  C   UNL     1       4.500   4.824  16.751  0.00  0.00    +0.000 C 
ATOM     13  C   UNL     1       5.304   4.848  18.039  0.00  0.00    +0.000 C 
ENDBRANCH  11  13
ENDBRANCH  10  11
ENDBRANCH   9  10
ENDBRANCH   7   9
ENDBRANCH   6   8
ENDBRANCH   4   6
ENDBRANCH   3   5
ENDBRANCH   1   3
BRANCH   2  14
ATOM     14  C   UNL     1       1.291  10.253  19.451  0.00  0.00    +0.000 C 
BRANCH  14  15
ATOM     15  C   UNL     1       0.050  10.359  20.298  0.00  0.00    +0.000 C 
ATOM     16  I   UNL     1      -0.121   9.083  21.950  0.00  0.00    +0.000 I 
ATOM     17  C   UNL     1      -0.908  11.278  20.084  0.00  0.00    +0.000 C 
BRANCH  17  18
ATOM     18  C   UNL     1      -0.857  12.289  18.974  0.00  0.00    +0.000 C 
BRANCH  18  19
ATOM     19  C   UNL     1      -1.577  11.795  17.736  0.00  0.00    +0.000 C 
BRANCH  19  20
ATOM     20  C   UNL     1      -2.936  11.200  18.090  0.00  0.00    +0.000 C 
BRANCH  20  21
ATOM     21  C   UNL     1      -3.869  11.312  16.911  0.00  0.00    +0.000 C 
ATOM     22  O   UNL     1      -5.081  11.434  16.984  0.00  0.00    +0.000 OA
BRANCH  21  23
ATOM     23  O   UNL     1      -3.159  11.253  15.755  0.00  0.00    +0.000 OA
ATOM     24  C   UNL     1      -3.503  10.135  14.942  0.00  0.00    +0.000 C 
ENDBRANCH  21  23
ENDBRANCH  20  21
ENDBRANCH  19  20
ENDBRANCH  18  19
ENDBRANCH  17  18
ENDBRANCH  14  15
ENDBRANCH   2  14
TORSDOF 15
ENDMDL
MODEL 5
REMARK VINA RESULT:      -5.3      5.118      7.973
REMARK  Name = 
REMARK  17 active torsions:
REMARK  status: ('A' for Active; 'I' for Inactive)
REMARK    1  A    between atoms: C_1  and  C_2
REMARK    2  A    between atoms: C_2  and  C_3
REMARK    3  A    between atoms: C_3  and  C_4
REMARK    4  A    between atoms: C_4  and  C_5
REMARK    5  A    between atoms: C_5  and  C_6
REMARK    6  A    between atoms: C_7  and  C_8
REMARK    7  A    between atoms: C_8  and  C_9
REMARK    8  A    between atoms: C_10  and  C_11
REMARK    9  A    between atoms: C_11  and  C_12
REMARK   10  A    between atoms: C_13  and  C_14
REMARK   11  A    between atoms: C_14  and  C_15
REMARK   12  A    between atoms: C_17  and  C_18
REMARK   13  A    between atoms: C_18  and  C_19
REMARK   14  A    between atoms: C_19  and  C_20
REMARK   15  A    between atoms: C_20  and  C_21
REMARK   16  A    between atoms: C_21  and  O_23
REMARK   17  A    between atoms: O_23  and  C_24
REMARK                            x       y       z     vdW  Elec       q    Type
REMARK                         _______ _______ _______ _____ _____    ______ ____
ROOT
ATOM      1  C   UNL     1       8.150   7.553  18.002  0.00  0.00    +0.000 C 
ATOM      2  C   UNL     1       7.239   6.610  17.718  0.00  0.00    +0.000 C 
ENDROOT
BRANCH   1   3
ATOM      3  C   UNL     1       7.933   9.007  17.709  0.00  0.00    +0.000 C 
BRANCH   3   5
ATOM      4  C   UNL     1       9.553  10.542  19.323  0.00  0.00    +0.000 C 
ATOM      5  C   UNL     1       8.774   9.825  18.562  0.00  0.00    +0.000 C 
BRANCH   4   6
ATOM      6  C   UNL     1      10.461  11.377  20.212  0.00  0.00    +0.000 C 
BRANCH   6   8
ATOM      7  C   UNL     1       9.087  13.156  21.311  0.00  0.00    +0.000 C 
ATOM      8  C   UNL     1       9.916  12.763  20.331  0.00  0.00    +0.000 C 
BRANCH   7   9
ATOM      9  C   UNL     1       8.607  12.213  22.371  0.00  0.00    +0.000 C 
BRANCH   9  10
ATOM     10  C   UNL     1       8.310  12.897  23.696  0.00  0.00    +0.000 C 
BRANCH  10  11
ATOM     11  C   UNL     1       7.990  11.837  24.749  0.00  0.00    +0.000 C 
BRANCH  11  13
ATOM     12  C   UNL     1       5.775  12.046  25.900  0.00  0.00    +0.000 C 
ATOM     13  C   UNL     1       6.518  11.458  24.713  0.00  0.00    +0.000 C 
ENDBRANCH  11  13
ENDBRANCH  10  11
ENDBRANCH   9  10
ENDBRANCH   7   9
ENDBRANCH   6   8
ENDBRANCH   4   6
ENDBRANCH   3   5
ENDBRANCH   1   3
BRANCH   2  14
ATOM     14  C   UNL     1       5.917   6.897  17.061  0.00  0.00    +0.000 C 
BRANCH  14  15
ATOM     15  C   UNL     1       5.160   5.653  16.675  0.00  0.00    +0.000 C 
ATOM     16  I   UNL     1       6.026   4.380  15.256  0.00  0.00    +0.000 I 
ATOM     17  C   UNL     1       4.001   5.292  17.252  0.00  0.00    +0.000 C 
BRANCH  17  18
ATOM     18  C   UNL     1       3.325   6.090  18.330  0.00  0.00    +0.000 C 
BRANCH  18  19
ATOM     19  C   UNL     1       3.590   5.508  19.705  0.00  0.00    +0.000 C 
BRANCH  19  20
ATOM     20  C   UNL     1       2.286   5.142  20.408  0.00  0.00    +0.000 C 
BRANCH  20  21
ATOM     21  C   UNL     1       2.245   3.658  20.672  0.00  0.00    +0.000 C 
ATOM     22  O   UNL     1       1.556   3.116  21.521  0.00  0.00    +0.000 OA
BRANCH  21  23
ATOM     23  O   UNL     1       3.092   3.016  19.828  0.00  0.00    +0.000 OA
ATOM     24  C   UNL     1       2.438   2.060  18.999  0.00  0.00    +0.000 C 
ENDBRANCH  21  23
ENDBRANCH  20  21
ENDBRANCH  19  20
ENDBRANCH  18  19
ENDBRANCH  17  18
ENDBRANCH  14  15
ENDBRANCH   2  14
TORSDOF 15
ENDMDL
MODEL 6
REMARK VINA RESULT:      -5.3      3.602      7.294
REMARK  Name = 
REMARK  17 active torsions:
REMARK  status: ('A' for Active; 'I' for Inactive)
REMARK    1  A    between atoms: C_1  and  C_2
REMARK    2  A    between atoms: C_2  and  C_3
REMARK    3  A    between atoms: C_3  and  C_4
REMARK    4  A    between atoms: C_4  and  C_5
REMARK    5  A    between atoms: C_5  and  C_6
REMARK    6  A    between atoms: C_7  and  C_8
REMARK    7  A    between atoms: C_8  and  C_9
REMARK    8  A    between atoms: C_10  and  C_11
REMARK    9  A    between atoms: C_11  and  C_12
REMARK   10  A    between atoms: C_13  and  C_14
REMARK   11  A    between atoms: C_14  and  C_15
REMARK   12  A    between atoms: C_17  and  C_18
REMARK   13  A    between atoms: C_18  and  C_19
REMARK   14  A    between atoms: C_19  and  C_20
REMARK   15  A    between atoms: C_20  and  C_21
REMARK   16  A    between atoms: C_21  and  O_23
REMARK   17  A    between atoms: O_23  and  C_24
REMARK                            x       y       z     vdW  Elec       q    Type
REMARK                         _______ _______ _______ _____ _____    ______ ____
ROOT
ATOM      1  C   UNL     1       1.306   4.925  20.378  0.00  0.00    +0.000 C 
ATOM      2  C   UNL     1       1.424   4.080  19.342  0.00  0.00    +0.000 C 
ENDROOT
BRANCH   1   3
ATOM      3  C   UNL     1       2.076   6.206  20.471  0.00  0.00    +0.000 C 
BRANCH   3   5
ATOM      4  C   UNL     1       0.483   8.186  21.535  0.00  0.00    +0.000 C 
ATOM      5  C   UNL     1       1.240   7.258  21.020  0.00  0.00    +0.000 C 
BRANCH   4   6
ATOM      6  C   UNL     1      -0.402   9.268  22.135  0.00  0.00    +0.000 C 
BRANCH   6   8
ATOM      7  C   UNL     1       0.013  11.495  21.074  0.00  0.00    +0.000 C 
ATOM      8  C   UNL     1       0.279  10.593  22.031  0.00  0.00    +0.000 C 
BRANCH   7   9
ATOM      9  C   UNL     1      -0.987  11.230  19.990  0.00  0.00    +0.000 C 
BRANCH   9  10
ATOM     10  C   UNL     1      -0.380  11.235  18.596  0.00  0.00    +0.000 C 
BRANCH  10  11
ATOM     11  C   UNL     1       0.191   9.851  18.292  0.00  0.00    +0.000 C 
BRANCH  11  13
ATOM     12  C   UNL     1       2.253   8.552  17.712  0.00  0.00    +0.000 C 
ATOM     13  C   UNL     1       1.694   9.919  18.066  0.00  0.00    +0.000 C 
ENDBRANCH  11  13
ENDBRANCH  10  11
ENDBRANCH   9  10
ENDBRANCH   7   9
ENDBRANCH   6   8
ENDBRANCH   4   6
ENDBRANCH   3   5
ENDBRANCH   1   3
BRANCH   2  14
ATOM     14  C   UNL     1       2.349   4.309  18.179  0.00  0.00    +0.000 C 
BRANCH  14  15
ATOM     15  C   UNL     1       3.782   3.950  18.475  0.00  0.00    +0.000 C 
ATOM     16  I   UNL     1       4.143   2.299  19.711  0.00  0.00    +0.000 I 
ATOM     17  C   UNL     1       4.827   4.592  17.926  0.00  0.00    +0.000 C 
BRANCH  17  18
ATOM     18  C   UNL     1       4.687   5.744  16.971  0.00  0.00    +0.000 C 
BRANCH  18  19
ATOM     19  C   UNL     1       5.744   5.701  15.885  0.00  0.00    +0.000 C 
BRANCH  19  20
ATOM     20  C   UNL     1       5.304   4.813  14.725  0.00  0.00    +0.000 C 
BRANCH  20  21
ATOM     21  C   UNL     1       6.501   4.426  13.893  0.00  0.00    +0.000 C 
ATOM     22  O   UNL     1       6.542   3.483  13.120  0.00  0.00    +0.000 OA
BRANCH  21  23
ATOM     23  O   UNL     1       7.526   5.282  14.134  0.00  0.00    +0.000 OA
ATOM     24  C   UNL     1       8.243   5.643  12.958  0.00  0.00    +0.000 C 
ENDBRANCH  21  23
ENDBRANCH  20  21
ENDBRANCH  19  20
ENDBRANCH  18  19
ENDBRANCH  17  18
ENDBRANCH  14  15
ENDBRANCH   2  14
TORSDOF 15
ENDMDL
MODEL 7
REMARK VINA RESULT:      -5.2      4.257      7.775
REMARK  Name = 
REMARK  17 active torsions:
REMARK  status: ('A' for Active; 'I' for Inactive)
REMARK    1  A    between atoms: C_1  and  C_2
REMARK    2  A    between atoms: C_2  and  C_3
REMARK    3  A    between atoms: C_3  and  C_4
REMARK    4  A    between atoms: C_4  and  C_5
REMARK    5  A    between atoms: C_5  and  C_6
REMARK    6  A    between atoms: C_7  and  C_8
REMARK    7  A    between atoms: C_8  and  C_9
REMARK    8  A    between atoms: C_10  and  C_11
REMARK    9  A    between atoms: C_11  and  C_12
REMARK   10  A    between atoms: C_13  and  C_14
REMARK   11  A    between atoms: C_14  and  C_15
REMARK   12  A    between atoms: C_17  and  C_18
REMARK   13  A    between atoms: C_18  and  C_19
REMARK   14  A    between atoms: C_19  and  C_20
REMARK   15  A    between atoms: C_20  and  C_21
REMARK   16  A    between atoms: C_21  and  O_23
REMARK   17  A    between atoms: O_23  and  C_24
REMARK                            x       y       z     vdW  Elec       q    Type
REMARK                         _______ _______ _______ _____ _____    ______ ____
ROOT
ATOM      1  C   UNL     1       2.378   5.843  19.425  0.00  0.00    +0.000 C 
ATOM      2  C   UNL     1       3.253   4.962  19.934  0.00  0.00    +0.000 C 
ENDROOT
BRANCH   1   3
ATOM      3  C   UNL     1       2.618   6.573  18.138  0.00  0.00    +0.000 C 
BRANCH   3   5
ATOM      4  C   UNL     1       1.761   9.185  18.313  0.00  0.00    +0.000 C 
ATOM      5  C   UNL     1       2.161   7.946  18.245  0.00  0.00    +0.000 C 
BRANCH   4   6
ATOM      6  C   UNL     1       1.295  10.631  18.394  0.00  0.00    +0.000 C 
BRANCH   6   8
ATOM      7  C   UNL     1      -0.980  10.673  19.434  0.00  0.00    +0.000 C 
ATOM      8  C   UNL     1       0.352  10.795  19.540  0.00  0.00    +0.000 C 
BRANCH   7   9
ATOM      9  C   UNL     1      -1.648  10.386  18.124  0.00  0.00    +0.000 C 
BRANCH   9  10
ATOM     10  C   UNL     1      -2.417  11.574  17.567  0.00  0.00    +0.000 C 
BRANCH  10  11
ATOM     11  C   UNL     1      -3.621  11.068  16.776  0.00  0.00    +0.000 C 
BRANCH  11  13
ATOM     12  C   UNL     1      -4.899  12.053  18.692  0.00  0.00    +0.000 C 
ATOM     13  C   UNL     1      -4.844  10.931  17.671  0.00  0.00    +0.000 C 
ENDBRANCH  11  13
ENDBRANCH  10  11
ENDBRANCH   9  10
ENDBRANCH   7   9
ENDBRANCH   6   8
ENDBRANCH   4   6
ENDBRANCH   3   5
ENDBRANCH   1   3
BRANCH   2  14
ATOM     14  C   UNL     1       4.569   4.624  19.290  0.00  0.00    +0.000 C 
BRANCH  14  15
ATOM     15  C   UNL     1       4.440   3.660  18.139  0.00  0.00    +0.000 C 
ATOM     16  I   UNL     1       3.378   1.884  18.464  0.00  0.00    +0.000 I 
ATOM     17  C   UNL     1       4.907   3.922  16.907  0.00  0.00    +0.000 C 
BRANCH  17  18
ATOM     18  C   UNL     1       5.621   5.193  16.541  0.00  0.00    +0.000 C 
BRANCH  18  19
ATOM     19  C   UNL     1       5.673   5.392  15.040  0.00  0.00    +0.000 C 
BRANCH  19  20
ATOM     20  C   UNL     1       6.016   4.089  14.324  0.00  0.00    +0.000 C 
BRANCH  20  21
ATOM     21  C   UNL     1       6.901   4.373  13.137  0.00  0.00    +0.000 C 
ATOM     22  O   UNL     1       7.667   5.319  13.043  0.00  0.00    +0.000 OA
BRANCH  21  23
ATOM     23  O   UNL     1       6.717   3.422  12.187  0.00  0.00    +0.000 OA
ATOM     24  C   UNL     1       5.344   3.179  11.895  0.00  0.00    +0.000 C 
ENDBRANCH  21  23
ENDBRANCH  20  21
ENDBRANCH  19  20
ENDBRANCH  18  19
ENDBRANCH  17  18
ENDBRANCH  14  15
ENDBRANCH   2  14
TORSDOF 15
ENDMDL
MODEL 8
REMARK VINA RESULT:      -5.1      3.693      7.463
REMARK  Name = 
REMARK  17 active torsions:
REMARK  status: ('A' for Active; 'I' for Inactive)
REMARK    1  A    between atoms: C_1  and  C_2
REMARK    2  A    between atoms: C_2  and  C_3
REMARK    3  A    between atoms: C_3  and  C_4
REMARK    4  A    between atoms: C_4  and  C_5
REMARK    5  A    between atoms: C_5  and  C_6
REMARK    6  A    between atoms: C_7  and  C_8
REMARK    7  A    between atoms: C_8  and  C_9
REMARK    8  A    between atoms: C_10  and  C_11
REMARK    9  A    between atoms: C_11  and  C_12
REMARK   10  A    between atoms: C_13  and  C_14
REMARK   11  A    between atoms: C_14  and  C_15
REMARK   12  A    between atoms: C_17  and  C_18
REMARK   13  A    between atoms: C_18  and  C_19
REMARK   14  A    between atoms: C_19  and  C_20
REMARK   15  A    between atoms: C_20  and  C_21
REMARK   16  A    between atoms: C_21  and  O_23
REMARK   17  A    between atoms: O_23  and  C_24
REMARK                            x       y       z     vdW  Elec       q    Type
REMARK                         _______ _______ _______ _____ _____    ______ ____
ROOT
ATOM      1  C   UNL     1       2.872   8.141  17.925  0.00  0.00    +0.000 C 
ATOM      2  C   UNL     1       3.204   6.851  17.763  0.00  0.00    +0.000 C 
ENDROOT
BRANCH   1   3
ATOM      3  C   UNL     1       1.484   8.585  18.271  0.00  0.00    +0.000 C 
BRANCH   3   5
ATOM      4  C   UNL     1       1.286   9.045  20.981  0.00  0.00    +0.000 C 
ATOM      5  C   UNL     1       1.377   8.842  19.696  0.00  0.00    +0.000 C 
BRANCH   4   6
ATOM      6  C   UNL     1       1.179   9.281  22.479  0.00  0.00    +0.000 C 
BRANCH   6   8
ATOM      7  C   UNL     1      -1.052  10.350  22.849  0.00  0.00    +0.000 C 
ATOM      8  C   UNL     1      -0.256   9.270  22.890  0.00  0.00    +0.000 C 
BRANCH   7   9
ATOM      9  C   UNL     1      -0.550  11.689  22.404  0.00  0.00    +0.000 C 
BRANCH   9  10
ATOM     10  C   UNL     1      -1.103  12.124  21.056  0.00  0.00    +0.000 C 
BRANCH  10  11
ATOM     11  C   UNL     1       0.044  12.240  20.055  0.00  0.00    +0.000 C 
BRANCH  11  13
ATOM     12  C   UNL     1       1.477  14.293  20.123  0.00  0.00    +0.000 C 
ATOM     13  C   UNL     1       1.258  12.902  20.690  0.00  0.00    +0.000 C 
ENDBRANCH  11  13
ENDBRANCH  10  11
ENDBRANCH   9  10
ENDBRANCH   7   9
ENDBRANCH   6   8
ENDBRANCH   4   6
ENDBRANCH   3   5
ENDBRANCH   1   3
BRANCH   2  14
ATOM     14  C   UNL     1       2.226   5.716  17.890  0.00  0.00    +0.000 C 
BRANCH  14  15
ATOM     15  C   UNL     1       2.681   4.640  18.842  0.00  0.00    +0.000 C 
ATOM     16  I   UNL     1       1.923   4.675  20.793  0.00  0.00    +0.000 I 
ATOM     17  C   UNL     1       3.485   3.627  18.474  0.00  0.00    +0.000 C 
BRANCH  17  18
ATOM     18  C   UNL     1       4.030   3.462  17.084  0.00  0.00    +0.000 C 
BRANCH  18  19
ATOM     19  C   UNL     1       5.417   4.059  16.953  0.00  0.00    +0.000 C 
BRANCH  19  20
ATOM     20  C   UNL     1       5.568   4.816  15.638  0.00  0.00    +0.000 C 
BRANCH  20  21
ATOM     21  C   UNL     1       6.923   5.475  15.577  0.00  0.00    +0.000 C 
ATOM     22  O   UNL     1       7.403   6.175  16.454  0.00  0.00    +0.000 OA
BRANCH  21  23
ATOM     23  O   UNL     1       7.530   5.174  14.401  0.00  0.00    +0.000 OA
ATOM     24  C   UNL     1       6.715   4.389  13.535  0.00  0.00    +0.000 C 
ENDBRANCH  21  23
ENDBRANCH  20  21
ENDBRANCH  19  20
ENDBRANCH  18  19
ENDBRANCH  17  18
ENDBRANCH  14  15
ENDBRANCH   2  14
TORSDOF 15
ENDMDL
MODEL 9
REMARK VINA RESULT:      -5.1      3.344      6.839
REMARK  Name = 
REMARK  17 active torsions:
REMARK  status: ('A' for Active; 'I' for Inactive)
REMARK    1  A    between atoms: C_1  and  C_2
REMARK    2  A    between atoms: C_2  and  C_3
REMARK    3  A    between atoms: C_3  and  C_4
REMARK    4  A    between atoms: C_4  and  C_5
REMARK    5  A    between atoms: C_5  and  C_6
REMARK    6  A    between atoms: C_7  and  C_8
REMARK    7  A    between atoms: C_8  and  C_9
REMARK    8  A    between atoms: C_10  and  C_11
REMARK    9  A    between atoms: C_11  and  C_12
REMARK   10  A    between atoms: C_13  and  C_14
REMARK   11  A    between atoms: C_14  and  C_15
REMARK   12  A    between atoms: C_17  and  C_18
REMARK   13  A    between atoms: C_18  and  C_19
REMARK   14  A    between atoms: C_19  and  C_20
REMARK   15  A    between atoms: C_20  and  C_21
REMARK   16  A    between atoms: C_21  and  O_23
REMARK   17  A    between atoms: O_23  and  C_24
REMARK                            x       y       z     vdW  Elec       q    Type
REMARK                         _______ _______ _______ _____ _____    ______ ____
ROOT
ATOM      1  C   UNL     1       4.509   7.218  16.621  0.00  0.00    +0.000 C 
ATOM      2  C   UNL     1       5.320   6.281  16.103  0.00  0.00    +0.000 C 
ENDROOT
BRANCH   1   3
ATOM      3  C   UNL     1       3.381   6.890  17.551  0.00  0.00    +0.000 C 
BRANCH   3   5
ATOM      4  C   UNL     1       1.961   9.177  18.135  0.00  0.00    +0.000 C 
ATOM      5  C   UNL     1       2.622   8.086  17.864  0.00  0.00    +0.000 C 
BRANCH   4   6
ATOM      6  C   UNL     1       1.191  10.450  18.452  0.00  0.00    +0.000 C 
BRANCH   6   8
ATOM      7  C   UNL     1      -1.242  10.290  19.013  0.00  0.00    +0.000 C 
ATOM      8  C   UNL     1       0.046  10.135  19.357  0.00  0.00    +0.000 C 
BRANCH   7   9
ATOM      9  C   UNL     1      -1.646  10.829  17.675  0.00  0.00    +0.000 C 
BRANCH   9  10
ATOM     10  C   UNL     1      -2.991  11.536  17.692  0.00  0.00    +0.000 C 
BRANCH  10  11
ATOM     11  C   UNL     1      -4.108  10.494  17.708  0.00  0.00    +0.000 C 
BRANCH  11  13
ATOM     12  C   UNL     1      -6.235  10.949  18.950  0.00  0.00    +0.000 C 
ATOM     13  C   UNL     1      -5.475  11.157  17.651  0.00  0.00    +0.000 C 
ENDBRANCH  11  13
ENDBRANCH  10  11
ENDBRANCH   9  10
ENDBRANCH   7   9
ENDBRANCH   6   8
ENDBRANCH   4   6
ENDBRANCH   3   5
ENDBRANCH   1   3
BRANCH   2  14
ATOM     14  C   UNL     1       5.178   4.810  16.378  0.00  0.00    +0.000 C 
BRANCH  14  15
ATOM     15  C   UNL     1       5.573   4.424  17.780  0.00  0.00    +0.000 C 
ATOM     16  I   UNL     1       7.261   5.343  18.610  0.00  0.00    +0.000 I 
ATOM     17  C   UNL     1       4.851   3.581  18.539  0.00  0.00    +0.000 C 
BRANCH  17  18
ATOM     18  C   UNL     1       3.585   2.920  18.073  0.00  0.00    +0.000 C 
BRANCH  18  19
ATOM     19  C   UNL     1       2.920   2.140  19.190  0.00  0.00    +0.000 C 
BRANCH  19  20
ATOM     20  C   UNL     1       3.198   2.777  20.547  0.00  0.00    +0.000 C 
BRANCH  20  21
ATOM     21  C   UNL     1       1.899   3.070  21.253  0.00  0.00    +0.000 C 
ATOM     22  O   UNL     1       1.532   2.550  22.294  0.00  0.00    +0.000 OA
BRANCH  21  23
ATOM     23  O   UNL     1       1.195   3.998  20.556  0.00  0.00    +0.000 OA
ATOM     24  C   UNL     1       1.780   5.296  20.603  0.00  0.00    +0.000 C 
ENDBRANCH  21  23
ENDBRANCH  20  21
ENDBRANCH  19  20
ENDBRANCH  18  19
ENDBRANCH  17  18
ENDBRANCH  14  15
ENDBRANCH   2  14
TORSDOF 15
ENDMDL
