MODEL 1
REMARK VINA RESULT:      -7.8      0.000      0.000
REMARK  Name = 
REMARK  7 active torsions:
REMARK  status: ('A' for Active; 'I' for Inactive)
REMARK    1  A    between atoms: C_1  and  O_2
REMARK    2  A    between atoms: O_2  and  C_3
REMARK    3  A    between atoms: C_3  and  C_4
REMARK    4  A    between atoms: C_4  and  N_5
REMARK    5  A    between atoms: C_4  and  C_20
REMARK    6  A    between atoms: C_14  and  O_15
REMARK    7  A    between atoms: O_15  and  C_16
REMARK                            x       y       z     vdW  Elec       q    Type
REMARK                         _______ _______ _______ _____ _____    ______ ____
ROOT
ATOM      1  N   UNL     1       0.961   9.442  19.244  0.00  0.00    +0.000 N 
ATOM      2  C   UNL     1       1.953   8.903  18.459  0.00  0.00    +0.000 C 
ATOM      3  O   UNL     1       2.421   9.502  17.492  0.00  0.00    +0.000 OA
ATOM      4  N   UNL     1       2.325   7.641  18.860  0.00  0.00    +0.000 N 
ATOM      5  C   UNL     1       3.249   6.887  18.114  0.00  0.00    +0.000 A 
ATOM      6  C   UNL     1       4.482   7.431  17.770  0.00  0.00    +0.000 A 
ATOM      7  C   UNL     1       5.315   6.595  17.033  0.00  0.00    +0.000 A 
ATOM      8  N   UNL     1       6.585   6.768  16.558  0.00  0.00    +0.000 N 
ATOM      9  N   UNL     1       7.057   5.740  15.858  0.00  0.00    +0.000 NA
ATOM     10  C   UNL     1       6.055   4.853  15.886  0.00  0.00    +0.000 A 
ATOM     11  C   UNL     1       4.943   5.320  16.630  0.00  0.00    +0.000 A 
ATOM     12  C   UNL     1       3.682   4.850  17.019  0.00  0.00    +0.000 A 
ATOM     13  N   UNL     1       2.872   5.624  17.806  0.00  0.00    +0.000 NA
ATOM     14  H   UNL     1       0.846   9.064  20.174  0.00  0.00    +0.000 HD
ATOM     15  H   UNL     1       1.572   7.073  19.221  0.00  0.00    +0.000 HD
ATOM     16  H   UNL     1       7.186   7.578  16.692  0.00  0.00    +0.000 HD
ENDROOT
BRANCH  10  17
ATOM     17  O   UNL     1       6.194   3.659  15.264  0.00  0.00    +0.000 OA
ATOM     18  C   UNL     1       6.155   3.750  13.838  0.00  0.00    +0.000 C 
ENDBRANCH  10  17
BRANCH   1  19
ATOM     19  C   UNL     1       0.411  10.776  18.977  0.00  0.00    +0.000 C 
BRANCH  19  20
ATOM     20  C   UNL     1      -1.038  10.705  18.495  0.00  0.00    +0.000 A 
ATOM     21  C   UNL     1      -1.362   9.845  17.432  0.00  0.00    +0.000 A 
ATOM     22  C   UNL     1      -2.645   9.853  16.875  0.00  0.00    +0.000 A 
ATOM     23  C   UNL     1      -3.605  10.712  17.386  0.00  0.00    +0.000 A 
ATOM     24  F   UNL     1      -4.828  10.736  16.834  0.00  0.00    +0.000 F 
ATOM     25  C   UNL     1      -3.317  11.557  18.447  0.00  0.00    +0.000 A 
ATOM     26  C   UNL     1      -2.033  11.559  19.002  0.00  0.00    +0.000 A 
ENDBRANCH  19  20
BRANCH  19  27
ATOM     27  C   UNL     1       0.459  11.715  20.204  0.00  0.00    +0.000 C 
BRANCH  27  29
ATOM     28  C   UNL     1      -0.370  11.091  22.320  0.00  0.00    +0.000 C 
ATOM     29  O   UNL     1       0.718  10.983  21.407  0.00  0.00    +0.000 OA
ENDBRANCH  27  29
ENDBRANCH  19  27
ENDBRANCH   1  19
TORSDOF 5
ENDMDL
MODEL 2
REMARK VINA RESULT:      -7.7      0.733      1.091
REMARK  Name = 
REMARK  7 active torsions:
REMARK  status: ('A' for Active; 'I' for Inactive)
REMARK    1  A    between atoms: C_1  and  O_2
REMARK    2  A    between atoms: O_2  and  C_3
REMARK    3  A    between atoms: C_3  and  C_4
REMARK    4  A    between atoms: C_4  and  N_5
REMARK    5  A    between atoms: C_4  and  C_20
REMARK    6  A    between atoms: C_14  and  O_15
REMARK    7  A    between atoms: O_15  and  C_16
REMARK                            x       y       z     vdW  Elec       q    Type
REMARK                         _______ _______ _______ _____ _____    ______ ____
ROOT
ATOM      1  N   UNL     1       0.918   9.487  19.078  0.00  0.00    +0.000 N 
ATOM      2  C   UNL     1       1.930   8.937  18.327  0.00  0.00    +0.000 C 
ATOM      3  O   UNL     1       2.416   9.517  17.357  0.00  0.00    +0.000 OA
ATOM      4  N   UNL     1       2.299   7.686  18.764  0.00  0.00    +0.000 N 
ATOM      5  C   UNL     1       3.243   6.921  18.055  0.00  0.00    +0.000 A 
ATOM      6  C   UNL     1       4.481   7.464  17.727  0.00  0.00    +0.000 A 
ATOM      7  C   UNL     1       5.335   6.617  17.027  0.00  0.00    +0.000 A 
ATOM      8  N   UNL     1       6.614   6.787  16.576  0.00  0.00    +0.000 N 
ATOM      9  N   UNL     1       7.107   5.746  15.909  0.00  0.00    +0.000 NA
ATOM     10  C   UNL     1       6.109   4.854  15.935  0.00  0.00    +0.000 A 
ATOM     11  C   UNL     1       4.979   5.331  16.644  0.00  0.00    +0.000 A 
ATOM     12  C   UNL     1       3.711   4.863  17.015  0.00  0.00    +0.000 A 
ATOM     13  N   UNL     1       2.880   5.649  17.766  0.00  0.00    +0.000 NA
ATOM     14  H   UNL     1       0.784   9.129  20.013  0.00  0.00    +0.000 HD
ATOM     15  H   UNL     1       1.542   7.122  19.120  0.00  0.00    +0.000 HD
ATOM     16  H   UNL     1       7.208   7.602  16.706  0.00  0.00    +0.000 HD
ENDROOT
BRANCH  10  17
ATOM     17  O   UNL     1       6.268   3.648  15.343  0.00  0.00    +0.000 OA
ATOM     18  C   UNL     1       6.193   3.698  13.916  0.00  0.00    +0.000 C 
ENDBRANCH  10  17
BRANCH   1  19
ATOM     19  C   UNL     1       0.368  10.813  18.769  0.00  0.00    +0.000 C 
BRANCH  19  20
ATOM     20  C   UNL     1      -1.121  10.742  18.428  0.00  0.00    +0.000 A 
ATOM     21  C   UNL     1      -1.549   9.860  17.420  0.00  0.00    +0.000 A 
ATOM     22  C   UNL     1      -2.878   9.865  16.987  0.00  0.00    +0.000 A 
ATOM     23  C   UNL     1      -3.781  10.743  17.566  0.00  0.00    +0.000 A 
ATOM     24  F   UNL     1      -5.051  10.764  17.131  0.00  0.00    +0.000 F 
ATOM     25  C   UNL     1      -3.389  11.610  18.575  0.00  0.00    +0.000 A 
ATOM     26  C   UNL     1      -2.059  11.615  19.006  0.00  0.00    +0.000 A 
ENDBRANCH  19  20
BRANCH  19  27
ATOM     27  C   UNL     1       0.545  11.832  19.917  0.00  0.00    +0.000 C 
BRANCH  27  29
ATOM     28  C   UNL     1       2.035  12.897  18.433  0.00  0.00    +0.000 C 
ATOM     29  O   UNL     1       1.779  12.546  19.790  0.00  0.00    +0.000 OA
ENDBRANCH  27  29
ENDBRANCH  19  27
ENDBRANCH   1  19
TORSDOF 5
ENDMDL
MODEL 3
REMARK VINA RESULT:      -7.4      3.272      8.681
REMARK  Name = 
REMARK  7 active torsions:
REMARK  status: ('A' for Active; 'I' for Inactive)
REMARK    1  A    between atoms: C_1  and  O_2
REMARK    2  A    between atoms: O_2  and  C_3
REMARK    3  A    between atoms: C_3  and  C_4
REMARK    4  A    between atoms: C_4  and  N_5
REMARK    5  A    between atoms: C_4  and  C_20
REMARK    6  A    between atoms: C_14  and  O_15
REMARK    7  A    between atoms: O_15  and  C_16
REMARK                            x       y       z     vdW  Elec       q    Type
REMARK                         _______ _______ _______ _____ _____    ______ ____
ROOT
ATOM      1  N   UNL     1       2.809   7.411  18.029  0.00  0.00    +0.000 N 
ATOM      2  C   UNL     1       1.974   8.235  18.747  0.00  0.00    +0.000 C 
ATOM      3  O   UNL     1       1.819   8.114  19.961  0.00  0.00    +0.000 OA
ATOM      4  N   UNL     1       1.333   9.163  17.959  0.00  0.00    +0.000 N 
ATOM      5  C   UNL     1       0.358  10.021  18.499  0.00  0.00    +0.000 A 
ATOM      6  C   UNL     1       0.642  10.781  19.629  0.00  0.00    +0.000 A 
ATOM      7  C   UNL     1      -0.397  11.595  20.074  0.00  0.00    +0.000 A 
ATOM      8  N   UNL     1      -0.472  12.486  21.106  0.00  0.00    +0.000 N 
ATOM      9  N   UNL     1      -1.661  13.070  21.246  0.00  0.00    +0.000 NA
ATOM     10  C   UNL     1      -2.389  12.542  20.254  0.00  0.00    +0.000 A 
ATOM     11  C   UNL     1      -1.645  11.628  19.467  0.00  0.00    +0.000 A 
ATOM     12  C   UNL     1      -1.846  10.829  18.334  0.00  0.00    +0.000 A 
ATOM     13  N   UNL     1      -0.819  10.075  17.832  0.00  0.00    +0.000 NA
ATOM     14  H   UNL     1       3.135   7.745  17.132  0.00  0.00    +0.000 HD
ATOM     15  H   UNL     1       1.084   8.835  17.038  0.00  0.00    +0.000 HD
ATOM     16  H   UNL     1       0.271  12.745  21.751  0.00  0.00    +0.000 HD
ENDROOT
BRANCH  10  17
ATOM     17  O   UNL     1      -3.677  12.922  20.088  0.00  0.00    +0.000 OA
ATOM     18  C   UNL     1      -4.409  13.006  21.313  0.00  0.00    +0.000 C 
ENDBRANCH  10  17
BRANCH   1  19
ATOM     19  C   UNL     1       3.577   6.343  18.680  0.00  0.00    +0.000 C 
BRANCH  19  20
ATOM     20  C   UNL     1       2.784   5.037  18.750  0.00  0.00    +0.000 A 
ATOM     21  C   UNL     1       2.836   4.150  17.661  0.00  0.00    +0.000 A 
ATOM     22  C   UNL     1       2.020   3.014  17.630  0.00  0.00    +0.000 A 
ATOM     23  C   UNL     1       1.162   2.761  18.688  0.00  0.00    +0.000 A 
ATOM     24  F   UNL     1       0.361   1.685  18.645  0.00  0.00    +0.000 F 
ATOM     25  C   UNL     1       1.106   3.611  19.783  0.00  0.00    +0.000 A 
ATOM     26  C   UNL     1       1.912   4.753  19.815  0.00  0.00    +0.000 A 
ENDBRANCH  19  20
BRANCH  19  27
ATOM     27  C   UNL     1       4.924   6.045  17.981  0.00  0.00    +0.000 C 
BRANCH  27  29
ATOM     28  C   UNL     1       5.308   6.048  15.656  0.00  0.00    +0.000 C 
ATOM     29  O   UNL     1       5.090   6.853  16.811  0.00  0.00    +0.000 OA
ENDBRANCH  27  29
ENDBRANCH  19  27
ENDBRANCH   1  19
TORSDOF 5
ENDMDL
MODEL 4
REMARK VINA RESULT:      -7.4      6.699      8.614
REMARK  Name = 
REMARK  7 active torsions:
REMARK  status: ('A' for Active; 'I' for Inactive)
REMARK    1  A    between atoms: C_1  and  O_2
REMARK    2  A    between atoms: O_2  and  C_3
REMARK    3  A    between atoms: C_3  and  C_4
REMARK    4  A    between atoms: C_4  and  N_5
REMARK    5  A    between atoms: C_4  and  C_20
REMARK    6  A    between atoms: C_14  and  O_15
REMARK    7  A    between atoms: O_15  and  C_16
REMARK                            x       y       z     vdW  Elec       q    Type
REMARK                         _______ _______ _______ _____ _____    ______ ____
ROOT
ATOM      1  N   UNL     1       9.470   9.768  19.435  0.00  0.00    +0.000 N 
ATOM      2  C   UNL     1       8.582   9.022  18.697  0.00  0.00    +0.000 C 
ATOM      3  O   UNL     1       7.818   9.533  17.879  0.00  0.00    +0.000 OA
ATOM      4  N   UNL     1       8.632   7.681  18.999  0.00  0.00    +0.000 N 
ATOM      5  C   UNL     1       7.722   6.776  18.423  0.00  0.00    +0.000 A 
ATOM      6  C   UNL     1       7.554   6.732  17.043  0.00  0.00    +0.000 A 
ATOM      7  C   UNL     1       6.629   5.797  16.586  0.00  0.00    +0.000 A 
ATOM      8  N   UNL     1       6.235   5.452  15.324  0.00  0.00    +0.000 N 
ATOM      9  N   UNL     1       5.289   4.517  15.278  0.00  0.00    +0.000 NA
ATOM     10  C   UNL     1       5.064   4.232  16.566  0.00  0.00    +0.000 A 
ATOM     11  C   UNL     1       5.892   4.984  17.436  0.00  0.00    +0.000 A 
ATOM     12  C   UNL     1       6.123   5.094  18.814  0.00  0.00    +0.000 A 
ATOM     13  N   UNL     1       7.079   5.953  19.285  0.00  0.00    +0.000 NA
ATOM     14  H   UNL     1      10.262   9.287  19.837  0.00  0.00    +0.000 HD
ATOM     15  H   UNL     1       8.816   7.472  19.969  0.00  0.00    +0.000 HD
ATOM     16  H   UNL     1       6.590   5.823  14.447  0.00  0.00    +0.000 HD
ENDROOT
BRANCH  10  17
ATOM     17  O   UNL     1       4.145   3.297  16.899  0.00  0.00    +0.000 OA
ATOM     18  C   UNL     1       2.957   3.844  17.476  0.00  0.00    +0.000 C 
ENDBRANCH  10  17
BRANCH   1  19
ATOM     19  C   UNL     1       9.566  11.225  19.276  0.00  0.00    +0.000 C 
BRANCH  19  20
ATOM     20  C   UNL     1       9.402  11.952  20.611  0.00  0.00    +0.000 A 
ATOM     21  C   UNL     1       8.715  11.311  21.656  0.00  0.00    +0.000 A 
ATOM     22  C   UNL     1       8.427  11.994  22.843  0.00  0.00    +0.000 A 
ATOM     23  C   UNL     1       8.833  13.311  22.988  0.00  0.00    +0.000 A 
ATOM     24  F   UNL     1       8.534  13.973  24.116  0.00  0.00    +0.000 F 
ATOM     25  C   UNL     1       9.530  13.960  21.979  0.00  0.00    +0.000 A 
ATOM     26  C   UNL     1       9.812  13.284  20.787  0.00  0.00    +0.000 A 
ENDBRANCH  19  20
BRANCH  19  27
ATOM     27  C   UNL     1      10.899  11.685  18.644  0.00  0.00    +0.000 C 
BRANCH  27  29
ATOM     28  C   UNL     1      11.002  13.528  17.178  0.00  0.00    +0.000 C 
ATOM     29  O   UNL     1      10.705  12.140  17.300  0.00  0.00    +0.000 OA
ENDBRANCH  27  29
ENDBRANCH  19  27
ENDBRANCH   1  19
TORSDOF 5
ENDMDL
MODEL 5
REMARK VINA RESULT:      -7.4      3.363      8.785
REMARK  Name = 
REMARK  7 active torsions:
REMARK  status: ('A' for Active; 'I' for Inactive)
REMARK    1  A    between atoms: C_1  and  O_2
REMARK    2  A    between atoms: O_2  and  C_3
REMARK    3  A    between atoms: C_3  and  C_4
REMARK    4  A    between atoms: C_4  and  N_5
REMARK    5  A    between atoms: C_4  and  C_20
REMARK    6  A    between atoms: C_14  and  O_15
REMARK    7  A    between atoms: O_15  and  C_16
REMARK                            x       y       z     vdW  Elec       q    Type
REMARK                         _______ _______ _______ _____ _____    ______ ____
ROOT
ATOM      1  N   UNL     1       2.291   8.047  17.794  0.00  0.00    +0.000 N 
ATOM      2  C   UNL     1       1.494   8.875  18.549  0.00  0.00    +0.000 C 
ATOM      3  O   UNL     1       1.510   8.857  19.780  0.00  0.00    +0.000 OA
ATOM      4  N   UNL     1       0.681   9.678  17.783  0.00  0.00    +0.000 N 
ATOM      5  C   UNL     1      -0.281  10.513  18.380  0.00  0.00    +0.000 A 
ATOM      6  C   UNL     1       0.086  11.394  19.392  0.00  0.00    +0.000 A 
ATOM      7  C   UNL     1      -0.948  12.172  19.906  0.00  0.00    +0.000 A 
ATOM      8  N   UNL     1      -0.959  13.149  20.862  0.00  0.00    +0.000 N 
ATOM      9  N   UNL     1      -2.162  13.659  21.115  0.00  0.00    +0.000 NA
ATOM     10  C   UNL     1      -2.969  12.992  20.281  0.00  0.00    +0.000 A 
ATOM     11  C   UNL     1      -2.263  12.062  19.477  0.00  0.00    +0.000 A 
ATOM     12  C   UNL     1      -2.546  11.148  18.454  0.00  0.00    +0.000 A 
ATOM     13  N   UNL     1      -1.536  10.423  17.880  0.00  0.00    +0.000 NA
ATOM     14  H   UNL     1       2.467   8.317  16.837  0.00  0.00    +0.000 HD
ATOM     15  H   UNL     1       0.340   9.249  16.936  0.00  0.00    +0.000 HD
ATOM     16  H   UNL     1      -0.161  13.518  21.373  0.00  0.00    +0.000 HD
ENDROOT
BRANCH  10  17
ATOM     17  O   UNL     1      -4.294  13.264  20.264  0.00  0.00    +0.000 OA
ATOM     18  C   UNL     1      -5.023  12.616  21.309  0.00  0.00    +0.000 C 
ENDBRANCH  10  17
BRANCH   1  19
ATOM     19  C   UNL     1       3.222   7.100  18.419  0.00  0.00    +0.000 C 
BRANCH  19  20
ATOM     20  C   UNL     1       2.525   5.799  18.816  0.00  0.00    +0.000 A 
ATOM     21  C   UNL     1       2.128   4.903  17.808  0.00  0.00    +0.000 A 
ATOM     22  C   UNL     1       1.369   3.771  18.121  0.00  0.00    +0.000 A 
ATOM     23  C   UNL     1       1.016   3.529  19.439  0.00  0.00    +0.000 A 
ATOM     24  F   UNL     1       0.266   2.456  19.734  0.00  0.00    +0.000 F 
ATOM     25  C   UNL     1       1.411   4.387  20.455  0.00  0.00    +0.000 A 
ATOM     26  C   UNL     1       2.162   5.525  20.146  0.00  0.00    +0.000 A 
ENDBRANCH  19  20
BRANCH  19  27
ATOM     27  C   UNL     1       4.425   6.740  17.518  0.00  0.00    +0.000 C 
BRANCH  27  29
ATOM     28  C   UNL     1       6.163   5.156  17.348  0.00  0.00    +0.000 C 
ATOM     29  O   UNL     1       5.394   5.964  18.233  0.00  0.00    +0.000 OA
ENDBRANCH  27  29
ENDBRANCH  19  27
ENDBRANCH   1  19
TORSDOF 5
ENDMDL
MODEL 6
REMARK VINA RESULT:      -7.3      6.815      8.643
REMARK  Name = 
REMARK  7 active torsions:
REMARK  status: ('A' for Active; 'I' for Inactive)
REMARK    1  A    between atoms: C_1  and  O_2
REMARK    2  A    between atoms: O_2  and  C_3
REMARK    3  A    between atoms: C_3  and  C_4
REMARK    4  A    between atoms: C_4  and  N_5
REMARK    5  A    between atoms: C_4  and  C_20
REMARK    6  A    between atoms: C_14  and  O_15
REMARK    7  A    between atoms: O_15  and  C_16
REMARK                            x       y       z     vdW  Elec       q    Type
REMARK                         _______ _______ _______ _____ _____    ______ ____
ROOT
ATOM      1  N   UNL     1       9.426   9.719  19.224  0.00  0.00    +0.000 N 
ATOM      2  C   UNL     1       8.512   8.925  18.572  0.00  0.00    +0.000 C 
ATOM      3  O   UNL     1       7.704   9.384  17.765  0.00  0.00    +0.000 OA
ATOM      4  N   UNL     1       8.593   7.603  18.942  0.00  0.00    +0.000 N 
ATOM      5  C   UNL     1       7.667   6.659  18.461  0.00  0.00    +0.000 A 
ATOM      6  C   UNL     1       7.433   6.539  17.095  0.00  0.00    +0.000 A 
ATOM      7  C   UNL     1       6.498   5.572  16.735  0.00  0.00    +0.000 A 
ATOM      8  N   UNL     1       6.048   5.156  15.514  0.00  0.00    +0.000 N 
ATOM      9  N   UNL     1       5.112   4.211  15.564  0.00  0.00    +0.000 NA
ATOM     10  C   UNL     1       4.953   3.995  16.875  0.00  0.00    +0.000 A 
ATOM     11  C   UNL     1       5.813   4.800  17.662  0.00  0.00    +0.000 A 
ATOM     12  C   UNL     1       6.109   4.986  19.019  0.00  0.00    +0.000 A 
ATOM     13  N   UNL     1       7.076   5.879  19.396  0.00  0.00    +0.000 NA
ATOM     14  H   UNL     1      10.242   9.267  19.612  0.00  0.00    +0.000 HD
ATOM     15  H   UNL     1       8.825   7.449  19.911  0.00  0.00    +0.000 HD
ATOM     16  H   UNL     1       6.357   5.482  14.601  0.00  0.00    +0.000 HD
ENDROOT
BRANCH  10  17
ATOM     17  O   UNL     1       4.062   3.070  17.302  0.00  0.00    +0.000 OA
ATOM     18  C   UNL     1       2.704   3.511  17.231  0.00  0.00    +0.000 C 
ENDBRANCH  10  17
BRANCH   1  19
ATOM     19  C   UNL     1       9.497  11.165  18.983  0.00  0.00    +0.000 C 
BRANCH  19  20
ATOM     20  C   UNL     1       9.209  11.966  20.253  0.00  0.00    +0.000 A 
ATOM     21  C   UNL     1       9.391  13.359  20.236  0.00  0.00    +0.000 A 
ATOM     22  C   UNL     1       9.270  14.107  21.412  0.00  0.00    +0.000 A 
ATOM     23  C   UNL     1       8.957  13.465  22.599  0.00  0.00    +0.000 A 
ATOM     24  F   UNL     1       8.866  14.180  23.731  0.00  0.00    +0.000 F 
ATOM     25  C   UNL     1       8.753  12.094  22.639  0.00  0.00    +0.000 A 
ATOM     26  C   UNL     1       8.882  11.340  21.468  0.00  0.00    +0.000 A 
ENDBRANCH  19  20
BRANCH  19  27
ATOM     27  C   UNL     1      10.864  11.627  18.429  0.00  0.00    +0.000 C 
BRANCH  27  29
ATOM     28  C   UNL     1      11.848  13.202  16.977  0.00  0.00    +0.000 C 
ATOM     29  O   UNL     1      10.705  12.389  17.227  0.00  0.00    +0.000 OA
ENDBRANCH  27  29
ENDBRANCH  19  27
ENDBRANCH   1  19
TORSDOF 5
ENDMDL
MODEL 7
REMARK VINA RESULT:      -7.2      2.534      2.819
REMARK  Name = 
REMARK  7 active torsions:
REMARK  status: ('A' for Active; 'I' for Inactive)
REMARK    1  A    between atoms: C_1  and  O_2
REMARK    2  A    between atoms: O_2  and  C_3
REMARK    3  A    between atoms: C_3  and  C_4
REMARK    4  A    between atoms: C_4  and  N_5
REMARK    5  A    between atoms: C_4  and  C_20
REMARK    6  A    between atoms: C_14  and  O_15
REMARK    7  A    between atoms: O_15  and  C_16
REMARK                            x       y       z     vdW  Elec       q    Type
REMARK                         _______ _______ _______ _____ _____    ______ ____
ROOT
ATOM      1  N   UNL     1       0.551   9.989  19.656  0.00  0.00    +0.000 N 
ATOM      2  C   UNL     1       1.302   8.901  19.278  0.00  0.00    +0.000 C 
ATOM      3  O   UNL     1       1.657   8.722  18.114  0.00  0.00    +0.000 OA
ATOM      4  N   UNL     1       1.574   8.051  20.325  0.00  0.00    +0.000 N 
ATOM      5  C   UNL     1       2.238   6.830  20.111  0.00  0.00    +0.000 A 
ATOM      6  C   UNL     1       3.447   6.799  19.423  0.00  0.00    +0.000 A 
ATOM      7  C   UNL     1       4.014   5.537  19.272  0.00  0.00    +0.000 A 
ATOM      8  N   UNL     1       5.185   5.131  18.697  0.00  0.00    +0.000 N 
ATOM      9  N   UNL     1       5.382   3.815  18.717  0.00  0.00    +0.000 NA
ATOM     10  C   UNL     1       4.296   3.343  19.340  0.00  0.00    +0.000 A 
ATOM     11  C   UNL     1       3.411   4.376  19.737  0.00  0.00    +0.000 A 
ATOM     12  C   UNL     1       2.193   4.497  20.418  0.00  0.00    +0.000 A 
ATOM     13  N   UNL     1       1.650   5.733  20.644  0.00  0.00    +0.000 NA
ATOM     14  H   UNL     1       0.562  10.246  20.633  0.00  0.00    +0.000 HD
ATOM     15  H   UNL     1       0.834   7.968  21.005  0.00  0.00    +0.000 HD
ATOM     16  H   UNL     1       5.901   5.720  18.279  0.00  0.00    +0.000 HD
ENDROOT
BRANCH  10  17
ATOM     17  O   UNL     1       4.161   2.012  19.545  0.00  0.00    +0.000 OA
ATOM     18  C   UNL     1       3.580   1.321  18.437  0.00  0.00    +0.000 C 
ENDBRANCH  10  17
BRANCH   1  19
ATOM     19  C   UNL     1       0.140  11.011  18.686  0.00  0.00    +0.000 C 
BRANCH  19  20
ATOM     20  C   UNL     1      -1.348  10.906  18.349  0.00  0.00    +0.000 A 
ATOM     21  C   UNL     1      -1.754  10.038  17.320  0.00  0.00    +0.000 A 
ATOM     22  C   UNL     1      -3.085  10.016  16.892  0.00  0.00    +0.000 A 
ATOM     23  C   UNL     1      -4.010  10.852  17.498  0.00  0.00    +0.000 A 
ATOM     24  F   UNL     1      -5.282  10.847  17.069  0.00  0.00    +0.000 F 
ATOM     25  C   UNL     1      -3.639  11.703  18.528  0.00  0.00    +0.000 A 
ATOM     26  C   UNL     1      -2.308  11.736  18.953  0.00  0.00    +0.000 A 
ENDBRANCH  19  20
BRANCH  19  27
ATOM     27  C   UNL     1       0.419  12.455  19.162  0.00  0.00    +0.000 C 
BRANCH  27  29
ATOM     28  C   UNL     1       2.534  12.719  18.156  0.00  0.00    +0.000 C 
ATOM     29  O   UNL     1       1.187  13.180  18.195  0.00  0.00    +0.000 OA
ENDBRANCH  27  29
ENDBRANCH  19  27
ENDBRANCH   1  19
TORSDOF 5
ENDMDL
MODEL 8
REMARK VINA RESULT:      -7.2      2.520      2.937
REMARK  Name = 
REMARK  7 active torsions:
REMARK  status: ('A' for Active; 'I' for Inactive)
REMARK    1  A    between atoms: C_1  and  O_2
REMARK    2  A    between atoms: O_2  and  C_3
REMARK    3  A    between atoms: C_3  and  C_4
REMARK    4  A    between atoms: C_4  and  N_5
REMARK    5  A    between atoms: C_4  and  C_20
REMARK    6  A    between atoms: C_14  and  O_15
REMARK    7  A    between atoms: O_15  and  C_16
REMARK                            x       y       z     vdW  Elec       q    Type
REMARK                         _______ _______ _______ _____ _____    ______ ____
ROOT
ATOM      1  N   UNL     1       0.540   9.945  19.735  0.00  0.00    +0.000 N 
ATOM      2  C   UNL     1       1.330   8.882  19.366  0.00  0.00    +0.000 C 
ATOM      3  O   UNL     1       1.802   8.778  18.234  0.00  0.00    +0.000 OA
ATOM      4  N   UNL     1       1.499   7.965  20.378  0.00  0.00    +0.000 N 
ATOM      5  C   UNL     1       2.187   6.759  20.154  0.00  0.00    +0.000 A 
ATOM      6  C   UNL     1       3.459   6.771  19.591  0.00  0.00    +0.000 A 
ATOM      7  C   UNL     1       4.044   5.520  19.417  0.00  0.00    +0.000 A 
ATOM      8  N   UNL     1       5.269   5.150  18.938  0.00  0.00    +0.000 N 
ATOM      9  N   UNL     1       5.469   3.835  18.893  0.00  0.00    +0.000 NA
ATOM     10  C   UNL     1       4.328   3.326  19.372  0.00  0.00    +0.000 A 
ATOM     11  C   UNL     1       3.403   4.333  19.743  0.00  0.00    +0.000 A 
ATOM     12  C   UNL     1       2.122   4.412  20.305  0.00  0.00    +0.000 A 
ATOM     13  N   UNL     1       1.553   5.632  20.554  0.00  0.00    +0.000 NA
ATOM     14  H   UNL     1       0.451  10.138  20.723  0.00  0.00    +0.000 HD
ATOM     15  H   UNL     1       0.695   7.840  20.974  0.00  0.00    +0.000 HD
ATOM     16  H   UNL     1       6.021   5.763  18.633  0.00  0.00    +0.000 HD
ENDROOT
BRANCH  10  17
ATOM     17  O   UNL     1       4.180   1.984  19.476  0.00  0.00    +0.000 OA
ATOM     18  C   UNL     1       3.464   1.404  18.383  0.00  0.00    +0.000 C 
ENDBRANCH  10  17
BRANCH   1  19
ATOM     19  C   UNL     1       0.224  11.028  18.797  0.00  0.00    +0.000 C 
BRANCH  19  20
ATOM     20  C   UNL     1      -1.237  10.979  18.348  0.00  0.00    +0.000 A 
ATOM     21  C   UNL     1      -2.162  11.855  18.942  0.00  0.00    +0.000 A 
ATOM     22  C   UNL     1      -3.527  11.748  18.657  0.00  0.00    +0.000 A 
ATOM     23  C   UNL     1      -3.966  10.775  17.773  0.00  0.00    +0.000 A 
ATOM     24  F   UNL     1      -5.279  10.657  17.520  0.00  0.00    +0.000 F 
ATOM     25  C   UNL     1      -3.071   9.912  17.158  0.00  0.00    +0.000 A 
ATOM     26  C   UNL     1      -1.706  10.008  17.447  0.00  0.00    +0.000 A 
ENDBRANCH  19  20
BRANCH  19  27
ATOM     27  C   UNL     1       0.498  12.436  19.372  0.00  0.00    +0.000 C 
BRANCH  27  29
ATOM     28  C   UNL     1       2.484  12.456  18.102  0.00  0.00    +0.000 C 
ATOM     29  O   UNL     1       1.899  12.732  19.372  0.00  0.00    +0.000 OA
ENDBRANCH  27  29
ENDBRANCH  19  27
ENDBRANCH   1  19
TORSDOF 5
ENDMDL
MODEL 9
REMARK VINA RESULT:      -7.1      2.031      2.485
REMARK  Name = 
REMARK  7 active torsions:
REMARK  status: ('A' for Active; 'I' for Inactive)
REMARK    1  A    between atoms: C_1  and  O_2
REMARK    2  A    between atoms: O_2  and  C_3
REMARK    3  A    between atoms: C_3  and  C_4
REMARK    4  A    between atoms: C_4  and  N_5
REMARK    5  A    between atoms: C_4  and  C_20
REMARK    6  A    between atoms: C_14  and  O_15
REMARK    7  A    between atoms: O_15  and  C_16
REMARK                            x       y       z     vdW  Elec       q    Type
REMARK                         _______ _______ _______ _____ _____    ______ ____
ROOT
ATOM      1  N   UNL     1       1.022  10.056  19.448  0.00  0.00    +0.000 N 
ATOM      2  C   UNL     1       1.524   8.958  18.791  0.00  0.00    +0.000 C 
ATOM      3  O   UNL     1       1.520   8.869  17.564  0.00  0.00    +0.000 OA
ATOM      4  N   UNL     1       1.990   7.989  19.650  0.00  0.00    +0.000 N 
ATOM      5  C   UNL     1       2.441   6.749  19.164  0.00  0.00    +0.000 A 
ATOM      6  C   UNL     1       3.400   6.696  18.158  0.00  0.00    +0.000 A 
ATOM      7  C   UNL     1       3.772   5.415  17.758  0.00  0.00    +0.000 A 
ATOM      8  N   UNL     1       4.690   4.981  16.843  0.00  0.00    +0.000 N 
ATOM      9  N   UNL     1       4.750   3.659  16.707  0.00  0.00    +0.000 NA
ATOM     10  C   UNL     1       3.840   3.211  17.580  0.00  0.00    +0.000 A 
ATOM     11  C   UNL     1       3.209   4.263  18.289  0.00  0.00    +0.000 A 
ATOM     12  C   UNL     1       2.248   4.407  19.298  0.00  0.00    +0.000 A 
ATOM     13  N   UNL     1       1.917   5.652  19.761  0.00  0.00    +0.000 NA
ATOM     14  H   UNL     1       1.330  10.213  20.397  0.00  0.00    +0.000 HD
ATOM     15  H   UNL     1       1.464   7.895  20.506  0.00  0.00    +0.000 HD
ATOM     16  H   UNL     1       5.316   5.553  16.282  0.00  0.00    +0.000 HD
ENDROOT
BRANCH  10  17
ATOM     17  O   UNL     1       3.634   1.880  17.716  0.00  0.00    +0.000 OA
ATOM     18  C   UNL     1       4.040   1.367  18.987  0.00  0.00    +0.000 C 
ENDBRANCH  10  17
BRANCH   1  19
ATOM     19  C   UNL     1       0.461  11.198  18.715  0.00  0.00    +0.000 C 
BRANCH  19  20
ATOM     20  C   UNL     1      -1.052  11.069  18.537  0.00  0.00    +0.000 A 
ATOM     21  C   UNL     1      -1.552  10.148  17.601  0.00  0.00    +0.000 A 
ATOM     22  C   UNL     1      -2.920  10.098  17.312  0.00  0.00    +0.000 A 
ATOM     23  C   UNL     1      -3.786  10.960  17.966  0.00  0.00    +0.000 A 
ATOM     24  F   UNL     1      -5.095  10.928  17.669  0.00  0.00    +0.000 F 
ATOM     25  C   UNL     1      -3.321  11.865  18.908  0.00  0.00    +0.000 A 
ATOM     26  C   UNL     1      -1.953  11.925  19.193  0.00  0.00    +0.000 A 
ENDBRANCH  19  20
BRANCH  19  27
ATOM     27  C   UNL     1       0.747  12.559  19.391  0.00  0.00    +0.000 C 
BRANCH  27  29
ATOM     28  C   UNL     1       2.586  13.483  18.242  0.00  0.00    +0.000 C 
ATOM     29  O   UNL     1       1.175  13.533  18.432  0.00  0.00    +0.000 OA
ENDBRANCH  27  29
ENDBRANCH  19  27
ENDBRANCH   1  19
TORSDOF 5
ENDMDL
