MODEL 1
REMARK VINA RESULT:      -7.5      0.000      0.000
REMARK  Name = 
REMARK  2 active torsions:
REMARK  status: ('A' for Active; 'I' for Inactive)
REMARK    1  A    between atoms: C_2  and  C_4
REMARK    2  A    between atoms: N_10  and  C_11
REMARK                            x       y       z     vdW  Elec       q    Type
REMARK                         _______ _______ _______ _____ _____    ______ ____
ROOT
ATOM      1  C   UNL     1       5.862   3.630  12.838  0.00  0.00    +0.000 A 
ATOM      2  C   UNL     1       7.110   4.230  12.644  0.00  0.00    +0.000 A 
ATOM      3  C   UNL     1       7.682   5.025  13.648  0.00  0.00    +0.000 A 
ATOM      4  C   UNL     1       6.995   5.202  14.860  0.00  0.00    +0.000 A 
ATOM      5  N   UNL     1       7.334   5.970  15.939  0.00  0.00    +0.000 NA
ATOM      6  C   UNL     1       6.340   5.823  16.786  0.00  0.00    +0.000 A 
ATOM      7  N   UNL     1       5.382   4.937  16.338  0.00  0.00    +0.000 N 
ATOM      8  C   UNL     1       5.769   4.567  15.056  0.00  0.00    +0.000 A 
ATOM      9  C   UNL     1       5.162   3.809  14.041  0.00  0.00    +0.000 A 
ENDROOT
BRANCH   7  10
ATOM     10  C   UNL     1       4.241   4.505  17.068  0.00  0.00    +0.000 A 
ATOM     11  C   UNL     1       3.341   5.443  17.588  0.00  0.00    +0.000 A 
ATOM     12  C   UNL     1       2.205   5.009  18.279  0.00  0.00    +0.000 A 
ATOM     13  C   UNL     1       1.977   3.648  18.474  0.00  0.00    +0.000 A 
ATOM     14  C   UNL     1       2.886   2.714  17.985  0.00  0.00    +0.000 A 
ATOM     15  C   UNL     1       4.016   3.139  17.287  0.00  0.00    +0.000 A 
ENDBRANCH   7  10
BRANCH   1  17
ATOM     16  N   UNL     1       5.801   1.616  11.466  0.00  0.00    +0.000 N 
ATOM     17  C   UNL     1       5.208   2.805  11.786  0.00  0.00    +0.000 C 
ATOM     18  O   UNL     1       4.156   3.145  11.261  0.00  0.00    +0.000 OA
ATOM     19  H   UNL     1       5.277   1.015  10.843  0.00  0.00    +0.000 HD
ATOM     20  H   UNL     1       6.499   1.186  12.056  0.00  0.00    +0.000 HD
ENDBRANCH   1  17
TORSDOF 2
ENDMDL
MODEL 2
REMARK VINA RESULT:      -7.5      0.070      1.141
REMARK  Name = 
REMARK  2 active torsions:
REMARK  status: ('A' for Active; 'I' for Inactive)
REMARK    1  A    between atoms: C_2  and  C_4
REMARK    2  A    between atoms: N_10  and  C_11
REMARK                            x       y       z     vdW  Elec       q    Type
REMARK                         _______ _______ _______ _____ _____    ______ ____
ROOT
ATOM      1  C   UNL     1       5.884   3.664  12.859  0.00  0.00    +0.000 A 
ATOM      2  C   UNL     1       7.134   4.260  12.660  0.00  0.00    +0.000 A 
ATOM      3  C   UNL     1       7.710   5.056  13.660  0.00  0.00    +0.000 A 
ATOM      4  C   UNL     1       7.026   5.238  14.874  0.00  0.00    +0.000 A 
ATOM      5  N   UNL     1       7.371   6.009  15.949  0.00  0.00    +0.000 NA
ATOM      6  C   UNL     1       6.379   5.867  16.800  0.00  0.00    +0.000 A 
ATOM      7  N   UNL     1       5.416   4.982  16.357  0.00  0.00    +0.000 N 
ATOM      8  C   UNL     1       5.800   4.608  15.074  0.00  0.00    +0.000 A 
ATOM      9  C   UNL     1       5.188   3.848  14.063  0.00  0.00    +0.000 A 
ENDROOT
BRANCH   7  10
ATOM     10  C   UNL     1       4.276   4.556  17.090  0.00  0.00    +0.000 A 
ATOM     11  C   UNL     1       4.059   3.192  17.325  0.00  0.00    +0.000 A 
ATOM     12  C   UNL     1       2.952   2.782  18.073  0.00  0.00    +0.000 A 
ATOM     13  C   UNL     1       2.049   3.722  18.568  0.00  0.00    +0.000 A 
ATOM     14  C   UNL     1       2.245   5.076  18.311  0.00  0.00    +0.000 A 
ATOM     15  C   UNL     1       3.353   5.493  17.573  0.00  0.00    +0.000 A 
ENDBRANCH   7  10
BRANCH   1  17
ATOM     16  N   UNL     1       5.830   1.660  11.473  0.00  0.00    +0.000 N 
ATOM     17  C   UNL     1       5.226   2.838  11.811  0.00  0.00    +0.000 C 
ATOM     18  O   UNL     1       4.162   3.167  11.304  0.00  0.00    +0.000 OA
ATOM     19  H   UNL     1       5.304   1.056  10.854  0.00  0.00    +0.000 HD
ATOM     20  H   UNL     1       6.542   1.234  12.049  0.00  0.00    +0.000 HD
ENDBRANCH   1  17
TORSDOF 2
ENDMDL
MODEL 3
REMARK VINA RESULT:      -7.5      3.463      7.034
REMARK  Name = 
REMARK  2 active torsions:
REMARK  status: ('A' for Active; 'I' for Inactive)
REMARK    1  A    between atoms: C_2  and  C_4
REMARK    2  A    between atoms: N_10  and  C_11
REMARK                            x       y       z     vdW  Elec       q    Type
REMARK                         _______ _______ _______ _____ _____    ______ ____
ROOT
ATOM      1  C   UNL     1       2.067   6.095  19.979  0.00  0.00    +0.000 A 
ATOM      2  C   UNL     1       1.304   5.160  20.687  0.00  0.00    +0.000 A 
ATOM      3  C   UNL     1       1.469   3.786  20.458  0.00  0.00    +0.000 A 
ATOM      4  C   UNL     1       2.422   3.355  19.520  0.00  0.00    +0.000 A 
ATOM      5  N   UNL     1       2.707   2.084  19.103  0.00  0.00    +0.000 NA
ATOM      6  C   UNL     1       3.640   2.229  18.189  0.00  0.00    +0.000 A 
ATOM      7  N   UNL     1       4.031   3.542  18.026  0.00  0.00    +0.000 N 
ATOM      8  C   UNL     1       3.203   4.295  18.849  0.00  0.00    +0.000 A 
ATOM      9  C   UNL     1       3.013   5.675  19.033  0.00  0.00    +0.000 A 
ENDROOT
BRANCH   7  10
ATOM     10  C   UNL     1       5.079   4.000  17.182  0.00  0.00    +0.000 A 
ATOM     11  C   UNL     1       6.302   4.404  17.732  0.00  0.00    +0.000 A 
ATOM     12  C   UNL     1       7.338   4.825  16.893  0.00  0.00    +0.000 A 
ATOM     13  C   UNL     1       7.153   4.867  15.512  0.00  0.00    +0.000 A 
ATOM     14  C   UNL     1       5.928   4.496  14.964  0.00  0.00    +0.000 A 
ATOM     15  C   UNL     1       4.893   4.066  15.794  0.00  0.00    +0.000 A 
ENDBRANCH   7  10
BRANCH   1  17
ATOM     16  N   UNL     1       1.750   8.010  21.453  0.00  0.00    +0.000 N 
ATOM     17  C   UNL     1       1.899   7.560  20.171  0.00  0.00    +0.000 C 
ATOM     18  O   UNL     1       1.942   8.344  19.232  0.00  0.00    +0.000 OA
ATOM     19  H   UNL     1       1.763   9.015  21.574  0.00  0.00    +0.000 HD
ATOM     20  H   UNL     1       1.978   7.439  22.254  0.00  0.00    +0.000 HD
ENDBRANCH   1  17
TORSDOF 2
ENDMDL
MODEL 4
REMARK VINA RESULT:      -7.4      3.472      7.044
REMARK  Name = 
REMARK  2 active torsions:
REMARK  status: ('A' for Active; 'I' for Inactive)
REMARK    1  A    between atoms: C_2  and  C_4
REMARK    2  A    between atoms: N_10  and  C_11
REMARK                            x       y       z     vdW  Elec       q    Type
REMARK                         _______ _______ _______ _____ _____    ______ ____
ROOT
ATOM      1  C   UNL     1       2.066   6.106  19.989  0.00  0.00    +0.000 A 
ATOM      2  C   UNL     1       1.309   5.171  20.701  0.00  0.00    +0.000 A 
ATOM      3  C   UNL     1       1.481   3.797  20.479  0.00  0.00    +0.000 A 
ATOM      4  C   UNL     1       2.435   3.366  19.541  0.00  0.00    +0.000 A 
ATOM      5  N   UNL     1       2.726   2.095  19.130  0.00  0.00    +0.000 NA
ATOM      6  C   UNL     1       3.657   2.240  18.214  0.00  0.00    +0.000 A 
ATOM      7  N   UNL     1       4.042   3.555  18.045  0.00  0.00    +0.000 N 
ATOM      8  C   UNL     1       3.211   4.307  18.866  0.00  0.00    +0.000 A 
ATOM      9  C   UNL     1       3.014   5.687  19.043  0.00  0.00    +0.000 A 
ENDROOT
BRANCH   7  10
ATOM     10  C   UNL     1       5.086   4.014  17.197  0.00  0.00    +0.000 A 
ATOM     11  C   UNL     1       4.898   4.063  15.810  0.00  0.00    +0.000 A 
ATOM     12  C   UNL     1       5.919   4.545  14.985  0.00  0.00    +0.000 A 
ATOM     13  C   UNL     1       7.133   4.955  15.535  0.00  0.00    +0.000 A 
ATOM     14  C   UNL     1       7.335   4.879  16.909  0.00  0.00    +0.000 A 
ATOM     15  C   UNL     1       6.317   4.408  17.740  0.00  0.00    +0.000 A 
ENDBRANCH   7  10
BRANCH   1  17
ATOM     16  N   UNL     1       1.749   8.027  21.455  0.00  0.00    +0.000 N 
ATOM     17  C   UNL     1       1.891   7.572  20.174  0.00  0.00    +0.000 C 
ATOM     18  O   UNL     1       1.923   8.350  19.230  0.00  0.00    +0.000 OA
ATOM     19  H   UNL     1       1.757   9.032  21.570  0.00  0.00    +0.000 HD
ATOM     20  H   UNL     1       1.987   7.462  22.257  0.00  0.00    +0.000 HD
ENDBRANCH   1  17
TORSDOF 2
ENDMDL
MODEL 5
REMARK VINA RESULT:      -7.3      0.942      1.556
REMARK  Name = 
REMARK  2 active torsions:
REMARK  status: ('A' for Active; 'I' for Inactive)
REMARK    1  A    between atoms: C_2  and  C_4
REMARK    2  A    between atoms: N_10  and  C_11
REMARK                            x       y       z     vdW  Elec       q    Type
REMARK                         _______ _______ _______ _____ _____    ______ ____
ROOT
ATOM      1  C   UNL     1       6.024   3.910  13.607  0.00  0.00    +0.000 A 
ATOM      2  C   UNL     1       7.202   4.655  13.721  0.00  0.00    +0.000 A 
ATOM      3  C   UNL     1       7.516   5.313  14.919  0.00  0.00    +0.000 A 
ATOM      4  C   UNL     1       6.640   5.205  16.012  0.00  0.00    +0.000 A 
ATOM      5  N   UNL     1       6.717   5.801  17.241  0.00  0.00    +0.000 NA
ATOM      6  C   UNL     1       5.635   5.410  17.876  0.00  0.00    +0.000 A 
ATOM      7  N   UNL     1       4.872   4.527  17.140  0.00  0.00    +0.000 N 
ATOM      8  C   UNL     1       5.488   4.428  15.898  0.00  0.00    +0.000 A 
ATOM      9  C   UNL     1       5.137   3.805  14.689  0.00  0.00    +0.000 A 
ENDROOT
BRANCH   7  10
ATOM     10  C   UNL     1       3.699   3.863  17.592  0.00  0.00    +0.000 A 
ATOM     11  C   UNL     1       3.745   2.505  17.932  0.00  0.00    +0.000 A 
ATOM     12  C   UNL     1       2.594   1.866  18.404  0.00  0.00    +0.000 A 
ATOM     13  C   UNL     1       1.395   2.569  18.516  0.00  0.00    +0.000 A 
ATOM     14  C   UNL     1       1.339   3.910  18.150  0.00  0.00    +0.000 A 
ATOM     15  C   UNL     1       2.485   4.557  17.687  0.00  0.00    +0.000 A 
ENDBRANCH   7  10
BRANCH   1  17
ATOM     16  N   UNL     1       6.505   2.282  11.858  0.00  0.00    +0.000 N 
ATOM     17  C   UNL     1       5.642   3.223  12.344  0.00  0.00    +0.000 C 
ATOM     18  O   UNL     1       4.577   3.448  11.784  0.00  0.00    +0.000 OA
ATOM     19  H   UNL     1       6.171   1.740  11.072  0.00  0.00    +0.000 HD
ATOM     20  H   UNL     1       7.241   1.883  12.423  0.00  0.00    +0.000 HD
ENDBRANCH   1  17
TORSDOF 2
ENDMDL
MODEL 6
REMARK VINA RESULT:      -7.3      0.959      1.124
REMARK  Name = 
REMARK  2 active torsions:
REMARK  status: ('A' for Active; 'I' for Inactive)
REMARK    1  A    between atoms: C_2  and  C_4
REMARK    2  A    between atoms: N_10  and  C_11
REMARK                            x       y       z     vdW  Elec       q    Type
REMARK                         _______ _______ _______ _____ _____    ______ ____
ROOT
ATOM      1  C   UNL     1       6.044   3.938  13.658  0.00  0.00    +0.000 A 
ATOM      2  C   UNL     1       7.225   4.679  13.774  0.00  0.00    +0.000 A 
ATOM      3  C   UNL     1       7.539   5.334  14.973  0.00  0.00    +0.000 A 
ATOM      4  C   UNL     1       6.662   5.230  16.065  0.00  0.00    +0.000 A 
ATOM      5  N   UNL     1       6.740   5.825  17.294  0.00  0.00    +0.000 NA
ATOM      6  C   UNL     1       5.656   5.438  17.928  0.00  0.00    +0.000 A 
ATOM      7  N   UNL     1       4.889   4.558  17.191  0.00  0.00    +0.000 N 
ATOM      8  C   UNL     1       5.507   4.458  15.950  0.00  0.00    +0.000 A 
ATOM      9  C   UNL     1       5.155   3.836  14.739  0.00  0.00    +0.000 A 
ENDROOT
BRANCH   7  10
ATOM     10  C   UNL     1       3.714   3.899  17.641  0.00  0.00    +0.000 A 
ATOM     11  C   UNL     1       2.502   4.597  17.722  0.00  0.00    +0.000 A 
ATOM     12  C   UNL     1       1.343   3.934  18.137  0.00  0.00    +0.000 A 
ATOM     13  C   UNL     1       1.392   2.587  18.492  0.00  0.00    +0.000 A 
ATOM     14  C   UNL     1       2.600   1.898  18.442  0.00  0.00    +0.000 A 
ATOM     15  C   UNL     1       3.759   2.551  18.020  0.00  0.00    +0.000 A 
ENDBRANCH   7  10
BRANCH   1  17
ATOM     16  N   UNL     1       6.560   2.374  11.863  0.00  0.00    +0.000 N 
ATOM     17  C   UNL     1       5.660   3.255  12.394  0.00  0.00    +0.000 C 
ATOM     18  O   UNL     1       4.566   3.427  11.873  0.00  0.00    +0.000 OA
ATOM     19  H   UNL     1       6.232   1.828  11.076  0.00  0.00    +0.000 HD
ATOM     20  H   UNL     1       7.336   2.009  12.395  0.00  0.00    +0.000 HD
ENDBRANCH   1  17
TORSDOF 2
ENDMDL
MODEL 7
REMARK VINA RESULT:      -7.2      3.962      5.975
REMARK  Name = 
REMARK  2 active torsions:
REMARK  status: ('A' for Active; 'I' for Inactive)
REMARK    1  A    between atoms: C_2  and  C_4
REMARK    2  A    between atoms: N_10  and  C_11
REMARK                            x       y       z     vdW  Elec       q    Type
REMARK                         _______ _______ _______ _____ _____    ______ ____
ROOT
ATOM      1  C   UNL     1       2.005   3.408  18.465  0.00  0.00    +0.000 A 
ATOM      2  C   UNL     1       3.116   2.842  17.831  0.00  0.00    +0.000 A 
ATOM      3  C   UNL     1       4.113   3.658  17.278  0.00  0.00    +0.000 A 
ATOM      4  C   UNL     1       3.994   5.054  17.380  0.00  0.00    +0.000 A 
ATOM      5  N   UNL     1       4.808   6.028  16.871  0.00  0.00    +0.000 NA
ATOM      6  C   UNL     1       4.233   7.161  17.208  0.00  0.00    +0.000 A 
ATOM      7  N   UNL     1       3.100   6.979  17.976  0.00  0.00    +0.000 N 
ATOM      8  C   UNL     1       2.901   5.606  18.048  0.00  0.00    +0.000 A 
ATOM      9  C   UNL     1       1.871   4.801  18.563  0.00  0.00    +0.000 A 
ENDROOT
BRANCH   7  10
ATOM     10  C   UNL     1       2.319   8.010  18.565  0.00  0.00    +0.000 A 
ATOM     11  C   UNL     1       1.944   9.128  17.810  0.00  0.00    +0.000 A 
ATOM     12  C   UNL     1       1.150  10.124  18.388  0.00  0.00    +0.000 A 
ATOM     13  C   UNL     1       0.750  10.020  19.720  0.00  0.00    +0.000 A 
ATOM     14  C   UNL     1       1.147   8.925  20.482  0.00  0.00    +0.000 A 
ATOM     15  C   UNL     1       1.931   7.923  19.909  0.00  0.00    +0.000 A 
ENDBRANCH   7  10
BRANCH   1  17
ATOM     16  N   UNL     1       0.663   2.705  20.373  0.00  0.00    +0.000 N 
ATOM     17  C   UNL     1       0.912   2.576  19.036  0.00  0.00    +0.000 C 
ATOM     18  O   UNL     1       0.225   1.844  18.336  0.00  0.00    +0.000 OA
ATOM     19  H   UNL     1      -0.162   2.228  20.717  0.00  0.00    +0.000 HD
ATOM     20  H   UNL     1       1.016   3.480  20.916  0.00  0.00    +0.000 HD
ENDBRANCH   1  17
TORSDOF 2
ENDMDL
MODEL 8
REMARK VINA RESULT:      -7.2      3.969      6.035
REMARK  Name = 
REMARK  2 active torsions:
REMARK  status: ('A' for Active; 'I' for Inactive)
REMARK    1  A    between atoms: C_2  and  C_4
REMARK    2  A    between atoms: N_10  and  C_11
REMARK                            x       y       z     vdW  Elec       q    Type
REMARK                         _______ _______ _______ _____ _____    ______ ____
ROOT
ATOM      1  C   UNL     1       1.971   3.429  18.453  0.00  0.00    +0.000 A 
ATOM      2  C   UNL     1       3.078   2.864  17.813  0.00  0.00    +0.000 A 
ATOM      3  C   UNL     1       4.076   3.681  17.263  0.00  0.00    +0.000 A 
ATOM      4  C   UNL     1       3.961   5.077  17.373  0.00  0.00    +0.000 A 
ATOM      5  N   UNL     1       4.776   6.052  16.868  0.00  0.00    +0.000 NA
ATOM      6  C   UNL     1       4.205   7.184  17.214  0.00  0.00    +0.000 A 
ATOM      7  N   UNL     1       3.074   7.000  17.984  0.00  0.00    +0.000 N 
ATOM      8  C   UNL     1       2.872   5.627  18.048  0.00  0.00    +0.000 A 
ATOM      9  C   UNL     1       1.840   4.822  18.560  0.00  0.00    +0.000 A 
ENDROOT
BRANCH   7  10
ATOM     10  C   UNL     1       2.297   8.029  18.582  0.00  0.00    +0.000 A 
ATOM     11  C   UNL     1       1.901   7.925  19.921  0.00  0.00    +0.000 A 
ATOM     12  C   UNL     1       1.162   8.955  20.511  0.00  0.00    +0.000 A 
ATOM     13  C   UNL     1       0.799  10.076  19.766  0.00  0.00    +0.000 A 
ATOM     14  C   UNL     1       1.165  10.169  18.427  0.00  0.00    +0.000 A 
ATOM     15  C   UNL     1       1.910   9.149  17.834  0.00  0.00    +0.000 A 
ENDBRANCH   7  10
BRANCH   1  17
ATOM     16  N   UNL     1       0.593   2.759  20.349  0.00  0.00    +0.000 N 
ATOM     17  C   UNL     1       0.876   2.597  19.022  0.00  0.00    +0.000 C 
ATOM     18  O   UNL     1       0.217   1.834  18.327  0.00  0.00    +0.000 OA
ATOM     19  H   UNL     1      -0.232   2.280  20.686  0.00  0.00    +0.000 HD
ATOM     20  H   UNL     1       0.922   3.555  20.877  0.00  0.00    +0.000 HD
ENDBRANCH   1  17
TORSDOF 2
ENDMDL
MODEL 9
REMARK VINA RESULT:      -7.1      3.449      5.028
REMARK  Name = 
REMARK  2 active torsions:
REMARK  status: ('A' for Active; 'I' for Inactive)
REMARK    1  A    between atoms: C_2  and  C_4
REMARK    2  A    between atoms: N_10  and  C_11
REMARK                            x       y       z     vdW  Elec       q    Type
REMARK                         _______ _______ _______ _____ _____    ______ ____
ROOT
ATOM      1  C   UNL     1       6.970   5.635  18.142  0.00  0.00    +0.000 A 
ATOM      2  C   UNL     1       7.147   5.656  16.755  0.00  0.00    +0.000 A 
ATOM      3  C   UNL     1       6.208   5.050  15.908  0.00  0.00    +0.000 A 
ATOM      4  C   UNL     1       5.077   4.431  16.466  0.00  0.00    +0.000 A 
ATOM      5  N   UNL     1       4.077   3.740  15.840  0.00  0.00    +0.000 NA
ATOM      6  C   UNL     1       3.289   3.331  16.810  0.00  0.00    +0.000 A 
ATOM      7  N   UNL     1       3.694   3.777  18.052  0.00  0.00    +0.000 N 
ATOM      8  C   UNL     1       4.892   4.450  17.847  0.00  0.00    +0.000 A 
ATOM      9  C   UNL     1       5.849   5.011  18.710  0.00  0.00    +0.000 A 
ENDROOT
BRANCH   7  10
ATOM     10  C   UNL     1       2.999   3.577  19.276  0.00  0.00    +0.000 A 
ATOM     11  C   UNL     1       1.804   4.264  19.528  0.00  0.00    +0.000 A 
ATOM     12  C   UNL     1       1.110   4.039  20.721  0.00  0.00    +0.000 A 
ATOM     13  C   UNL     1       1.614   3.153  21.672  0.00  0.00    +0.000 A 
ATOM     14  C   UNL     1       2.817   2.493  21.438  0.00  0.00    +0.000 A 
ATOM     15  C   UNL     1       3.509   2.705  20.246  0.00  0.00    +0.000 A 
ENDBRANCH   7  10
BRANCH   1  17
ATOM     16  N   UNL     1       8.321   5.500  20.166  0.00  0.00    +0.000 N 
ATOM     17  C   UNL     1       7.959   6.239  19.075  0.00  0.00    +0.000 C 
ATOM     18  O   UNL     1       8.470   7.329  18.856  0.00  0.00    +0.000 OA
ATOM     19  H   UNL     1       9.084   5.872  20.718  0.00  0.00    +0.000 HD
ATOM     20  H   UNL     1       8.134   4.510  20.233  0.00  0.00    +0.000 HD
ENDBRANCH   1  17
TORSDOF 2
ENDMDL
