MODEL 1
REMARK VINA RESULT:      -9.7      0.000      0.000
REMARK  Name = 
REMARK  7 active torsions:
REMARK  status: ('A' for Active; 'I' for Inactive)
REMARK    1  A    between atoms: N_1  and  C_2
REMARK    2  A    between atoms: C_8  and  C_9
REMARK    3  A    between atoms: C_14  and  O_15
REMARK    4  A    between atoms: O_15  and  C_16
REMARK    5  A    between atoms: C_16  and  C_17
REMARK    6  A    between atoms: N_29  and  C_30
REMARK    7  A    between atoms: C_30  and  C_31
REMARK                            x       y       z     vdW  Elec       q    Type
REMARK                         _______ _______ _______ _____ _____    ______ ____
ROOT
ATOM      1  C   UNL     1       1.745   3.554  19.444  0.00  0.00    +0.000 A 
ATOM      2  N   UNL     1       1.932   2.221  19.491  0.00  0.00    +0.000 NA
ATOM      3  C   UNL     1       2.872   1.674  18.700  0.00  0.00    +0.000 A 
ATOM      4  N   UNL     1       3.659   2.294  17.809  0.00  0.00    +0.000 NA
ATOM      5  C   UNL     1       3.445   3.623  17.799  0.00  0.00    +0.000 A 
ATOM      6  C   UNL     1       2.557   4.329  18.598  0.00  0.00    +0.000 A 
ATOM      7  C   UNL     1       2.822   5.712  18.305  0.00  0.00    +0.000 A 
ATOM      8  N   UNL     1       3.709   5.820  17.290  0.00  0.00    +0.000 NA
ATOM      9  N   UNL     1       4.082   4.547  17.015  0.00  0.00    +0.000 N 
ENDROOT
BRANCH   7  10
ATOM     10  C   UNL     1       2.358   6.924  19.015  0.00  0.00    +0.000 A 
ATOM     11  C   UNL     1       2.128   6.922  20.395  0.00  0.00    +0.000 A 
ATOM     12  C   UNL     1       1.368   7.951  20.990  0.00  0.00    +0.000 A 
ATOM     13  C   UNL     1       0.926   9.062  20.227  0.00  0.00    +0.000 A 
ATOM     14  C   UNL     1      -0.097   9.981  20.563  0.00  0.00    +0.000 A 
ATOM     15  C   UNL     1      -0.459  11.001  19.671  0.00  0.00    +0.000 A 
ATOM     16  C   UNL     1       0.511  11.432  18.791  0.00  0.00    +0.000 A 
ATOM     17  C   UNL     1       1.357  10.449  18.299  0.00  0.00    +0.000 A 
ATOM     18  C   UNL     1       1.458   9.210  18.946  0.00  0.00    +0.000 A 
ATOM     19  C   UNL     1       2.023   8.091  18.322  0.00  0.00    +0.000 A 
BRANCH  15  20
ATOM     20  O   UNL     1      -1.644  10.697  18.941  0.00  0.00    +0.000 OA
BRANCH  20  21
ATOM     21  C   UNL     1      -2.492  11.788  18.592  0.00  0.00    +0.000 C 
BRANCH  21  22
ATOM     22  C   UNL     1      -3.994  11.815  18.910  0.00  0.00    +0.000 A 
ATOM     23  C   UNL     1      -4.813  11.060  18.038  0.00  0.00    +0.000 A 
ATOM     24  C   UNL     1      -6.205  11.054  18.135  0.00  0.00    +0.000 A 
ATOM     25  C   UNL     1      -6.827  11.810  19.116  0.00  0.00    +0.000 A 
ATOM     26  C   UNL     1      -6.044  12.572  19.987  0.00  0.00    +0.000 A 
ATOM     27 CL   UNL     1      -6.841  13.510  21.193  0.00  0.00    +0.000 Cl
ATOM     28  C   UNL     1      -4.639  12.592  19.884  0.00  0.00    +0.000 A 
ENDBRANCH  21  22
ENDBRANCH  20  21
ENDBRANCH  15  20
ENDBRANCH   7  10
BRANCH   1  29
ATOM     29  N   UNL     1       0.716   4.037  20.240  0.00  0.00    +0.000 N 
ATOM     30  H   UNL     1       0.951   3.962  21.223  0.00  0.00    +0.000 HD
ATOM     31  H   UNL     1      -0.207   3.710  19.982  0.00  0.00    +0.000 HD
ENDBRANCH   1  29
BRANCH   9  32
ATOM     32  C   UNL     1       5.261   4.304  16.211  0.00  0.00    +0.000 C 
BRANCH  32  33
ATOM     33  C   UNL     1       6.669   4.578  16.789  0.00  0.00    +0.000 C 
ATOM     34  C   UNL     1       6.829   4.379  18.307  0.00  0.00    +0.000 C 
ATOM     35  C   UNL     1       6.918   5.649  19.157  0.00  0.00    +0.000 C 
ATOM     36  N   UNL     1       7.668   6.741  18.536  0.00  0.00    +0.000 NA
ATOM     37  C   UNL     1       7.116   7.054  17.221  0.00  0.00    +0.000 C 
ATOM     38  C   UNL     1       7.317   5.874  16.282  0.00  0.00    +0.000 C 
ATOM     39  H   UNL     1       8.649   6.480  18.441  0.00  0.00    +0.000 HD
ENDBRANCH  32  33
ENDBRANCH   9  32
TORSDOF 7
ENDMDL
MODEL 2
REMARK VINA RESULT:      -9.2      1.500      2.051
REMARK  Name = 
REMARK  7 active torsions:
REMARK  status: ('A' for Active; 'I' for Inactive)
REMARK    1  A    between atoms: N_1  and  C_2
REMARK    2  A    between atoms: C_8  and  C_9
REMARK    3  A    between atoms: C_14  and  O_15
REMARK    4  A    between atoms: O_15  and  C_16
REMARK    5  A    between atoms: C_16  and  C_17
REMARK    6  A    between atoms: N_29  and  C_30
REMARK    7  A    between atoms: C_30  and  C_31
REMARK                            x       y       z     vdW  Elec       q    Type
REMARK                         _______ _______ _______ _____ _____    ______ ____
ROOT
ATOM      1  C   UNL     1       1.585   3.687  19.444  0.00  0.00    +0.000 A 
ATOM      2  N   UNL     1       1.728   2.348  19.440  0.00  0.00    +0.000 NA
ATOM      3  C   UNL     1       2.638   1.800  18.616  0.00  0.00    +0.000 A 
ATOM      4  N   UNL     1       3.433   2.425  17.735  0.00  0.00    +0.000 NA
ATOM      5  C   UNL     1       3.263   3.759  17.776  0.00  0.00    +0.000 A 
ATOM      6  C   UNL     1       2.411   4.465  18.613  0.00  0.00    +0.000 A 
ATOM      7  C   UNL     1       2.718   5.848  18.365  0.00  0.00    +0.000 A 
ATOM      8  N   UNL     1       3.594   5.963  17.342  0.00  0.00    +0.000 NA
ATOM      9  N   UNL     1       3.919   4.689  17.015  0.00  0.00    +0.000 N 
ENDROOT
BRANCH   7  10
ATOM     10  C   UNL     1       2.306   7.049  19.125  0.00  0.00    +0.000 A 
ATOM     11  C   UNL     1       2.065   6.998  20.502  0.00  0.00    +0.000 A 
ATOM     12  C   UNL     1       1.349   8.034  21.137  0.00  0.00    +0.000 A 
ATOM     13  C   UNL     1       0.965   9.197  20.420  0.00  0.00    +0.000 A 
ATOM     14  C   UNL     1      -0.017  10.147  20.791  0.00  0.00    +0.000 A 
ATOM     15  C   UNL     1      -0.325  11.221  19.942  0.00  0.00    +0.000 A 
ATOM     16  C   UNL     1       0.672  11.644  19.087  0.00  0.00    +0.000 A 
ATOM     17  C   UNL     1       1.474  10.644  18.558  0.00  0.00    +0.000 A 
ATOM     18  C   UNL     1       1.514   9.375  19.151  0.00  0.00    +0.000 A 
ATOM     19  C   UNL     1       2.030   8.259  18.481  0.00  0.00    +0.000 A 
BRANCH  15  20
ATOM     20  O   UNL     1      -1.516  11.004  19.193  0.00  0.00    +0.000 OA
BRANCH  20  21
ATOM     21  C   UNL     1      -2.560  11.964  19.337  0.00  0.00    +0.000 C 
BRANCH  21  22
ATOM     22  C   UNL     1      -2.775  12.782  20.619  0.00  0.00    +0.000 A 
ATOM     23  C   UNL     1      -2.262  14.100  20.591  0.00  0.00    +0.000 A 
ATOM     24  C   UNL     1      -2.295  14.940  21.705  0.00  0.00    +0.000 A 
ATOM     25  C   UNL     1      -2.847  14.484  22.892  0.00  0.00    +0.000 A 
ATOM     26  C   UNL     1      -3.355  13.184  22.950  0.00  0.00    +0.000 A 
ATOM     27 CL   UNL     1      -4.029  12.635  24.439  0.00  0.00    +0.000 Cl
ATOM     28  C   UNL     1      -3.311  12.326  21.832  0.00  0.00    +0.000 A 
ENDBRANCH  21  22
ENDBRANCH  20  21
ENDBRANCH  15  20
ENDBRANCH   7  10
BRANCH   1  29
ATOM     29  N   UNL     1       0.585   4.176  20.273  0.00  0.00    +0.000 N 
ATOM     30  H   UNL     1       0.879   4.167  21.242  0.00  0.00    +0.000 HD
ATOM     31  H   UNL     1      -0.337   3.799  20.089  0.00  0.00    +0.000 HD
ENDBRANCH   1  29
BRANCH   9  32
ATOM     32  C   UNL     1       5.078   4.437  16.185  0.00  0.00    +0.000 C 
BRANCH  32  33
ATOM     33  C   UNL     1       6.503   4.589  16.767  0.00  0.00    +0.000 C 
ATOM     34  C   UNL     1       6.644   4.361  18.283  0.00  0.00    +0.000 C 
ATOM     35  C   UNL     1       6.834   5.611  19.147  0.00  0.00    +0.000 C 
ATOM     36  N   UNL     1       7.671   6.646  18.538  0.00  0.00    +0.000 NA
ATOM     37  C   UNL     1       7.147   7.016  17.226  0.00  0.00    +0.000 C 
ATOM     38  C   UNL     1       7.254   5.835  16.275  0.00  0.00    +0.000 C 
ATOM     39  H   UNL     1       8.627   6.308  18.440  0.00  0.00    +0.000 HD
ENDBRANCH  32  33
ENDBRANCH   9  32
TORSDOF 7
ENDMDL
MODEL 3
REMARK VINA RESULT:      -9.1      3.329      4.565
REMARK  Name = 
REMARK  7 active torsions:
REMARK  status: ('A' for Active; 'I' for Inactive)
REMARK    1  A    between atoms: N_1  and  C_2
REMARK    2  A    between atoms: C_8  and  C_9
REMARK    3  A    between atoms: C_14  and  O_15
REMARK    4  A    between atoms: O_15  and  C_16
REMARK    5  A    between atoms: C_16  and  C_17
REMARK    6  A    between atoms: N_29  and  C_30
REMARK    7  A    between atoms: C_30  and  C_31
REMARK                            x       y       z     vdW  Elec       q    Type
REMARK                         _______ _______ _______ _____ _____    ______ ____
ROOT
ATOM      1  C   UNL     1       2.057   3.811  19.929  0.00  0.00    +0.000 A 
ATOM      2  N   UNL     1       2.303   2.586  20.432  0.00  0.00    +0.000 NA
ATOM      3  C   UNL     1       3.581   2.209  20.615  0.00  0.00    +0.000 A 
ATOM      4  N   UNL     1       4.692   2.899  20.322  0.00  0.00    +0.000 NA
ATOM      5  C   UNL     1       4.402   4.117  19.829  0.00  0.00    +0.000 A 
ATOM      6  C   UNL     1       3.140   4.661  19.643  0.00  0.00    +0.000 A 
ATOM      7  C   UNL     1       3.383   6.021  19.241  0.00  0.00    +0.000 A 
ATOM      8  N   UNL     1       4.707   6.231  19.059  0.00  0.00    +0.000 NA
ATOM      9  N   UNL     1       5.300   5.073  19.435  0.00  0.00    +0.000 N 
ENDROOT
BRANCH   7  10
ATOM     10  C   UNL     1       2.433   7.149  19.134  0.00  0.00    +0.000 A 
ATOM     11  C   UNL     1       2.129   7.736  17.901  0.00  0.00    +0.000 A 
ATOM     12  C   UNL     1       1.513   9.004  17.850  0.00  0.00    +0.000 A 
ATOM     13  C   UNL     1       1.085   9.652  19.037  0.00  0.00    +0.000 A 
ATOM     14  C   UNL     1       0.772  11.023  19.201  0.00  0.00    +0.000 A 
ATOM     15  C   UNL     1       0.415  11.527  20.461  0.00  0.00    +0.000 A 
ATOM     16  C   UNL     1      -0.158  10.639  21.346  0.00  0.00    +0.000 A 
ATOM     17  C   UNL     1       0.346   9.347  21.315  0.00  0.00    +0.000 A 
ATOM     18  C   UNL     1       1.086   8.900  20.212  0.00  0.00    +0.000 A 
ATOM     19  C   UNL     1       1.884   7.751  20.271  0.00  0.00    +0.000 A 
BRANCH  15  20
ATOM     20  O   UNL     1       1.492  12.196  21.109  0.00  0.00    +0.000 OA
BRANCH  20  21
ATOM     21  C   UNL     1       1.484  13.621  21.083  0.00  0.00    +0.000 C 
BRANCH  21  22
ATOM     22  C   UNL     1       1.960  14.439  19.874  0.00  0.00    +0.000 A 
ATOM     23  C   UNL     1       3.148  13.978  19.259  0.00  0.00    +0.000 A 
ATOM     24  C   UNL     1       3.761  14.661  18.208  0.00  0.00    +0.000 A 
ATOM     25  C   UNL     1       3.200  15.838  17.735  0.00  0.00    +0.000 A 
ATOM     26  C   UNL     1       2.031  16.321  18.328  0.00  0.00    +0.000 A 
ATOM     27 CL   UNL     1       1.357  17.790  17.729  0.00  0.00    +0.000 Cl
ATOM     28  C   UNL     1       1.416  15.642  19.399  0.00  0.00    +0.000 A 
ENDBRANCH  21  22
ENDBRANCH  20  21
ENDBRANCH  15  20
ENDBRANCH   7  10
BRANCH   1  29
ATOM     29  N   UNL     1       0.719   4.106  19.709  0.00  0.00    +0.000 N 
ATOM     30  H   UNL     1       0.586   4.535  18.801  0.00  0.00    +0.000 HD
ATOM     31  H   UNL     1       0.255   4.563  20.485  0.00  0.00    +0.000 HD
ENDBRANCH   1  29
BRANCH   9  32
ATOM     32  C   UNL     1       6.726   5.047  19.683  0.00  0.00    +0.000 C 
BRANCH  32  33
ATOM     33  C   UNL     1       7.722   5.387  18.550  0.00  0.00    +0.000 C 
ATOM     34  C   UNL     1       7.870   6.881  18.204  0.00  0.00    +0.000 C 
ATOM     35  C   UNL     1       7.203   7.351  16.908  0.00  0.00    +0.000 C 
ATOM     36  N   UNL     1       7.278   6.390  15.807  0.00  0.00    +0.000 NA
ATOM     37  C   UNL     1       6.727   5.102  16.217  0.00  0.00    +0.000 C 
ATOM     38  C   UNL     1       7.593   4.493  17.308  0.00  0.00    +0.000 C 
ATOM     39  H   UNL     1       8.247   6.270  15.515  0.00  0.00    +0.000 HD
ENDBRANCH  32  33
ENDBRANCH   9  32
TORSDOF 7
ENDMDL
MODEL 4
REMARK VINA RESULT:      -9.1      3.437      5.644
REMARK  Name = 
REMARK  7 active torsions:
REMARK  status: ('A' for Active; 'I' for Inactive)
REMARK    1  A    between atoms: N_1  and  C_2
REMARK    2  A    between atoms: C_8  and  C_9
REMARK    3  A    between atoms: C_14  and  O_15
REMARK    4  A    between atoms: O_15  and  C_16
REMARK    5  A    between atoms: C_16  and  C_17
REMARK    6  A    between atoms: N_29  and  C_30
REMARK    7  A    between atoms: C_30  and  C_31
REMARK                            x       y       z     vdW  Elec       q    Type
REMARK                         _______ _______ _______ _____ _____    ______ ____
ROOT
ATOM      1  C   UNL     1       5.066   6.382  16.505  0.00  0.00    +0.000 A 
ATOM      2  N   UNL     1       5.906   5.639  15.760  0.00  0.00    +0.000 NA
ATOM      3  C   UNL     1       6.262   4.422  16.209  0.00  0.00    +0.000 A 
ATOM      4  N   UNL     1       5.907   3.835  17.361  0.00  0.00    +0.000 NA
ATOM      5  C   UNL     1       5.063   4.607  18.071  0.00  0.00    +0.000 A 
ATOM      6  C   UNL     1       4.566   5.850  17.707  0.00  0.00    +0.000 A 
ATOM      7  C   UNL     1       3.603   6.171  18.726  0.00  0.00    +0.000 A 
ATOM      8  N   UNL     1       3.631   5.247  19.713  0.00  0.00    +0.000 NA
ATOM      9  N   UNL     1       4.508   4.306  19.286  0.00  0.00    +0.000 N 
ENDROOT
BRANCH   7  10
ATOM     10  C   UNL     1       2.589   7.248  18.749  0.00  0.00    +0.000 A 
ATOM     11  C   UNL     1       2.154   7.871  17.575  0.00  0.00    +0.000 A 
ATOM     12  C   UNL     1       1.471   9.103  17.635  0.00  0.00    +0.000 A 
ATOM     13  C   UNL     1       1.108   9.672  18.882  0.00  0.00    +0.000 A 
ATOM     14  C   UNL     1       0.737  11.015  19.137  0.00  0.00    +0.000 A 
ATOM     15  C   UNL     1       0.459  11.441  20.444  0.00  0.00    +0.000 A 
ATOM     16  C   UNL     1       0.007  10.483  21.328  0.00  0.00    +0.000 A 
ATOM     17  C   UNL     1       0.574   9.225  21.193  0.00  0.00    +0.000 A 
ATOM     18  C   UNL     1       1.244   8.870  20.015  0.00  0.00    +0.000 A 
ATOM     19  C   UNL     1       2.104   7.766  19.954  0.00  0.00    +0.000 A 
BRANCH  15  20
ATOM     20  O   UNL     1       1.548  12.141  21.038  0.00  0.00    +0.000 OA
BRANCH  20  21
ATOM     21  C   UNL     1       1.509  13.565  20.994  0.00  0.00    +0.000 C 
BRANCH  21  22
ATOM     22  C   UNL     1       1.998  14.380  19.789  0.00  0.00    +0.000 A 
ATOM     23  C   UNL     1       3.180  13.904  19.174  0.00  0.00    +0.000 A 
ATOM     24  C   UNL     1       3.805  14.582  18.126  0.00  0.00    +0.000 A 
ATOM     25  C   UNL     1       3.261  15.767  17.656  0.00  0.00    +0.000 A 
ATOM     26  C   UNL     1       2.098  16.265  18.249  0.00  0.00    +0.000 A 
ATOM     27 CL   UNL     1       1.445  17.745  17.653  0.00  0.00    +0.000 Cl
ATOM     28  C   UNL     1       1.471  15.591  19.317  0.00  0.00    +0.000 A 
ENDBRANCH  21  22
ENDBRANCH  20  21
ENDBRANCH  15  20
ENDBRANCH   7  10
BRANCH   1  29
ATOM     29  N   UNL     1       4.794   7.650  16.010  0.00  0.00    +0.000 N 
ATOM     30  H   UNL     1       4.565   7.613  15.024  0.00  0.00    +0.000 HD
ATOM     31  H   UNL     1       5.464   8.361  16.280  0.00  0.00    +0.000 HD
ENDBRANCH   1  29
BRANCH   9  32
ATOM     32  C   UNL     1       4.540   3.011  19.932  0.00  0.00    +0.000 C 
BRANCH  32  33
ATOM     33  C   UNL     1       3.244   2.178  20.075  0.00  0.00    +0.000 C 
ATOM     34  C   UNL     1       2.371   2.062  18.812  0.00  0.00    +0.000 C 
ATOM     35  C   UNL     1       1.087   2.896  18.791  0.00  0.00    +0.000 C 
ATOM     36  N   UNL     1       0.403   2.985  20.081  0.00  0.00    +0.000 NA
ATOM     37  C   UNL     1       1.312   3.489  21.106  0.00  0.00    +0.000 C 
ATOM     38  C   UNL     1       2.432   2.487  21.340  0.00  0.00    +0.000 C 
ATOM     39  H   UNL     1       0.055   2.068  20.355  0.00  0.00    +0.000 HD
ENDBRANCH  32  33
ENDBRANCH   9  32
TORSDOF 7
ENDMDL
MODEL 5
REMARK VINA RESULT:      -9.0      0.781      1.190
REMARK  Name = 
REMARK  7 active torsions:
REMARK  status: ('A' for Active; 'I' for Inactive)
REMARK    1  A    between atoms: N_1  and  C_2
REMARK    2  A    between atoms: C_8  and  C_9
REMARK    3  A    between atoms: C_14  and  O_15
REMARK    4  A    between atoms: O_15  and  C_16
REMARK    5  A    between atoms: C_16  and  C_17
REMARK    6  A    between atoms: N_29  and  C_30
REMARK    7  A    between atoms: C_30  and  C_31
REMARK                            x       y       z     vdW  Elec       q    Type
REMARK                         _______ _______ _______ _____ _____    ______ ____
ROOT
ATOM      1  C   UNL     1       1.855   3.636  19.386  0.00  0.00    +0.000 A 
ATOM      2  N   UNL     1       2.039   2.305  19.487  0.00  0.00    +0.000 NA
ATOM      3  C   UNL     1       2.985   1.726  18.727  0.00  0.00    +0.000 A 
ATOM      4  N   UNL     1       3.781   2.308  17.819  0.00  0.00    +0.000 NA
ATOM      5  C   UNL     1       3.570   3.635  17.755  0.00  0.00    +0.000 A 
ATOM      6  C   UNL     1       2.677   4.374  18.516  0.00  0.00    +0.000 A 
ATOM      7  C   UNL     1       2.947   5.744  18.170  0.00  0.00    +0.000 A 
ATOM      8  N   UNL     1       3.844   5.810  17.160  0.00  0.00    +0.000 NA
ATOM      9  N   UNL     1       4.216   4.526  16.939  0.00  0.00    +0.000 N 
ENDROOT
BRANCH   7  10
ATOM     10  C   UNL     1       2.480   6.985  18.827  0.00  0.00    +0.000 A 
ATOM     11  C   UNL     1       1.940   6.973  20.118  0.00  0.00    +0.000 A 
ATOM     12  C   UNL     1       1.192   8.073  20.585  0.00  0.00    +0.000 A 
ATOM     13  C   UNL     1       1.073   9.253  19.808  0.00  0.00    +0.000 A 
ATOM     14  C   UNL     1       0.116  10.286  19.959  0.00  0.00    +0.000 A 
ATOM     15  C   UNL     1       0.093  11.371  19.069  0.00  0.00    +0.000 A 
ATOM     16  C   UNL     1       1.284  11.698  18.455  0.00  0.00    +0.000 A 
ATOM     17  C   UNL     1       2.097  10.629  18.110  0.00  0.00    +0.000 A 
ATOM     18  C   UNL     1       1.899   9.369  18.691  0.00  0.00    +0.000 A 
ATOM     19  C   UNL     1       2.455   8.205  18.145  0.00  0.00    +0.000 A 
BRANCH  15  20
ATOM     20  O   UNL     1      -0.919  11.243  18.075  0.00  0.00    +0.000 OA
BRANCH  20  21
ATOM     21  C   UNL     1      -2.189  10.751  18.497  0.00  0.00    +0.000 C 
BRANCH  21  22
ATOM     22  C   UNL     1      -3.333  11.668  18.953  0.00  0.00    +0.000 A 
ATOM     23  C   UNL     1      -3.010  12.568  19.997  0.00  0.00    +0.000 A 
ATOM     24  C   UNL     1      -3.960  13.404  20.585  0.00  0.00    +0.000 A 
ATOM     25  C   UNL     1      -5.274  13.365  20.145  0.00  0.00    +0.000 A 
ATOM     26  C   UNL     1      -5.623  12.481  19.121  0.00  0.00    +0.000 A 
ATOM     27 CL   UNL     1      -7.264  12.445  18.596  0.00  0.00    +0.000 Cl
ATOM     28  C   UNL     1      -4.670  11.625  18.533  0.00  0.00    +0.000 A 
ENDBRANCH  21  22
ENDBRANCH  20  21
ENDBRANCH  15  20
ENDBRANCH   7  10
BRANCH   1  29
ATOM     29  N   UNL     1       0.821   4.153  20.152  0.00  0.00    +0.000 N 
ATOM     30  H   UNL     1       1.174   4.569  21.005  0.00  0.00    +0.000 HD
ATOM     31  H   UNL     1       0.025   3.534  20.261  0.00  0.00    +0.000 HD
ENDBRANCH   1  29
BRANCH   9  32
ATOM     32  C   UNL     1       5.401   4.249  16.156  0.00  0.00    +0.000 C 
BRANCH  32  33
ATOM     33  C   UNL     1       6.802   4.608  16.707  0.00  0.00    +0.000 C 
ATOM     34  C   UNL     1       7.024   4.354  18.209  0.00  0.00    +0.000 C 
ATOM     35  C   UNL     1       7.041   5.589  19.115  0.00  0.00    +0.000 C 
ATOM     36  N   UNL     1       7.683   6.764  18.524  0.00  0.00    +0.000 NA
ATOM     37  C   UNL     1       7.067   7.089  17.242  0.00  0.00    +0.000 C 
ATOM     38  C   UNL     1       7.330   5.973  16.243  0.00  0.00    +0.000 C 
ATOM     39  H   UNL     1       8.677   6.586  18.390  0.00  0.00    +0.000 HD
ENDBRANCH  32  33
ENDBRANCH   9  32
TORSDOF 7
ENDMDL
MODEL 6
REMARK VINA RESULT:      -8.9      3.586      5.824
REMARK  Name = 
REMARK  7 active torsions:
REMARK  status: ('A' for Active; 'I' for Inactive)
REMARK    1  A    between atoms: N_1  and  C_2
REMARK    2  A    between atoms: C_8  and  C_9
REMARK    3  A    between atoms: C_14  and  O_15
REMARK    4  A    between atoms: O_15  and  C_16
REMARK    5  A    between atoms: C_16  and  C_17
REMARK    6  A    between atoms: N_29  and  C_30
REMARK    7  A    between atoms: C_30  and  C_31
REMARK                            x       y       z     vdW  Elec       q    Type
REMARK                         _______ _______ _______ _____ _____    ______ ____
ROOT
ATOM      1  C   UNL     1       5.819   6.621  17.218  0.00  0.00    +0.000 A 
ATOM      2  N   UNL     1       6.844   5.974  16.631  0.00  0.00    +0.000 NA
ATOM      3  C   UNL     1       7.096   4.703  16.991  0.00  0.00    +0.000 A 
ATOM      4  N   UNL     1       6.462   3.970  17.917  0.00  0.00    +0.000 NA
ATOM      5  C   UNL     1       5.442   4.650  18.473  0.00  0.00    +0.000 A 
ATOM      6  C   UNL     1       5.030   5.937  18.160  0.00  0.00    +0.000 A 
ATOM      7  C   UNL     1       3.824   6.130  18.920  0.00  0.00    +0.000 A 
ATOM      8  N   UNL     1       3.611   5.080  19.744  0.00  0.00    +0.000 NA
ATOM      9  N   UNL     1       4.590   4.195  19.444  0.00  0.00    +0.000 N 
ENDROOT
BRANCH   7  10
ATOM     10  C   UNL     1       2.816   7.207  18.816  0.00  0.00    +0.000 A 
ATOM     11  C   UNL     1       2.588   7.885  17.614  0.00  0.00    +0.000 A 
ATOM     12  C   UNL     1       1.898   9.115  17.612  0.00  0.00    +0.000 A 
ATOM     13  C   UNL     1       1.320   9.626  18.802  0.00  0.00    +0.000 A 
ATOM     14  C   UNL     1       0.904  10.957  19.051  0.00  0.00    +0.000 A 
ATOM     15  C   UNL     1       0.400  11.322  20.308  0.00  0.00    +0.000 A 
ATOM     16  C   UNL     1      -0.193  10.326  21.055  0.00  0.00    +0.000 A 
ATOM     17  C   UNL     1       0.396   9.073  20.962  0.00  0.00    +0.000 A 
ATOM     18  C   UNL     1       1.262   8.772  19.903  0.00  0.00    +0.000 A 
ATOM     19  C   UNL     1       2.125   7.670  19.941  0.00  0.00    +0.000 A 
BRANCH  15  20
ATOM     20  O   UNL     1       1.366  11.991  21.113  0.00  0.00    +0.000 OA
BRANCH  20  21
ATOM     21  C   UNL     1       1.332  13.415  21.124  0.00  0.00    +0.000 C 
BRANCH  21  22
ATOM     22  C   UNL     1       2.023  14.278  20.057  0.00  0.00    +0.000 A 
ATOM     23  C   UNL     1       1.233  15.319  19.514  0.00  0.00    +0.000 A 
ATOM     24  C   UNL     1       1.681  16.133  18.473  0.00  0.00    +0.000 A 
ATOM     25  C   UNL     1       2.944  15.930  17.938  0.00  0.00    +0.000 A 
ATOM     26  C   UNL     1       3.742  14.904  18.450  0.00  0.00    +0.000 A 
ATOM     27 CL   UNL     1       5.305  14.665  17.764  0.00  0.00    +0.000 Cl
ATOM     28  C   UNL     1       3.290  14.070  19.492  0.00  0.00    +0.000 A 
ENDBRANCH  21  22
ENDBRANCH  20  21
ENDBRANCH  15  20
ENDBRANCH   7  10
BRANCH   1  29
ATOM     29  N   UNL     1       5.660   7.947  16.843  0.00  0.00    +0.000 N 
ATOM     30  H   UNL     1       4.681   8.208  16.838  0.00  0.00    +0.000 HD
ATOM     31  H   UNL     1       6.193   8.222  16.027  0.00  0.00    +0.000 HD
ENDBRANCH   1  29
BRANCH   9  32
ATOM     32  C   UNL     1       4.480   2.823  19.896  0.00  0.00    +0.000 C 
BRANCH  32  33
ATOM     33  C   UNL     1       3.112   2.101  19.870  0.00  0.00    +0.000 C 
ATOM     34  C   UNL     1       2.309   2.219  18.562  0.00  0.00    +0.000 C 
ATOM     35  C   UNL     1       1.104   3.164  18.583  0.00  0.00    +0.000 C 
ATOM     36  N   UNL     1       0.354   3.160  19.839  0.00  0.00    +0.000 NA
ATOM     37  C   UNL     1       1.241   3.451  20.962  0.00  0.00    +0.000 C 
ATOM     38  C   UNL     1       2.255   2.329  21.123  0.00  0.00    +0.000 C 
ATOM     39  H   UNL     1      -0.086   2.251  19.979  0.00  0.00    +0.000 HD
ENDBRANCH  32  33
ENDBRANCH   9  32
TORSDOF 7
ENDMDL
MODEL 7
REMARK VINA RESULT:      -8.8      3.685      5.170
REMARK  Name = 
REMARK  7 active torsions:
REMARK  status: ('A' for Active; 'I' for Inactive)
REMARK    1  A    between atoms: N_1  and  C_2
REMARK    2  A    between atoms: C_8  and  C_9
REMARK    3  A    between atoms: C_14  and  O_15
REMARK    4  A    between atoms: O_15  and  C_16
REMARK    5  A    between atoms: C_16  and  C_17
REMARK    6  A    between atoms: N_29  and  C_30
REMARK    7  A    between atoms: C_30  and  C_31
REMARK                            x       y       z     vdW  Elec       q    Type
REMARK                         _______ _______ _______ _____ _____    ______ ____
ROOT
ATOM      1  C   UNL     1       2.039   3.787  19.361  0.00  0.00    +0.000 A 
ATOM      2  N   UNL     1       2.282   2.501  19.678  0.00  0.00    +0.000 NA
ATOM      3  C   UNL     1       3.553   2.118  19.889  0.00  0.00    +0.000 A 
ATOM      4  N   UNL     1       4.664   2.862  19.791  0.00  0.00    +0.000 NA
ATOM      5  C   UNL     1       4.377   4.140  19.480  0.00  0.00    +0.000 A 
ATOM      6  C   UNL     1       3.117   4.689  19.294  0.00  0.00    +0.000 A 
ATOM      7  C   UNL     1       3.352   6.099  19.134  0.00  0.00    +0.000 A 
ATOM      8  N   UNL     1       4.678   6.355  19.083  0.00  0.00    +0.000 NA
ATOM      9  N   UNL     1       5.274   5.160  19.310  0.00  0.00    +0.000 N 
ENDROOT
BRANCH   7  10
ATOM     10  C   UNL     1       2.382   7.215  19.141  0.00  0.00    +0.000 A 
ATOM     11  C   UNL     1       1.997   7.859  17.960  0.00  0.00    +0.000 A 
ATOM     12  C   UNL     1       1.363   9.118  18.011  0.00  0.00    +0.000 A 
ATOM     13  C   UNL     1       0.998   9.698  19.253  0.00  0.00    +0.000 A 
ATOM     14  C   UNL     1       0.677  11.054  19.505  0.00  0.00    +0.000 A 
ATOM     15  C   UNL     1       0.390  11.487  20.808  0.00  0.00    +0.000 A 
ATOM     16  C   UNL     1      -0.118  10.546  21.679  0.00  0.00    +0.000 A 
ATOM     17  C   UNL     1       0.399   9.266  21.551  0.00  0.00    +0.000 A 
ATOM     18  C   UNL     1       1.079   8.888  20.385  0.00  0.00    +0.000 A 
ATOM     19  C   UNL     1       1.893   7.750  20.337  0.00  0.00    +0.000 A 
BRANCH  15  20
ATOM     20  O   UNL     1       1.495  12.140  21.425  0.00  0.00    +0.000 OA
BRANCH  20  21
ATOM     21  C   UNL     1       1.635  13.540  21.197  0.00  0.00    +0.000 C 
BRANCH  21  22
ATOM     22  C   UNL     1       2.861  14.158  20.510  0.00  0.00    +0.000 A 
ATOM     23  C   UNL     1       2.853  14.110  19.096  0.00  0.00    +0.000 A 
ATOM     24  C   UNL     1       3.933  14.546  18.326  0.00  0.00    +0.000 A 
ATOM     25  C   UNL     1       5.063  15.048  18.952  0.00  0.00    +0.000 A 
ATOM     26  C   UNL     1       5.101  15.101  20.347  0.00  0.00    +0.000 A 
ATOM     27 CL   UNL     1       6.520  15.721  21.103  0.00  0.00    +0.000 Cl
ATOM     28  C   UNL     1       4.020  14.649  21.130  0.00  0.00    +0.000 A 
ENDBRANCH  21  22
ENDBRANCH  20  21
ENDBRANCH  15  20
ENDBRANCH   7  10
BRANCH   1  29
ATOM     29  N   UNL     1       0.713   4.094  19.095  0.00  0.00    +0.000 N 
ATOM     30  H   UNL     1       0.287   3.390  18.505  0.00  0.00    +0.000 HD
ATOM     31  H   UNL     1       0.549   5.056  18.821  0.00  0.00    +0.000 HD
ENDBRANCH   1  29
BRANCH   9  32
ATOM     32  C   UNL     1       6.680   5.115  19.653  0.00  0.00    +0.000 C 
BRANCH  32  33
ATOM     33  C   UNL     1       7.755   5.417  18.583  0.00  0.00    +0.000 C 
ATOM     34  C   UNL     1       7.903   6.893  18.170  0.00  0.00    +0.000 C 
ATOM     35  C   UNL     1       7.331   7.282  16.804  0.00  0.00    +0.000 C 
ATOM     36  N   UNL     1       7.507   6.267  15.764  0.00  0.00    +0.000 NA
ATOM     37  C   UNL     1       6.948   4.991  16.199  0.00  0.00    +0.000 C 
ATOM     38  C   UNL     1       7.738   4.458  17.384  0.00  0.00    +0.000 C 
ATOM     39  H   UNL     1       8.497   6.152  15.554  0.00  0.00    +0.000 HD
ENDBRANCH  32  33
ENDBRANCH   9  32
TORSDOF 7
ENDMDL
MODEL 8
REMARK VINA RESULT:      -8.8      3.109      4.179
REMARK  Name = 
REMARK  7 active torsions:
REMARK  status: ('A' for Active; 'I' for Inactive)
REMARK    1  A    between atoms: N_1  and  C_2
REMARK    2  A    between atoms: C_8  and  C_9
REMARK    3  A    between atoms: C_14  and  O_15
REMARK    4  A    between atoms: O_15  and  C_16
REMARK    5  A    between atoms: C_16  and  C_17
REMARK    6  A    between atoms: N_29  and  C_30
REMARK    7  A    between atoms: C_30  and  C_31
REMARK                            x       y       z     vdW  Elec       q    Type
REMARK                         _______ _______ _______ _____ _____    ______ ____
ROOT
ATOM      1  C   UNL     1       2.081   3.752  19.238  0.00  0.00    +0.000 A 
ATOM      2  N   UNL     1       2.353   2.467  19.541  0.00  0.00    +0.000 NA
ATOM      3  C   UNL     1       3.627   2.120  19.792  0.00  0.00    +0.000 A 
ATOM      4  N   UNL     1       4.716   2.901  19.749  0.00  0.00    +0.000 NA
ATOM      5  C   UNL     1       4.400   4.175  19.451  0.00  0.00    +0.000 A 
ATOM      6  C   UNL     1       3.131   4.687  19.228  0.00  0.00    +0.000 A 
ATOM      7  C   UNL     1       3.326   6.107  19.103  0.00  0.00    +0.000 A 
ATOM      8  N   UNL     1       4.645   6.405  19.105  0.00  0.00    +0.000 NA
ATOM      9  N   UNL     1       5.270   5.226  19.333  0.00  0.00    +0.000 N 
ENDROOT
BRANCH   7  10
ATOM     10  C   UNL     1       2.321   7.192  19.094  0.00  0.00    +0.000 A 
ATOM     11  C   UNL     1       1.928   7.818  17.906  0.00  0.00    +0.000 A 
ATOM     12  C   UNL     1       1.254   9.056  17.944  0.00  0.00    +0.000 A 
ATOM     13  C   UNL     1       0.859   9.630  19.179  0.00  0.00    +0.000 A 
ATOM     14  C   UNL     1       0.493  10.977  19.421  0.00  0.00    +0.000 A 
ATOM     15  C   UNL     1       0.179  11.407  20.719  0.00  0.00    +0.000 A 
ATOM     16  C   UNL     1      -0.307  10.455  21.590  0.00  0.00    +0.000 A 
ATOM     17  C   UNL     1       0.251   9.191  21.474  0.00  0.00    +0.000 A 
ATOM     18  C   UNL     1       0.954   8.829  20.316  0.00  0.00    +0.000 A 
ATOM     19  C   UNL     1       1.805   7.717  20.283  0.00  0.00    +0.000 A 
BRANCH  15  20
ATOM     20  O   UNL     1       1.256  12.098  21.343  0.00  0.00    +0.000 OA
BRANCH  20  21
ATOM     21  C   UNL     1       2.074  12.918  20.512  0.00  0.00    +0.000 C 
BRANCH  21  22
ATOM     22  C   UNL     1       1.683  14.344  20.098  0.00  0.00    +0.000 A 
ATOM     23  C   UNL     1       2.295  14.821  18.915  0.00  0.00    +0.000 A 
ATOM     24  C   UNL     1       2.116  16.126  18.453  0.00  0.00    +0.000 A 
ATOM     25  C   UNL     1       1.313  17.002  19.167  0.00  0.00    +0.000 A 
ATOM     26  C   UNL     1       0.702  16.560  20.343  0.00  0.00    +0.000 A 
ATOM     27 CL   UNL     1      -0.285  17.669  21.218  0.00  0.00    +0.000 Cl
ATOM     28  C   UNL     1       0.890  15.247  20.821  0.00  0.00    +0.000 A 
ENDBRANCH  21  22
ENDBRANCH  20  21
ENDBRANCH  15  20
ENDBRANCH   7  10
BRANCH   1  29
ATOM     29  N   UNL     1       0.756   4.022  18.930  0.00  0.00    +0.000 N 
ATOM     30  H   UNL     1       0.215   4.195  19.769  0.00  0.00    +0.000 HD
ATOM     31  H   UNL     1       0.339   3.385  18.261  0.00  0.00    +0.000 HD
ENDBRANCH   1  29
BRANCH   9  32
ATOM     32  C   UNL     1       6.663   5.218  19.727  0.00  0.00    +0.000 C 
BRANCH  32  33
ATOM     33  C   UNL     1       7.772   5.477  18.679  0.00  0.00    +0.000 C 
ATOM     34  C   UNL     1       7.930   6.934  18.206  0.00  0.00    +0.000 C 
ATOM     35  C   UNL     1       7.401   7.259  16.806  0.00  0.00    +0.000 C 
ATOM     36  N   UNL     1       7.614   6.201  15.819  0.00  0.00    +0.000 NA
ATOM     37  C   UNL     1       7.045   4.942  16.291  0.00  0.00    +0.000 C 
ATOM     38  C   UNL     1       7.797   4.466  17.525  0.00  0.00    +0.000 C 
ATOM     39  H   UNL     1       8.611   6.081  15.647  0.00  0.00    +0.000 HD
ENDBRANCH  32  33
ENDBRANCH   9  32
TORSDOF 7
ENDMDL
MODEL 9
REMARK VINA RESULT:      -8.8      3.322      5.147
REMARK  Name = 
REMARK  7 active torsions:
REMARK  status: ('A' for Active; 'I' for Inactive)
REMARK    1  A    between atoms: N_1  and  C_2
REMARK    2  A    between atoms: C_8  and  C_9
REMARK    3  A    between atoms: C_14  and  O_15
REMARK    4  A    between atoms: O_15  and  C_16
REMARK    5  A    between atoms: C_16  and  C_17
REMARK    6  A    between atoms: N_29  and  C_30
REMARK    7  A    between atoms: C_30  and  C_31
REMARK                            x       y       z     vdW  Elec       q    Type
REMARK                         _______ _______ _______ _____ _____    ______ ____
ROOT
ATOM      1  C   UNL     1       4.961   6.197  16.329  0.00  0.00    +0.000 A 
ATOM      2  N   UNL     1       5.731   5.394  15.571  0.00  0.00    +0.000 NA
ATOM      3  C   UNL     1       6.077   4.187  16.054  0.00  0.00    +0.000 A 
ATOM      4  N   UNL     1       5.776   3.665  17.252  0.00  0.00    +0.000 NA
ATOM      5  C   UNL     1       5.000   4.495  17.973  0.00  0.00    +0.000 A 
ATOM      6  C   UNL     1       4.519   5.736  17.582  0.00  0.00    +0.000 A 
ATOM      7  C   UNL     1       3.630   6.134  18.640  0.00  0.00    +0.000 A 
ATOM      8  N   UNL     1       3.691   5.254  19.666  0.00  0.00    +0.000 NA
ATOM      9  N   UNL     1       4.511   4.268  19.232  0.00  0.00    +0.000 N 
ENDROOT
BRANCH   7  10
ATOM     10  C   UNL     1       2.653   7.243  18.673  0.00  0.00    +0.000 A 
ATOM     11  C   UNL     1       2.333   7.973  17.524  0.00  0.00    +0.000 A 
ATOM     12  C   UNL     1       1.686   9.222  17.632  0.00  0.00    +0.000 A 
ATOM     13  C   UNL     1       1.243   9.704  18.890  0.00  0.00    +0.000 A 
ATOM     14  C   UNL     1       0.896  11.036  19.224  0.00  0.00    +0.000 A 
ATOM     15  C   UNL     1       0.528  11.368  20.537  0.00  0.00    +0.000 A 
ATOM     16  C   UNL     1      -0.022  10.361  21.302  0.00  0.00    +0.000 A 
ATOM     17  C   UNL     1       0.513   9.096  21.109  0.00  0.00    +0.000 A 
ATOM     18  C   UNL     1       1.263   8.811  19.960  0.00  0.00    +0.000 A 
ATOM     19  C   UNL     1       2.089   7.683  19.876  0.00  0.00    +0.000 A 
BRANCH  15  20
ATOM     20  O   UNL     1       1.589  11.976  21.267  0.00  0.00    +0.000 OA
BRANCH  20  21
ATOM     21  C   UNL     1       2.092  13.215  20.774  0.00  0.00    +0.000 C 
BRANCH  21  22
ATOM     22  C   UNL     1       1.225  14.475  20.633  0.00  0.00    +0.000 A 
ATOM     23  C   UNL     1       0.705  14.992  21.843  0.00  0.00    +0.000 A 
ATOM     24  C   UNL     1      -0.174  16.076  21.879  0.00  0.00    +0.000 A 
ATOM     25  C   UNL     1      -0.563  16.682  20.694  0.00  0.00    +0.000 A 
ATOM     26  C   UNL     1      -0.070  16.188  19.484  0.00  0.00    +0.000 A 
ATOM     27 CL   UNL     1      -0.575  16.952  18.023  0.00  0.00    +0.000 Cl
ATOM     28  C   UNL     1       0.806  15.084  19.441  0.00  0.00    +0.000 A 
ENDBRANCH  21  22
ENDBRANCH  20  21
ENDBRANCH  15  20
ENDBRANCH   7  10
BRANCH   1  29
ATOM     29  N   UNL     1       4.698   7.449  15.792  0.00  0.00    +0.000 N 
ATOM     30  H   UNL     1       3.768   7.485  15.392  0.00  0.00    +0.000 HD
ATOM     31  H   UNL     1       5.440   7.824  15.214  0.00  0.00    +0.000 HD
ENDBRANCH   1  29
BRANCH   9  32
ATOM     32  C   UNL     1       4.544   3.003  19.936  0.00  0.00    +0.000 C 
BRANCH  32  33
ATOM     33  C   UNL     1       3.250   2.173  20.110  0.00  0.00    +0.000 C 
ATOM     34  C   UNL     1       2.359   2.036  18.861  0.00  0.00    +0.000 C 
ATOM     35  C   UNL     1       1.076   2.871  18.842  0.00  0.00    +0.000 C 
ATOM     36  N   UNL     1       0.409   2.983  20.139  0.00  0.00    +0.000 NA
ATOM     37  C   UNL     1       1.332   3.503  21.143  0.00  0.00    +0.000 C 
ATOM     38  C   UNL     1       2.454   2.505  21.380  0.00  0.00    +0.000 C 
ATOM     39  H   UNL     1       0.064   2.070  20.434  0.00  0.00    +0.000 HD
ENDBRANCH  32  33
ENDBRANCH   9  32
TORSDOF 7
ENDMDL
