MODEL 1
REMARK VINA RESULT:      -6.9      0.000      0.000
REMARK  Name = 
REMARK  11 active torsions:
REMARK  status: ('A' for Active; 'I' for Inactive)
REMARK    1  A    between atoms: C_1  and  C_2
REMARK    2  A    between atoms: C_2  and  C_3
REMARK    3  A    between atoms: C_3  and  C_4
REMARK    4  A    between atoms: C_4  and  C_5
REMARK    5  A    between atoms: C_5  and  C_6
REMARK    6  A    between atoms: C_6  and  N_7
REMARK    7  A    between atoms: C_8  and  O_10
REMARK    8  A    between atoms: O_10  and  C_11
REMARK    9  A    between atoms: C_14  and  C_15
REMARK   10  A    between atoms: C_15  and  O_17
REMARK   11  A    between atoms: O_17  and  C_18
REMARK                            x       y       z     vdW  Elec       q    Type
REMARK                         _______ _______ _______ _____ _____    ______ ____
ROOT
ATOM      1  O   UNL     1       5.621   6.650  17.648  0.00  0.00    +0.000 OA
ENDROOT
BRANCH   1   2
ATOM      2  C   UNL     1       4.723   5.754  18.240  0.00  0.00    +0.000 A 
ATOM      3  C   UNL     1       5.213   4.509  18.654  0.00  0.00    +0.000 A 
ATOM      4  C   UNL     1       4.399   3.651  19.382  0.00  0.00    +0.000 A 
ATOM      5  C   UNL     1       3.099   4.038  19.730  0.00  0.00    +0.000 A 
ATOM      6  C   UNL     1       2.613   5.288  19.324  0.00  0.00    +0.000 A 
ATOM      7  C   UNL     1       3.422   6.146  18.566  0.00  0.00    +0.000 A 
ATOM      8  I   UNL     1       2.603   7.962  17.945  0.00  0.00    +0.000 I 
BRANCH   5   9
ATOM      9  C   UNL     1       2.287   3.079  20.525  0.00  0.00    +0.000 C 
ATOM     10  O   UNL     1       2.006   3.262  21.698  0.00  0.00    +0.000 OA
BRANCH   9  11
ATOM     11  O   UNL     1       1.942   2.003  19.775  0.00  0.00    +0.000 OA
ATOM     12  C   UNL     1       0.848   2.253  18.880  0.00  0.00    +0.000 C 
ENDBRANCH   9  11
ENDBRANCH   5   9
ENDBRANCH   1   2
BRANCH   1  14
ATOM     13  N   UNL     1       6.187   5.793  15.645  0.00  0.00    +0.000 N 
ATOM     14  C   UNL     1       6.631   6.040  16.920  0.00  0.00    +0.000 C 
ATOM     15  O   UNL     1       7.746   5.791  17.343  0.00  0.00    +0.000 OA
ATOM     16  H   UNL     1       5.378   6.311  15.342  0.00  0.00    +0.000 HD
BRANCH  13  17
ATOM     17  C   UNL     1       6.926   4.983  14.705  0.00  0.00    +0.000 C 
BRANCH  17  18
ATOM     18  C   UNL     1       6.056   3.894  14.073  0.00  0.00    +0.000 C 
BRANCH  18  19
ATOM     19  C   UNL     1       6.372   3.692  12.587  0.00  0.00    +0.000 C 
BRANCH  19  20
ATOM     20  C   UNL     1       5.219   3.010  11.853  0.00  0.00    +0.000 C 
BRANCH  20  22
ATOM     21  C   UNL     1       7.152   1.604  11.062  0.00  0.00    +0.000 C 
ATOM     22  C   UNL     1       5.649   1.659  11.282  0.00  0.00    +0.000 C 
ENDBRANCH  20  22
ENDBRANCH  19  20
ENDBRANCH  18  19
ENDBRANCH  17  18
ENDBRANCH  13  17
ENDBRANCH   1  14
TORSDOF 9
ENDMDL
MODEL 2
REMARK VINA RESULT:      -6.8      1.100      1.627
REMARK  Name = 
REMARK  11 active torsions:
REMARK  status: ('A' for Active; 'I' for Inactive)
REMARK    1  A    between atoms: C_1  and  C_2
REMARK    2  A    between atoms: C_2  and  C_3
REMARK    3  A    between atoms: C_3  and  C_4
REMARK    4  A    between atoms: C_4  and  C_5
REMARK    5  A    between atoms: C_5  and  C_6
REMARK    6  A    between atoms: C_6  and  N_7
REMARK    7  A    between atoms: C_8  and  O_10
REMARK    8  A    between atoms: O_10  and  C_11
REMARK    9  A    between atoms: C_14  and  C_15
REMARK   10  A    between atoms: C_15  and  O_17
REMARK   11  A    between atoms: O_17  and  C_18
REMARK                            x       y       z     vdW  Elec       q    Type
REMARK                         _______ _______ _______ _____ _____    ______ ____
ROOT
ATOM      1  O   UNL     1       5.409   6.726  17.503  0.00  0.00    +0.000 OA
ENDROOT
BRANCH   1   2
ATOM      2  C   UNL     1       4.407   5.779  17.743  0.00  0.00    +0.000 A 
ATOM      3  C   UNL     1       4.781   4.432  17.830  0.00  0.00    +0.000 A 
ATOM      4  C   UNL     1       3.851   3.477  18.218  0.00  0.00    +0.000 A 
ATOM      5  C   UNL     1       2.547   3.859  18.553  0.00  0.00    +0.000 A 
ATOM      6  C   UNL     1       2.175   5.208  18.476  0.00  0.00    +0.000 A 
ATOM      7  C   UNL     1       3.103   6.172  18.059  0.00  0.00    +0.000 A 
ATOM      8  I   UNL     1       2.454   8.149  17.908  0.00  0.00    +0.000 I 
BRANCH   5   9
ATOM      9  C   UNL     1       1.605   2.788  18.977  0.00  0.00    +0.000 C 
ATOM     10  O   UNL     1       0.602   2.501  18.345  0.00  0.00    +0.000 OA
BRANCH   9  11
ATOM     11  O   UNL     1       2.010   2.223  20.140  0.00  0.00    +0.000 OA
ATOM     12  C   UNL     1       1.514   2.893  21.309  0.00  0.00    +0.000 C 
ENDBRANCH   9  11
ENDBRANCH   5   9
ENDBRANCH   1   2
BRANCH   1  14
ATOM     13  N   UNL     1       5.677   5.966  15.401  0.00  0.00    +0.000 N 
ATOM     14  C   UNL     1       6.334   6.340  16.546  0.00  0.00    +0.000 C 
ATOM     15  O   UNL     1       7.544   6.358  16.695  0.00  0.00    +0.000 OA
ATOM     16  H   UNL     1       4.725   6.282  15.306  0.00  0.00    +0.000 HD
BRANCH  13  17
ATOM     17  C   UNL     1       6.343   5.319  14.295  0.00  0.00    +0.000 C 
BRANCH  17  18
ATOM     18  C   UNL     1       6.181   3.797  14.335  0.00  0.00    +0.000 C 
BRANCH  18  19
ATOM     19  C   UNL     1       6.078   3.191  12.931  0.00  0.00    +0.000 C 
BRANCH  19  20
ATOM     20  C   UNL     1       4.939   3.818  12.128  0.00  0.00    +0.000 C 
BRANCH  20  22
ATOM     21  C   UNL     1       3.165   3.373  10.397  0.00  0.00    +0.000 C 
ATOM     22  C   UNL     1       4.463   2.881  11.019  0.00  0.00    +0.000 C 
ENDBRANCH  20  22
ENDBRANCH  19  20
ENDBRANCH  18  19
ENDBRANCH  17  18
ENDBRANCH  13  17
ENDBRANCH   1  14
TORSDOF 9
ENDMDL
MODEL 3
REMARK VINA RESULT:      -6.7      1.743      2.436
REMARK  Name = 
REMARK  11 active torsions:
REMARK  status: ('A' for Active; 'I' for Inactive)
REMARK    1  A    between atoms: C_1  and  C_2
REMARK    2  A    between atoms: C_2  and  C_3
REMARK    3  A    between atoms: C_3  and  C_4
REMARK    4  A    between atoms: C_4  and  C_5
REMARK    5  A    between atoms: C_5  and  C_6
REMARK    6  A    between atoms: C_6  and  N_7
REMARK    7  A    between atoms: C_8  and  O_10
REMARK    8  A    between atoms: O_10  and  C_11
REMARK    9  A    between atoms: C_14  and  C_15
REMARK   10  A    between atoms: C_15  and  O_17
REMARK   11  A    between atoms: O_17  and  C_18
REMARK                            x       y       z     vdW  Elec       q    Type
REMARK                         _______ _______ _______ _____ _____    ______ ____
ROOT
ATOM      1  O   UNL     1       5.373   6.848  17.020  0.00  0.00    +0.000 OA
ENDROOT
BRANCH   1   2
ATOM      2  C   UNL     1       4.767   5.863  17.807  0.00  0.00    +0.000 A 
ATOM      3  C   UNL     1       3.423   5.557  17.558  0.00  0.00    +0.000 A 
ATOM      4  C   UNL     1       2.823   4.485  18.205  0.00  0.00    +0.000 A 
ATOM      5  C   UNL     1       3.566   3.688  19.085  0.00  0.00    +0.000 A 
ATOM      6  C   UNL     1       4.913   3.989  19.327  0.00  0.00    +0.000 A 
ATOM      7  C   UNL     1       5.515   5.086  18.696  0.00  0.00    +0.000 A 
ATOM      8  I   UNL     1       7.506   5.506  19.158  0.00  0.00    +0.000 I 
BRANCH   5   9
ATOM      9  C   UNL     1       2.868   2.546  19.732  0.00  0.00    +0.000 C 
ATOM     10  O   UNL     1       2.229   1.718  19.103  0.00  0.00    +0.000 OA
BRANCH   9  11
ATOM     11  O   UNL     1       3.028   2.583  21.077  0.00  0.00    +0.000 OA
ATOM     12  C   UNL     1       2.046   3.385  21.752  0.00  0.00    +0.000 C 
ENDBRANCH   9  11
ENDBRANCH   5   9
ENDBRANCH   1   2
BRANCH   1  14
ATOM     13  N   UNL     1       6.426   5.452  15.603  0.00  0.00    +0.000 N 
ATOM     14  C   UNL     1       5.534   6.491  15.691  0.00  0.00    +0.000 C 
ATOM     15  O   UNL     1       4.950   7.005  14.753  0.00  0.00    +0.000 OA
ATOM     16  H   UNL     1       6.595   4.932  16.449  0.00  0.00    +0.000 HD
BRANCH  13  17
ATOM     17  C   UNL     1       6.964   4.990  14.345  0.00  0.00    +0.000 C 
BRANCH  17  18
ATOM     18  C   UNL     1       6.132   3.854  13.745  0.00  0.00    +0.000 C 
BRANCH  18  19
ATOM     19  C   UNL     1       6.223   3.818  12.216  0.00  0.00    +0.000 C 
BRANCH  19  20
ATOM     20  C   UNL     1       5.270   2.783  11.619  0.00  0.00    +0.000 C 
BRANCH  20  22
ATOM     21  C   UNL     1       3.451   3.632  10.099  0.00  0.00    +0.000 C 
ATOM     22  C   UNL     1       3.844   3.327  11.535  0.00  0.00    +0.000 C 
ENDBRANCH  20  22
ENDBRANCH  19  20
ENDBRANCH  18  19
ENDBRANCH  17  18
ENDBRANCH  13  17
ENDBRANCH   1  14
TORSDOF 9
ENDMDL
MODEL 4
REMARK VINA RESULT:      -6.7      3.942      6.178
REMARK  Name = 
REMARK  11 active torsions:
REMARK  status: ('A' for Active; 'I' for Inactive)
REMARK    1  A    between atoms: C_1  and  C_2
REMARK    2  A    between atoms: C_2  and  C_3
REMARK    3  A    between atoms: C_3  and  C_4
REMARK    4  A    between atoms: C_4  and  C_5
REMARK    5  A    between atoms: C_5  and  C_6
REMARK    6  A    between atoms: C_6  and  N_7
REMARK    7  A    between atoms: C_8  and  O_10
REMARK    8  A    between atoms: O_10  and  C_11
REMARK    9  A    between atoms: C_14  and  C_15
REMARK   10  A    between atoms: C_15  and  O_17
REMARK   11  A    between atoms: O_17  and  C_18
REMARK                            x       y       z     vdW  Elec       q    Type
REMARK                         _______ _______ _______ _____ _____    ______ ____
ROOT
ATOM      1  O   UNL     1       5.288   4.721  19.140  0.00  0.00    +0.000 OA
ENDROOT
BRANCH   1   2
ATOM      2  C   UNL     1       4.272   5.654  18.907  0.00  0.00    +0.000 A 
ATOM      3  C   UNL     1       3.356   5.901  19.938  0.00  0.00    +0.000 A 
ATOM      4  C   UNL     1       2.427   6.925  19.811  0.00  0.00    +0.000 A 
ATOM      5  C   UNL     1       2.422   7.734  18.669  0.00  0.00    +0.000 A 
ATOM      6  C   UNL     1       3.345   7.494  17.642  0.00  0.00    +0.000 A 
ATOM      7  C   UNL     1       4.267   6.444  17.754  0.00  0.00    +0.000 A 
ATOM      8  I   UNL     1       5.564   6.111  16.155  0.00  0.00    +0.000 I 
BRANCH   5   9
ATOM      9  C   UNL     1       1.412   8.823  18.603  0.00  0.00    +0.000 C 
ATOM     10  O   UNL     1       0.978   9.262  17.550  0.00  0.00    +0.000 OA
BRANCH   9  11
ATOM     11  O   UNL     1       1.082   9.250  19.847  0.00  0.00    +0.000 OA
ATOM     12  C   UNL     1       0.686  10.629  19.896  0.00  0.00    +0.000 C 
ENDBRANCH   9  11
ENDBRANCH   5   9
ENDBRANCH   1   2
BRANCH   1  14
ATOM     13  N   UNL     1       4.257   2.970  18.171  0.00  0.00    +0.000 N 
ATOM     14  C   UNL     1       4.834   3.425  19.330  0.00  0.00    +0.000 C 
ATOM     15  O   UNL     1       4.956   2.785  20.359  0.00  0.00    +0.000 OA
ATOM     16  H   UNL     1       4.491   3.469  17.327  0.00  0.00    +0.000 HD
BRANCH  13  17
ATOM     17  C   UNL     1       3.506   1.739  18.104  0.00  0.00    +0.000 C 
BRANCH  17  18
ATOM     18  C   UNL     1       2.079   1.961  17.597  0.00  0.00    +0.000 C 
BRANCH  18  19
ATOM     19  C   UNL     1       1.439   3.214  18.205  0.00  0.00    +0.000 C 
BRANCH  19  20
ATOM     20  C   UNL     1       0.596   2.877  19.434  0.00  0.00    +0.000 C 
BRANCH  20  22
ATOM     21  C   UNL     1       1.707   2.613  21.679  0.00  0.00    +0.000 C 
ATOM     22  C   UNL     1       1.120   3.595  20.678  0.00  0.00    +0.000 C 
ENDBRANCH  20  22
ENDBRANCH  19  20
ENDBRANCH  18  19
ENDBRANCH  17  18
ENDBRANCH  13  17
ENDBRANCH   1  14
TORSDOF 9
ENDMDL
MODEL 5
REMARK VINA RESULT:      -6.7      1.961      2.551
REMARK  Name = 
REMARK  11 active torsions:
REMARK  status: ('A' for Active; 'I' for Inactive)
REMARK    1  A    between atoms: C_1  and  C_2
REMARK    2  A    between atoms: C_2  and  C_3
REMARK    3  A    between atoms: C_3  and  C_4
REMARK    4  A    between atoms: C_4  and  C_5
REMARK    5  A    between atoms: C_5  and  C_6
REMARK    6  A    between atoms: C_6  and  N_7
REMARK    7  A    between atoms: C_8  and  O_10
REMARK    8  A    between atoms: O_10  and  C_11
REMARK    9  A    between atoms: C_14  and  C_15
REMARK   10  A    between atoms: C_15  and  O_17
REMARK   11  A    between atoms: O_17  and  C_18
REMARK                            x       y       z     vdW  Elec       q    Type
REMARK                         _______ _______ _______ _____ _____    ______ ____
ROOT
ATOM      1  O   UNL     1       6.321   6.115  16.326  0.00  0.00    +0.000 OA
ENDROOT
BRANCH   1   2
ATOM      2  C   UNL     1       5.454   5.453  17.202  0.00  0.00    +0.000 A 
ATOM      3  C   UNL     1       4.219   5.019  16.703  0.00  0.00    +0.000 A 
ATOM      4  C   UNL     1       3.393   4.226  17.489  0.00  0.00    +0.000 A 
ATOM      5  C   UNL     1       3.803   3.832  18.768  0.00  0.00    +0.000 A 
ATOM      6  C   UNL     1       5.043   4.258  19.264  0.00  0.00    +0.000 A 
ATOM      7  C   UNL     1       5.868   5.081  18.484  0.00  0.00    +0.000 A 
ATOM      8  I   UNL     1       7.668   5.726  19.318  0.00  0.00    +0.000 I 
BRANCH   5   9
ATOM      9  C   UNL     1       2.878   2.969  19.550  0.00  0.00    +0.000 C 
ATOM     10  O   UNL     1       2.433   1.916  19.121  0.00  0.00    +0.000 OA
BRANCH   9  11
ATOM     11  O   UNL     1       2.601   3.527  20.754  0.00  0.00    +0.000 OA
ATOM     12  C   UNL     1       1.635   4.587  20.688  0.00  0.00    +0.000 C 
ENDBRANCH   9  11
ENDBRANCH   5   9
ENDBRANCH   1   2
BRANCH   1  14
ATOM     13  N   UNL     1       6.702   5.555  14.179  0.00  0.00    +0.000 N 
ATOM     14  C   UNL     1       7.026   5.271  15.482  0.00  0.00    +0.000 C 
ATOM     15  O   UNL     1       7.828   4.429  15.846  0.00  0.00    +0.000 OA
ATOM     16  H   UNL     1       6.276   6.451  14.008  0.00  0.00    +0.000 HD
BRANCH  13  17
ATOM     17  C   UNL     1       7.107   4.718  13.075  0.00  0.00    +0.000 C 
BRANCH  17  18
ATOM     18  C   UNL     1       6.262   3.446  12.974  0.00  0.00    +0.000 C 
BRANCH  18  19
ATOM     19  C   UNL     1       4.859   3.727  12.424  0.00  0.00    +0.000 C 
BRANCH  19  20
ATOM     20  C   UNL     1       4.595   2.955  11.132  0.00  0.00    +0.000 C 
BRANCH  20  22
ATOM     21  C   UNL     1       3.021   4.155   9.576  0.00  0.00    +0.000 C 
ATOM     22  C   UNL     1       3.144   3.116  10.679  0.00  0.00    +0.000 C 
ENDBRANCH  20  22
ENDBRANCH  19  20
ENDBRANCH  18  19
ENDBRANCH  17  18
ENDBRANCH  13  17
ENDBRANCH   1  14
TORSDOF 9
ENDMDL
MODEL 6
REMARK VINA RESULT:      -6.7      1.364      1.942
REMARK  Name = 
REMARK  11 active torsions:
REMARK  status: ('A' for Active; 'I' for Inactive)
REMARK    1  A    between atoms: C_1  and  C_2
REMARK    2  A    between atoms: C_2  and  C_3
REMARK    3  A    between atoms: C_3  and  C_4
REMARK    4  A    between atoms: C_4  and  C_5
REMARK    5  A    between atoms: C_5  and  C_6
REMARK    6  A    between atoms: C_6  and  N_7
REMARK    7  A    between atoms: C_8  and  O_10
REMARK    8  A    between atoms: O_10  and  C_11
REMARK    9  A    between atoms: C_14  and  C_15
REMARK   10  A    between atoms: C_15  and  O_17
REMARK   11  A    between atoms: O_17  and  C_18
REMARK                            x       y       z     vdW  Elec       q    Type
REMARK                         _______ _______ _______ _____ _____    ______ ____
ROOT
ATOM      1  O   UNL     1       5.123   6.190  17.353  0.00  0.00    +0.000 OA
ENDROOT
BRANCH   1   2
ATOM      2  C   UNL     1       4.022   5.416  17.735  0.00  0.00    +0.000 A 
ATOM      3  C   UNL     1       4.198   4.031  17.847  0.00  0.00    +0.000 A 
ATOM      4  C   UNL     1       3.182   3.242  18.369  0.00  0.00    +0.000 A 
ATOM      5  C   UNL     1       1.992   3.829  18.814  0.00  0.00    +0.000 A 
ATOM      6  C   UNL     1       1.819   5.216  18.712  0.00  0.00    +0.000 A 
ATOM      7  C   UNL     1       2.832   6.013  18.161  0.00  0.00    +0.000 A 
ATOM      8  I   UNL     1       2.473   8.061  17.983  0.00  0.00    +0.000 I 
BRANCH   5   9
ATOM      9  C   UNL     1       0.951   2.928  19.378  0.00  0.00    +0.000 C 
ATOM     10  O   UNL     1       0.368   2.090  18.710  0.00  0.00    +0.000 OA
BRANCH   9  11
ATOM     11  O   UNL     1       0.746   3.192  20.692  0.00  0.00    +0.000 OA
ATOM     12  C   UNL     1       1.728   2.602  21.557  0.00  0.00    +0.000 C 
ENDBRANCH   9  11
ENDBRANCH   5   9
ENDBRANCH   1   2
BRANCH   1  14
ATOM     13  N   UNL     1       6.093   5.015  15.696  0.00  0.00    +0.000 N 
ATOM     14  C   UNL     1       5.394   6.157  15.994  0.00  0.00    +0.000 C 
ATOM     15  O   UNL     1       5.039   7.001  15.190  0.00  0.00    +0.000 OA
ATOM     16  H   UNL     1       6.054   4.274  16.377  0.00  0.00    +0.000 HD
BRANCH  13  17
ATOM     17  C   UNL     1       6.703   4.787  14.407  0.00  0.00    +0.000 C 
BRANCH  17  18
ATOM     18  C   UNL     1       6.008   3.666  13.630  0.00  0.00    +0.000 C 
BRANCH  18  19
ATOM     19  C   UNL     1       6.648   3.434  12.257  0.00  0.00    +0.000 C 
BRANCH  19  20
ATOM     20  C   UNL     1       5.664   3.714  11.122  0.00  0.00    +0.000 C 
BRANCH  20  22
ATOM     21  C   UNL     1       3.276   3.502  10.350  0.00  0.00    +0.000 C 
ATOM     22  C   UNL     1       4.276   3.160  11.443  0.00  0.00    +0.000 C 
ENDBRANCH  20  22
ENDBRANCH  19  20
ENDBRANCH  18  19
ENDBRANCH  17  18
ENDBRANCH  13  17
ENDBRANCH   1  14
TORSDOF 9
ENDMDL
MODEL 7
REMARK VINA RESULT:      -6.7      2.614      3.609
REMARK  Name = 
REMARK  11 active torsions:
REMARK  status: ('A' for Active; 'I' for Inactive)
REMARK    1  A    between atoms: C_1  and  C_2
REMARK    2  A    between atoms: C_2  and  C_3
REMARK    3  A    between atoms: C_3  and  C_4
REMARK    4  A    between atoms: C_4  and  C_5
REMARK    5  A    between atoms: C_5  and  C_6
REMARK    6  A    between atoms: C_6  and  N_7
REMARK    7  A    between atoms: C_8  and  O_10
REMARK    8  A    between atoms: O_10  and  C_11
REMARK    9  A    between atoms: C_14  and  C_15
REMARK   10  A    between atoms: C_15  and  O_17
REMARK   11  A    between atoms: O_17  and  C_18
REMARK                            x       y       z     vdW  Elec       q    Type
REMARK                         _______ _______ _______ _____ _____    ______ ____
ROOT
ATOM      1  O   UNL     1       4.764   3.699  16.306  0.00  0.00    +0.000 OA
ENDROOT
BRANCH   1   2
ATOM      2  C   UNL     1       4.174   4.658  17.137  0.00  0.00    +0.000 A 
ATOM      3  C   UNL     1       4.460   6.007  16.890  0.00  0.00    +0.000 A 
ATOM      4  C   UNL     1       3.782   6.998  17.587  0.00  0.00    +0.000 A 
ATOM      5  C   UNL     1       2.789   6.656  18.513  0.00  0.00    +0.000 A 
ATOM      6  C   UNL     1       2.496   5.306  18.752  0.00  0.00    +0.000 A 
ATOM      7  C   UNL     1       3.197   4.302  18.071  0.00  0.00    +0.000 A 
ATOM      8  I   UNL     1       2.748   2.317  18.530  0.00  0.00    +0.000 I 
BRANCH   5   9
ATOM      9  C   UNL     1       2.090   7.767  19.212  0.00  0.00    +0.000 C 
ATOM     10  O   UNL     1       1.857   8.840  18.680  0.00  0.00    +0.000 OA
BRANCH   9  11
ATOM     11  O   UNL     1       1.786   7.419  20.486  0.00  0.00    +0.000 OA
ATOM     12  C   UNL     1       1.332   8.519  21.290  0.00  0.00    +0.000 C 
ENDBRANCH   9  11
ENDBRANCH   5   9
ENDBRANCH   1   2
BRANCH   1  14
ATOM     13  N   UNL     1       5.909   4.210  14.436  0.00  0.00    +0.000 N 
ATOM     14  C   UNL     1       5.998   4.072  15.798  0.00  0.00    +0.000 C 
ATOM     15  O   UNL     1       6.998   4.271  16.467  0.00  0.00    +0.000 OA
ATOM     16  H   UNL     1       4.982   4.316  14.056  0.00  0.00    +0.000 HD
BRANCH  13  17
ATOM     17  C   UNL     1       7.067   4.387  13.592  0.00  0.00    +0.000 C 
BRANCH  17  18
ATOM     18  C   UNL     1       6.810   3.923  12.156  0.00  0.00    +0.000 C 
BRANCH  18  19
ATOM     19  C   UNL     1       5.579   3.015  12.054  0.00  0.00    +0.000 C 
BRANCH  19  20
ATOM     20  C   UNL     1       4.329   3.802  11.663  0.00  0.00    +0.000 C 
BRANCH  20  22
ATOM     21  C   UNL     1       2.922   4.068   9.592  0.00  0.00    +0.000 C 
ATOM     22  C   UNL     1       3.542   3.082  10.569  0.00  0.00    +0.000 C 
ENDBRANCH  20  22
ENDBRANCH  19  20
ENDBRANCH  18  19
ENDBRANCH  17  18
ENDBRANCH  13  17
ENDBRANCH   1  14
TORSDOF 9
ENDMDL
MODEL 8
REMARK VINA RESULT:      -6.6      4.163      6.721
REMARK  Name = 
REMARK  11 active torsions:
REMARK  status: ('A' for Active; 'I' for Inactive)
REMARK    1  A    between atoms: C_1  and  C_2
REMARK    2  A    between atoms: C_2  and  C_3
REMARK    3  A    between atoms: C_3  and  C_4
REMARK    4  A    between atoms: C_4  and  C_5
REMARK    5  A    between atoms: C_5  and  C_6
REMARK    6  A    between atoms: C_6  and  N_7
REMARK    7  A    between atoms: C_8  and  O_10
REMARK    8  A    between atoms: O_10  and  C_11
REMARK    9  A    between atoms: C_14  and  C_15
REMARK   10  A    between atoms: C_15  and  O_17
REMARK   11  A    between atoms: O_17  and  C_18
REMARK                            x       y       z     vdW  Elec       q    Type
REMARK                         _______ _______ _______ _____ _____    ______ ____
ROOT
ATOM      1  O   UNL     1       6.315   7.061  16.566  0.00  0.00    +0.000 OA
ENDROOT
BRANCH   1   2
ATOM      2  C   UNL     1       5.341   6.167  17.024  0.00  0.00    +0.000 A 
ATOM      3  C   UNL     1       4.506   6.583  18.069  0.00  0.00    +0.000 A 
ATOM      4  C   UNL     1       3.429   5.794  18.452  0.00  0.00    +0.000 A 
ATOM      5  C   UNL     1       3.155   4.599  17.777  0.00  0.00    +0.000 A 
ATOM      6  C   UNL     1       3.985   4.188  16.725  0.00  0.00    +0.000 A 
ATOM      7  C   UNL     1       5.088   4.967  16.352  0.00  0.00    +0.000 A 
ATOM      8  I   UNL     1       6.312   4.255  14.820  0.00  0.00    +0.000 I 
BRANCH   5   9
ATOM      9  C   UNL     1       1.977   3.811  18.227  0.00  0.00    +0.000 C 
ATOM     10  O   UNL     1       1.620   2.781  17.677  0.00  0.00    +0.000 OA
BRANCH   9  11
ATOM     11  O   UNL     1       1.375   4.405  19.286  0.00  0.00    +0.000 OA
ATOM     12  C   UNL     1       1.146   3.517  20.391  0.00  0.00    +0.000 C 
ENDBRANCH   9  11
ENDBRANCH   5   9
ENDBRANCH   1   2
BRANCH   1  14
ATOM     13  N   UNL     1       7.483   8.711  17.556  0.00  0.00    +0.000 N 
ATOM     14  C   UNL     1       7.298   7.353  17.499  0.00  0.00    +0.000 C 
ATOM     15  O   UNL     1       7.884   6.529  18.179  0.00  0.00    +0.000 OA
ATOM     16  H   UNL     1       6.742   9.281  17.180  0.00  0.00    +0.000 HD
BRANCH  13  17
ATOM     17  C   UNL     1       8.576   9.320  18.277  0.00  0.00    +0.000 C 
BRANCH  17  18
ATOM     18  C   UNL     1       8.705  10.815  17.973  0.00  0.00    +0.000 C 
BRANCH  18  19
ATOM     19  C   UNL     1      10.114  11.343  18.263  0.00  0.00    +0.000 C 
BRANCH  19  20
ATOM     20  C   UNL     1      10.548  11.034  19.695  0.00  0.00    +0.000 C 
BRANCH  20  22
ATOM     21  C   UNL     1       9.627  12.517  21.510  0.00  0.00    +0.000 C 
ATOM     22  C   UNL     1      10.747  12.317  20.502  0.00  0.00    +0.000 C 
ENDBRANCH  20  22
ENDBRANCH  19  20
ENDBRANCH  18  19
ENDBRANCH  17  18
ENDBRANCH  13  17
ENDBRANCH   1  14
TORSDOF 9
ENDMDL
MODEL 9
REMARK VINA RESULT:      -6.5      4.035      6.368
REMARK  Name = 
REMARK  11 active torsions:
REMARK  status: ('A' for Active; 'I' for Inactive)
REMARK    1  A    between atoms: C_1  and  C_2
REMARK    2  A    between atoms: C_2  and  C_3
REMARK    3  A    between atoms: C_3  and  C_4
REMARK    4  A    between atoms: C_4  and  C_5
REMARK    5  A    between atoms: C_5  and  C_6
REMARK    6  A    between atoms: C_6  and  N_7
REMARK    7  A    between atoms: C_8  and  O_10
REMARK    8  A    between atoms: O_10  and  C_11
REMARK    9  A    between atoms: C_14  and  C_15
REMARK   10  A    between atoms: C_15  and  O_17
REMARK   11  A    between atoms: O_17  and  C_18
REMARK                            x       y       z     vdW  Elec       q    Type
REMARK                         _______ _______ _______ _____ _____    ______ ____
ROOT
ATOM      1  O   UNL     1       7.397   5.757  17.545  0.00  0.00    +0.000 OA
ENDROOT
BRANCH   1   2
ATOM      2  C   UNL     1       6.231   5.021  17.785  0.00  0.00    +0.000 A 
ATOM      3  C   UNL     1       5.688   5.053  19.076  0.00  0.00    +0.000 A 
ATOM      4  C   UNL     1       4.455   4.466  19.324  0.00  0.00    +0.000 A 
ATOM      5  C   UNL     1       3.736   3.869  18.282  0.00  0.00    +0.000 A 
ATOM      6  C   UNL     1       4.275   3.845  16.989  0.00  0.00    +0.000 A 
ATOM      7  C   UNL     1       5.532   4.413  16.739  0.00  0.00    +0.000 A 
ATOM      8  I   UNL     1       6.294   4.280  14.802  0.00  0.00    +0.000 I 
BRANCH   5   9
ATOM      9  C   UNL     1       2.413   3.274  18.613  0.00  0.00    +0.000 C 
ATOM     10  O   UNL     1       2.171   2.085  18.483  0.00  0.00    +0.000 OA
BRANCH   9  11
ATOM     11  O   UNL     1       1.550   4.226  19.043  0.00  0.00    +0.000 OA
ATOM     12  C   UNL     1       0.936   3.920  20.304  0.00  0.00    +0.000 C 
ENDBRANCH   9  11
ENDBRANCH   5   9
ENDBRANCH   1   2
BRANCH   1  14
ATOM     13  N   UNL     1       8.174   7.839  17.903  0.00  0.00    +0.000 N 
ATOM     14  C   UNL     1       7.176   7.106  17.312  0.00  0.00    +0.000 C 
ATOM     15  O   UNL     1       6.253   7.562  16.660  0.00  0.00    +0.000 OA
ATOM     16  H   UNL     1       9.017   7.342  18.140  0.00  0.00    +0.000 HD
BRANCH  13  17
ATOM     17  C   UNL     1       8.121   9.277  18.020  0.00  0.00    +0.000 C 
BRANCH  17  18
ATOM     18  C   UNL     1       9.116   9.809  19.055  0.00  0.00    +0.000 C 
BRANCH  18  19
ATOM     19  C   UNL     1       9.577  11.235  18.732  0.00  0.00    +0.000 C 
BRANCH  19  20
ATOM     20  C   UNL     1      11.039  11.267  18.288  0.00  0.00    +0.000 C 
BRANCH  20  22
ATOM     21  C   UNL     1      10.217  13.478  17.407  0.00  0.00    +0.000 C 
ATOM     22  C   UNL     1      11.437  12.657  17.795  0.00  0.00    +0.000 C 
ENDBRANCH  20  22
ENDBRANCH  19  20
ENDBRANCH  18  19
ENDBRANCH  17  18
ENDBRANCH  13  17
ENDBRANCH   1  14
TORSDOF 9
ENDMDL
