MODEL 1
REMARK VINA RESULT:      -5.3      0.000      0.000
REMARK  Name = 
REMARK  6 active torsions:
REMARK  status: ('A' for Active; 'I' for Inactive)
REMARK    1  A    between atoms: C_1  and  C_2
REMARK    2  A    between atoms: C_5  and  N_6
REMARK    3  A    between atoms: N_9  and  C_10
REMARK    4  A    between atoms: C_10  and  C_11
REMARK    5  A    between atoms: C_11  and  O_12
REMARK    6  A    between atoms: O_12  and  C_13
REMARK                            x       y       z     vdW  Elec       q    Type
REMARK                         _______ _______ _______ _____ _____    ______ ____
ROOT
ATOM      1  C   UNL     1       1.614   6.255  20.662  0.00  0.00    +0.000 C 
ATOM      2  C   UNL     1       1.915   4.847  20.265  0.00  0.00    +0.000 A 
ATOM      3  N   UNL     1       0.995   3.889  20.316  0.00  0.00    +0.000 NA
ATOM      4  C   UNL     1       1.692   2.714  20.215  0.00  0.00    +0.000 A 
ATOM      5  C   UNL     1       2.999   2.964  19.883  0.00  0.00    +0.000 A 
ATOM      6  N   UNL     1       3.138   4.336  19.811  0.00  0.00    +0.000 N 
ENDROOT
BRANCH   5   7
ATOM      7  N   UNL     1       4.015   1.987  19.648  0.00  0.00    +0.000 N 
ATOM      8  O   UNL     1       4.908   1.932  20.502  0.00  0.00    +0.000 OA
ATOM      9  O   UNL     1       3.926   1.284  18.643  0.00  0.00    +0.000 OA
ENDBRANCH   5   7
BRANCH   6  10
ATOM     10  C   UNL     1       4.288   5.057  19.261  0.00  0.00    +0.000 C 
BRANCH  10  11
ATOM     11  C   UNL     1       4.650   4.714  17.825  0.00  0.00    +0.000 C 
BRANCH  11  12
ATOM     12  O   UNL     1       6.032   4.451  17.644  0.00  0.00    +0.000 OA
BRANCH  12  13
ATOM     13  C   UNL     1       6.663   5.252  16.744  0.00  0.00    +0.000 C 
ATOM     14  S   UNL     1       6.819   4.733  15.142  0.00  0.00    +0.000 S 
ATOM     15  S   UNL     1       7.235   6.662  17.442  0.00  0.00    +0.000 SA
ENDBRANCH  12  13
ENDBRANCH  11  12
ENDBRANCH  10  11
ENDBRANCH   6  10
TORSDOF 5
ENDMDL
MODEL 2
REMARK VINA RESULT:      -5.3      1.689      2.032
REMARK  Name = 
REMARK  6 active torsions:
REMARK  status: ('A' for Active; 'I' for Inactive)
REMARK    1  A    between atoms: C_1  and  C_2
REMARK    2  A    between atoms: C_5  and  N_6
REMARK    3  A    between atoms: N_9  and  C_10
REMARK    4  A    between atoms: C_10  and  C_11
REMARK    5  A    between atoms: C_11  and  O_12
REMARK    6  A    between atoms: O_12  and  C_13
REMARK                            x       y       z     vdW  Elec       q    Type
REMARK                         _______ _______ _______ _____ _____    ______ ____
ROOT
ATOM      1  C   UNL     1       1.357   4.698  17.398  0.00  0.00    +0.000 C 
ATOM      2  C   UNL     1       2.137   3.655  18.129  0.00  0.00    +0.000 A 
ATOM      3  N   UNL     1       2.143   2.382  17.745  0.00  0.00    +0.000 NA
ATOM      4  C   UNL     1       2.662   1.688  18.806  0.00  0.00    +0.000 A 
ATOM      5  C   UNL     1       3.171   2.555  19.739  0.00  0.00    +0.000 A 
ATOM      6  N   UNL     1       2.931   3.832  19.270  0.00  0.00    +0.000 N 
ENDROOT
BRANCH   5   7
ATOM      7  N   UNL     1       3.830   2.200  20.956  0.00  0.00    +0.000 N 
ATOM      8  O   UNL     1       3.130   2.249  21.974  0.00  0.00    +0.000 OA
ATOM      9  O   UNL     1       5.015   1.873  20.902  0.00  0.00    +0.000 OA
ENDBRANCH   5   7
BRANCH   6  10
ATOM     10  C   UNL     1       3.501   5.069  19.810  0.00  0.00    +0.000 C 
BRANCH  10  11
ATOM     11  C   UNL     1       4.919   5.386  19.361  0.00  0.00    +0.000 C 
BRANCH  11  12
ATOM     12  O   UNL     1       5.005   5.743  17.990  0.00  0.00    +0.000 OA
BRANCH  12  13
ATOM     13  C   UNL     1       5.859   4.991  17.245  0.00  0.00    +0.000 C 
ATOM     14  S   UNL     1       5.270   4.176  15.885  0.00  0.00    +0.000 S 
ATOM     15  S   UNL     1       7.409   4.981  17.876  0.00  0.00    +0.000 SA
ENDBRANCH  12  13
ENDBRANCH  11  12
ENDBRANCH  10  11
ENDBRANCH   6  10
TORSDOF 5
ENDMDL
MODEL 3
REMARK VINA RESULT:      -5.2      0.795      1.129
REMARK  Name = 
REMARK  6 active torsions:
REMARK  status: ('A' for Active; 'I' for Inactive)
REMARK    1  A    between atoms: C_1  and  C_2
REMARK    2  A    between atoms: C_5  and  N_6
REMARK    3  A    between atoms: N_9  and  C_10
REMARK    4  A    between atoms: C_10  and  C_11
REMARK    5  A    between atoms: C_11  and  O_12
REMARK    6  A    between atoms: O_12  and  C_13
REMARK                            x       y       z     vdW  Elec       q    Type
REMARK                         _______ _______ _______ _____ _____    ______ ____
ROOT
ATOM      1  C   UNL     1       1.455   6.239  20.811  0.00  0.00    +0.000 C 
ATOM      2  C   UNL     1       1.839   4.828  20.509  0.00  0.00    +0.000 A 
ATOM      3  N   UNL     1       0.995   3.816  20.685  0.00  0.00    +0.000 NA
ATOM      4  C   UNL     1       1.772   2.688  20.638  0.00  0.00    +0.000 A 
ATOM      5  C   UNL     1       3.039   3.000  20.217  0.00  0.00    +0.000 A 
ATOM      6  N   UNL     1       3.073   4.368  20.031  0.00  0.00    +0.000 N 
ENDROOT
BRANCH   5   7
ATOM      7  N   UNL     1       4.112   2.081  20.005  0.00  0.00    +0.000 N 
ATOM      8  O   UNL     1       4.098   1.487  18.921  0.00  0.00    +0.000 OA
ATOM      9  O   UNL     1       4.956   1.956  20.892  0.00  0.00    +0.000 OA
ENDBRANCH   5   7
BRANCH   6  10
ATOM     10  C   UNL     1       4.139   5.121  19.366  0.00  0.00    +0.000 C 
BRANCH  10  11
ATOM     11  C   UNL     1       4.099   5.107  17.846  0.00  0.00    +0.000 C 
BRANCH  11  12
ATOM     12  O   UNL     1       5.206   5.765  17.251  0.00  0.00    +0.000 OA
BRANCH  12  13
ATOM     13  C   UNL     1       6.147   4.946  16.710  0.00  0.00    +0.000 C 
ATOM     14  S   UNL     1       5.868   4.256  15.191  0.00  0.00    +0.000 S 
ATOM     15  S   UNL     1       7.459   4.729  17.727  0.00  0.00    +0.000 SA
ENDBRANCH  12  13
ENDBRANCH  11  12
ENDBRANCH  10  11
ENDBRANCH   6  10
TORSDOF 5
ENDMDL
MODEL 4
REMARK VINA RESULT:      -5.2      0.737      1.321
REMARK  Name = 
REMARK  6 active torsions:
REMARK  status: ('A' for Active; 'I' for Inactive)
REMARK    1  A    between atoms: C_1  and  C_2
REMARK    2  A    between atoms: C_5  and  N_6
REMARK    3  A    between atoms: N_9  and  C_10
REMARK    4  A    between atoms: C_10  and  C_11
REMARK    5  A    between atoms: C_11  and  O_12
REMARK    6  A    between atoms: O_12  and  C_13
REMARK                            x       y       z     vdW  Elec       q    Type
REMARK                         _______ _______ _______ _____ _____    ______ ____
ROOT
ATOM      1  C   UNL     1       1.434   6.134  20.856  0.00  0.00    +0.000 C 
ATOM      2  C   UNL     1       1.758   4.774  20.332  0.00  0.00    +0.000 A 
ATOM      3  N   UNL     1       0.846   3.810  20.265  0.00  0.00    +0.000 NA
ATOM      4  C   UNL     1       1.556   2.655  20.068  0.00  0.00    +0.000 A 
ATOM      5  C   UNL     1       2.869   2.944  19.797  0.00  0.00    +0.000 A 
ATOM      6  N   UNL     1       2.997   4.318  19.864  0.00  0.00    +0.000 N 
ENDROOT
BRANCH   5   7
ATOM      7  N   UNL     1       3.900   2.002  19.497  0.00  0.00    +0.000 N 
ATOM      8  O   UNL     1       4.883   2.031  20.245  0.00  0.00    +0.000 OA
ATOM      9  O   UNL     1       3.735   1.243  18.542  0.00  0.00    +0.000 OA
ENDBRANCH   5   7
BRANCH   6  10
ATOM     10  C   UNL     1       4.156   5.097  19.418  0.00  0.00    +0.000 C 
BRANCH  10  11
ATOM     11  C   UNL     1       4.309   5.237  17.912  0.00  0.00    +0.000 C 
BRANCH  11  12
ATOM     12  O   UNL     1       5.313   6.166  17.536  0.00  0.00    +0.000 OA
BRANCH  12  13
ATOM     13  C   UNL     1       6.579   5.671  17.501  0.00  0.00    +0.000 C 
ATOM     14  S   UNL     1       7.714   6.221  18.629  0.00  0.00    +0.000 S 
ATOM     15  S   UNL     1       6.799   4.582  16.249  0.00  0.00    +0.000 SA
ENDBRANCH  12  13
ENDBRANCH  11  12
ENDBRANCH  10  11
ENDBRANCH   6  10
TORSDOF 5
ENDMDL
MODEL 5
REMARK VINA RESULT:      -5.2      3.294      4.350
REMARK  Name = 
REMARK  6 active torsions:
REMARK  status: ('A' for Active; 'I' for Inactive)
REMARK    1  A    between atoms: C_1  and  C_2
REMARK    2  A    between atoms: C_5  and  N_6
REMARK    3  A    between atoms: N_9  and  C_10
REMARK    4  A    between atoms: C_10  and  C_11
REMARK    5  A    between atoms: C_11  and  O_12
REMARK    6  A    between atoms: O_12  and  C_13
REMARK                            x       y       z     vdW  Elec       q    Type
REMARK                         _______ _______ _______ _____ _____    ______ ____
ROOT
ATOM      1  C   UNL     1       4.417   3.942  16.582  0.00  0.00    +0.000 C 
ATOM      2  C   UNL     1       3.899   3.285  17.820  0.00  0.00    +0.000 A 
ATOM      3  N   UNL     1       3.681   1.975  17.883  0.00  0.00    +0.000 NA
ATOM      4  C   UNL     1       2.914   1.792  19.004  0.00  0.00    +0.000 A 
ATOM      5  C   UNL     1       2.855   2.951  19.734  0.00  0.00    +0.000 A 
ATOM      6  N   UNL     1       3.572   3.902  19.034  0.00  0.00    +0.000 N 
ENDROOT
BRANCH   5   7
ATOM      7  N   UNL     1       2.186   3.131  20.984  0.00  0.00    +0.000 N 
ATOM      8  O   UNL     1       1.121   3.756  20.932  0.00  0.00    +0.000 OA
ATOM      9  O   UNL     1       2.703   2.657  21.995  0.00  0.00    +0.000 OA
ENDBRANCH   5   7
BRANCH   6  10
ATOM     10  C   UNL     1       3.980   5.215  19.538  0.00  0.00    +0.000 C 
BRANCH  10  11
ATOM     11  C   UNL     1       3.159   6.392  19.038  0.00  0.00    +0.000 C 
BRANCH  11  12
ATOM     12  O   UNL     1       2.210   6.855  19.986  0.00  0.00    +0.000 OA
BRANCH  12  13
ATOM     13  C   UNL     1       1.714   8.100  19.752  0.00  0.00    +0.000 C 
ATOM     14  S   UNL     1       1.915   8.796  18.224  0.00  0.00    +0.000 S 
ATOM     15  S   UNL     1       0.995   8.761  21.112  0.00  0.00    +0.000 SA
ENDBRANCH  12  13
ENDBRANCH  11  12
ENDBRANCH  10  11
ENDBRANCH   6  10
TORSDOF 5
ENDMDL
MODEL 6
REMARK VINA RESULT:      -5.1      3.526      5.389
REMARK  Name = 
REMARK  6 active torsions:
REMARK  status: ('A' for Active; 'I' for Inactive)
REMARK    1  A    between atoms: C_1  and  C_2
REMARK    2  A    between atoms: C_5  and  N_6
REMARK    3  A    between atoms: N_9  and  C_10
REMARK    4  A    between atoms: C_10  and  C_11
REMARK    5  A    between atoms: C_11  and  O_12
REMARK    6  A    between atoms: O_12  and  C_13
REMARK                            x       y       z     vdW  Elec       q    Type
REMARK                         _______ _______ _______ _____ _____    ______ ____
ROOT
ATOM      1  C   UNL     1       5.990   4.057  14.402  0.00  0.00    +0.000 C 
ATOM      2  C   UNL     1       5.491   4.947  15.491  0.00  0.00    +0.000 A 
ATOM      3  N   UNL     1       5.579   6.272  15.414  0.00  0.00    +0.000 NA
ATOM      4  C   UNL     1       5.348   6.723  16.687  0.00  0.00    +0.000 A 
ATOM      5  C   UNL     1       4.906   5.697  17.482  0.00  0.00    +0.000 A 
ATOM      6  N   UNL     1       4.895   4.560  16.698  0.00  0.00    +0.000 N 
ENDROOT
BRANCH   5   7
ATOM      7  N   UNL     1       4.522   5.794  18.855  0.00  0.00    +0.000 N 
ATOM      8  O   UNL     1       5.362   5.397  19.672  0.00  0.00    +0.000 OA
ATOM      9  O   UNL     1       3.414   6.260  19.119  0.00  0.00    +0.000 OA
ENDBRANCH   5   7
BRANCH   6  10
ATOM     10  C   UNL     1       4.276   3.279  17.048  0.00  0.00    +0.000 C 
BRANCH  10  11
ATOM     11  C   UNL     1       2.769   3.313  17.246  0.00  0.00    +0.000 C 
BRANCH  11  12
ATOM     12  O   UNL     1       2.310   2.379  18.210  0.00  0.00    +0.000 OA
BRANCH  12  13
ATOM     13  C   UNL     1       2.395   2.789  19.504  0.00  0.00    +0.000 C 
ATOM     14  S   UNL     1       3.754   2.364  20.418  0.00  0.00    +0.000 S 
ATOM     15  S   UNL     1       1.044   3.651  19.986  0.00  0.00    +0.000 SA
ENDBRANCH  12  13
ENDBRANCH  11  12
ENDBRANCH  10  11
ENDBRANCH   6  10
TORSDOF 5
ENDMDL
MODEL 7
REMARK VINA RESULT:      -5.1      1.668      2.267
REMARK  Name = 
REMARK  6 active torsions:
REMARK  status: ('A' for Active; 'I' for Inactive)
REMARK    1  A    between atoms: C_1  and  C_2
REMARK    2  A    between atoms: C_5  and  N_6
REMARK    3  A    between atoms: N_9  and  C_10
REMARK    4  A    between atoms: C_10  and  C_11
REMARK    5  A    between atoms: C_11  and  O_12
REMARK    6  A    between atoms: O_12  and  C_13
REMARK                            x       y       z     vdW  Elec       q    Type
REMARK                         _______ _______ _______ _____ _____    ______ ____
ROOT
ATOM      1  C   UNL     1       1.272   4.710  17.400  0.00  0.00    +0.000 C 
ATOM      2  C   UNL     1       2.096   3.668  18.083  0.00  0.00    +0.000 A 
ATOM      3  N   UNL     1       2.129   2.408  17.660  0.00  0.00    +0.000 NA
ATOM      4  C   UNL     1       2.690   1.698  18.688  0.00  0.00    +0.000 A 
ATOM      5  C   UNL     1       3.194   2.551  19.636  0.00  0.00    +0.000 A 
ATOM      6  N   UNL     1       2.908   3.834  19.212  0.00  0.00    +0.000 N 
ENDROOT
BRANCH   5   7
ATOM      7  N   UNL     1       3.888   2.178  20.828  0.00  0.00    +0.000 N 
ATOM      8  O   UNL     1       5.072   1.854  20.676  0.00  0.00    +0.000 OA
ATOM      9  O   UNL     1       3.275   2.213  21.895  0.00  0.00    +0.000 OA
ENDBRANCH   5   7
BRANCH   6  10
ATOM     10  C   UNL     1       3.455   5.070  19.778  0.00  0.00    +0.000 C 
BRANCH  10  11
ATOM     11  C   UNL     1       4.814   5.490  19.240  0.00  0.00    +0.000 C 
BRANCH  11  12
ATOM     12  O   UNL     1       4.734   6.206  18.018  0.00  0.00    +0.000 OA
BRANCH  12  13
ATOM     13  C   UNL     1       5.789   6.039  17.176  0.00  0.00    +0.000 C 
ATOM     14  S   UNL     1       7.269   6.769  17.551  0.00  0.00    +0.000 S 
ATOM     15  S   UNL     1       5.389   5.127  15.831  0.00  0.00    +0.000 SA
ENDBRANCH  12  13
ENDBRANCH  11  12
ENDBRANCH  10  11
ENDBRANCH   6  10
TORSDOF 5
ENDMDL
MODEL 8
REMARK VINA RESULT:      -5.1      1.500      1.840
REMARK  Name = 
REMARK  6 active torsions:
REMARK  status: ('A' for Active; 'I' for Inactive)
REMARK    1  A    between atoms: C_1  and  C_2
REMARK    2  A    between atoms: C_5  and  N_6
REMARK    3  A    between atoms: N_9  and  C_10
REMARK    4  A    between atoms: C_10  and  C_11
REMARK    5  A    between atoms: C_11  and  O_12
REMARK    6  A    between atoms: O_12  and  C_13
REMARK                            x       y       z     vdW  Elec       q    Type
REMARK                         _______ _______ _______ _____ _____    ______ ____
ROOT
ATOM      1  C   UNL     1       2.696   6.997  18.239  0.00  0.00    +0.000 C 
ATOM      2  C   UNL     1       2.709   5.630  18.839  0.00  0.00    +0.000 A 
ATOM      3  N   UNL     1       2.080   5.355  19.978  0.00  0.00    +0.000 NA
ATOM      4  C   UNL     1       2.578   4.144  20.382  0.00  0.00    +0.000 A 
ATOM      5  C   UNL     1       3.339   3.587  19.386  0.00  0.00    +0.000 A 
ATOM      6  N   UNL     1       3.352   4.489  18.340  0.00  0.00    +0.000 N 
ENDROOT
BRANCH   5   7
ATOM      7  N   UNL     1       3.984   2.313  19.425  0.00  0.00    +0.000 N 
ATOM      8  O   UNL     1       4.927   2.217  20.219  0.00  0.00    +0.000 OA
ATOM      9  O   UNL     1       3.560   1.422  18.689  0.00  0.00    +0.000 OA
ENDBRANCH   5   7
BRANCH   6  10
ATOM     10  C   UNL     1       3.836   4.227  16.983  0.00  0.00    +0.000 C 
BRANCH  10  11
ATOM     11  C   UNL     1       5.332   4.403  16.776  0.00  0.00    +0.000 C 
BRANCH  11  12
ATOM     12  O   UNL     1       5.731   5.763  16.716  0.00  0.00    +0.000 OA
BRANCH  12  13
ATOM     13  C   UNL     1       6.881   6.061  17.378  0.00  0.00    +0.000 C 
ATOM     14  S   UNL     1       7.397   7.671  17.456  0.00  0.00    +0.000 S 
ATOM     15  S   UNL     1       7.633   4.696  17.989  0.00  0.00    +0.000 SA
ENDBRANCH  12  13
ENDBRANCH  11  12
ENDBRANCH  10  11
ENDBRANCH   6  10
TORSDOF 5
ENDMDL
MODEL 9
REMARK VINA RESULT:      -5.0      1.222      1.561
REMARK  Name = 
REMARK  6 active torsions:
REMARK  status: ('A' for Active; 'I' for Inactive)
REMARK    1  A    between atoms: C_1  and  C_2
REMARK    2  A    between atoms: C_5  and  N_6
REMARK    3  A    between atoms: N_9  and  C_10
REMARK    4  A    between atoms: C_10  and  C_11
REMARK    5  A    between atoms: C_11  and  O_12
REMARK    6  A    between atoms: O_12  and  C_13
REMARK                            x       y       z     vdW  Elec       q    Type
REMARK                         _______ _______ _______ _____ _____    ______ ____
ROOT
ATOM      1  C   UNL     1       1.569   6.093  20.637  0.00  0.00    +0.000 C 
ATOM      2  C   UNL     1       2.017   4.669  20.600  0.00  0.00    +0.000 A 
ATOM      3  N   UNL     1       1.753   3.822  21.590  0.00  0.00    +0.000 NA
ATOM      4  C   UNL     1       2.580   2.751  21.377  0.00  0.00    +0.000 A 
ATOM      5  C   UNL     1       3.180   2.850  20.148  0.00  0.00    +0.000 A 
ATOM      6  N   UNL     1       2.748   4.036  19.587  0.00  0.00    +0.000 N 
ENDROOT
BRANCH   5   7
ATOM      7  N   UNL     1       4.072   1.900  19.561  0.00  0.00    +0.000 N 
ATOM      8  O   UNL     1       3.638   1.304  18.569  0.00  0.00    +0.000 OA
ATOM      9  O   UNL     1       5.183   1.753  20.069  0.00  0.00    +0.000 OA
ENDBRANCH   5   7
BRANCH   6  10
ATOM     10  C   UNL     1       2.936   4.448  18.194  0.00  0.00    +0.000 C 
BRANCH  10  11
ATOM     11  C   UNL     1       3.718   5.736  17.992  0.00  0.00    +0.000 C 
BRANCH  11  12
ATOM     12  O   UNL     1       5.079   5.631  18.379  0.00  0.00    +0.000 OA
BRANCH  12  13
ATOM     13  C   UNL     1       5.962   5.459  17.359  0.00  0.00    +0.000 C 
ATOM     14  S   UNL     1       7.460   4.741  17.675  0.00  0.00    +0.000 S 
ATOM     15  S   UNL     1       5.381   6.064  15.910  0.00  0.00    +0.000 SA
ENDBRANCH  12  13
ENDBRANCH  11  12
ENDBRANCH  10  11
ENDBRANCH   6  10
TORSDOF 5
ENDMDL
