MODEL 1
REMARK VINA RESULT:      -8.0      0.000      0.000
REMARK  Name = 
REMARK  3 active torsions:
REMARK  status: ('A' for Active; 'I' for Inactive)
REMARK    1  A    between atoms: C_1  and  C_2
REMARK    2  A    between atoms: C_4  and  C_5
REMARK    3  A    between atoms: C_7  and  C_8
REMARK                            x       y       z     vdW  Elec       q    Type
REMARK                         _______ _______ _______ _____ _____    ______ ____
ROOT
ATOM      1  C   UNL     1      -0.792  10.395  22.985  0.00  0.00    +0.000 C 
ATOM      2  C   UNL     1      -0.013   9.756  21.874  0.00  0.00    +0.000 A 
ATOM      3  C   UNL     1       0.306  10.468  20.731  0.00  0.00    +0.000 A 
ATOM      4  C   UNL     1       1.036   9.877  19.678  0.00  0.00    +0.000 A 
ATOM      5  C   UNL     1       1.288  10.795  18.512  0.00  0.00    +0.000 C 
ATOM      6  C   UNL     1       1.480   8.500  19.758  0.00  0.00    +0.000 A 
ATOM      7  C   UNL     1       2.230   7.707  18.805  0.00  0.00    +0.000 A 
ATOM      8  C   UNL     1       2.707   8.237  17.470  0.00  0.00    +0.000 C 
ATOM      9  C   UNL     1       2.572   6.334  19.085  0.00  0.00    +0.000 A 
ATOM     10  C   UNL     1       3.305   5.469  18.219  0.00  0.00    +0.000 A 
ATOM     11  F   UNL     1       3.745   5.902  17.028  0.00  0.00    +0.000 F 
ATOM     12  C   UNL     1       3.600   4.155  18.552  0.00  0.00    +0.000 A 
ATOM     13  F   UNL     1       4.293   3.386  17.701  0.00  0.00    +0.000 F 
ATOM     14  C   UNL     1       3.177   3.655  19.758  0.00  0.00    +0.000 A 
ATOM     15  F   UNL     1       3.453   2.387  20.096  0.00  0.00    +0.000 F 
ATOM     16  C   UNL     1       2.461   4.471  20.623  0.00  0.00    +0.000 A 
ATOM     17  F   UNL     1       2.061   3.950  21.795  0.00  0.00    +0.000 F 
ATOM     18  C   UNL     1       2.151   5.800  20.312  0.00  0.00    +0.000 A 
ATOM     19  N   UNL     1       1.458   6.530  21.195  0.00  0.00    +0.000 NA
ATOM     20  C   UNL     1       1.136   7.806  20.946  0.00  0.00    +0.000 A 
ATOM     21  C   UNL     1       0.411   8.431  21.957  0.00  0.00    +0.000 A 
ENDROOT
TORSDOF 0
ENDMDL
MODEL 2
REMARK VINA RESULT:      -7.9      2.928      6.656
REMARK  Name = 
REMARK  3 active torsions:
REMARK  status: ('A' for Active; 'I' for Inactive)
REMARK    1  A    between atoms: C_1  and  C_2
REMARK    2  A    between atoms: C_4  and  C_5
REMARK    3  A    between atoms: C_7  and  C_8
REMARK                            x       y       z     vdW  Elec       q    Type
REMARK                         _______ _______ _______ _____ _____    ______ ____
ROOT
ATOM      1  C   UNL     1       6.335   4.943  14.951  0.00  0.00    +0.000 C 
ATOM      2  C   UNL     1       5.448   5.152  16.142  0.00  0.00    +0.000 A 
ATOM      3  C   UNL     1       5.282   4.153  17.086  0.00  0.00    +0.000 A 
ATOM      4  C   UNL     1       4.448   4.336  18.209  0.00  0.00    +0.000 A 
ATOM      5  C   UNL     1       4.382   3.146  19.128  0.00  0.00    +0.000 C 
ATOM      6  C   UNL     1       3.734   5.580  18.414  0.00  0.00    +0.000 A 
ATOM      7  C   UNL     1       2.837   5.973  19.483  0.00  0.00    +0.000 A 
ATOM      8  C   UNL     1       2.479   5.074  20.645  0.00  0.00    +0.000 C 
ATOM      9  C   UNL     1       2.222   7.278  19.496  0.00  0.00    +0.000 A 
ATOM     10  C   UNL     1       1.329   7.764  20.496  0.00  0.00    +0.000 A 
ATOM     11  F   UNL     1       0.988   6.996  21.542  0.00  0.00    +0.000 F 
ATOM     12  C   UNL     1       0.772   9.033  20.447  0.00  0.00    +0.000 A 
ATOM     13  F   UNL     1      -0.062   9.438  21.414  0.00  0.00    +0.000 F 
ATOM     14  C   UNL     1       1.084   9.865  19.401  0.00  0.00    +0.000 A 
ATOM     15  F   UNL     1       0.555  11.095  19.337  0.00  0.00    +0.000 F 
ATOM     16  C   UNL     1       1.950   9.422  18.410  0.00  0.00    +0.000 A 
ATOM     17  F   UNL     1       2.235  10.261  17.400  0.00  0.00    +0.000 F 
ATOM     18  C   UNL     1       2.526   8.147  18.437  0.00  0.00    +0.000 A 
ATOM     19  N   UNL     1       3.355   7.787  17.449  0.00  0.00    +0.000 NA
ATOM     20  C   UNL     1       3.933   6.578  17.427  0.00  0.00    +0.000 A 
ATOM     21  C   UNL     1       4.764   6.350  16.334  0.00  0.00    +0.000 A 
ENDROOT
TORSDOF 0
ENDMDL
MODEL 3
REMARK VINA RESULT:      -7.5      1.532      3.534
REMARK  Name = 
REMARK  3 active torsions:
REMARK  status: ('A' for Active; 'I' for Inactive)
REMARK    1  A    between atoms: C_1  and  C_2
REMARK    2  A    between atoms: C_4  and  C_5
REMARK    3  A    between atoms: C_7  and  C_8
REMARK                            x       y       z     vdW  Elec       q    Type
REMARK                         _______ _______ _______ _____ _____    ______ ____
ROOT
ATOM      1  C   UNL     1       1.119  12.140  18.461  0.00  0.00    +0.000 C 
ATOM      2  C   UNL     1       1.362  10.709  18.841  0.00  0.00    +0.000 A 
ATOM      3  C   UNL     1       0.782  10.169  19.976  0.00  0.00    +0.000 A 
ATOM      4  C   UNL     1       1.004   8.827  20.346  0.00  0.00    +0.000 A 
ATOM      5  C   UNL     1       0.299   8.410  21.609  0.00  0.00    +0.000 C 
ATOM      6  C   UNL     1       1.850   7.963  19.547  0.00  0.00    +0.000 A 
ATOM      7  C   UNL     1       2.209   6.572  19.743  0.00  0.00    +0.000 A 
ATOM      8  C   UNL     1       1.715   5.738  20.905  0.00  0.00    +0.000 C 
ATOM      9  C   UNL     1       3.079   5.890  18.816  0.00  0.00    +0.000 A 
ATOM     10  C   UNL     1       3.492   4.529  18.914  0.00  0.00    +0.000 A 
ATOM     11  F   UNL     1       3.075   3.757  19.930  0.00  0.00    +0.000 F 
ATOM     12  C   UNL     1       4.333   3.935  17.985  0.00  0.00    +0.000 A 
ATOM     13  F   UNL     1       4.690   2.651  18.126  0.00  0.00    +0.000 F 
ATOM     14  C   UNL     1       4.792   4.674  16.924  0.00  0.00    +0.000 A 
ATOM     15  F   UNL     1       5.606   4.116  16.015  0.00  0.00    +0.000 F 
ATOM     16  C   UNL     1       4.409   6.002  16.799  0.00  0.00    +0.000 A 
ATOM     17  F   UNL     1       4.877   6.698  15.749  0.00  0.00    +0.000 F 
ATOM     18  C   UNL     1       3.561   6.625  17.722  0.00  0.00    +0.000 A 
ATOM     19  N   UNL     1       3.231   7.910  17.538  0.00  0.00    +0.000 NA
ATOM     20  C   UNL     1       2.423   8.553  18.392  0.00  0.00    +0.000 A 
ATOM     21  C   UNL     1       2.176   9.883  18.070  0.00  0.00    +0.000 A 
ENDROOT
TORSDOF 0
ENDMDL
MODEL 4
REMARK VINA RESULT:      -7.4      2.387      4.702
REMARK  Name = 
REMARK  3 active torsions:
REMARK  status: ('A' for Active; 'I' for Inactive)
REMARK    1  A    between atoms: C_1  and  C_2
REMARK    2  A    between atoms: C_4  and  C_5
REMARK    3  A    between atoms: C_7  and  C_8
REMARK                            x       y       z     vdW  Elec       q    Type
REMARK                         _______ _______ _______ _____ _____    ______ ____
ROOT
ATOM      1  C   UNL     1       0.898   8.612  21.308  0.00  0.00    +0.000 C 
ATOM      2  C   UNL     1       1.481   7.414  20.621  0.00  0.00    +0.000 A 
ATOM      3  C   UNL     1       1.184   6.134  21.055  0.00  0.00    +0.000 A 
ATOM      4  C   UNL     1       1.729   4.999  20.419  0.00  0.00    +0.000 A 
ATOM      5  C   UNL     1       1.303   3.688  21.025  0.00  0.00    +0.000 C 
ATOM      6  C   UNL     1       2.621   5.135  19.284  0.00  0.00    +0.000 A 
ATOM      7  C   UNL     1       3.283   4.116  18.495  0.00  0.00    +0.000 A 
ATOM      8  C   UNL     1       3.135   2.632  18.752  0.00  0.00    +0.000 C 
ATOM      9  C   UNL     1       4.143   4.471  17.392  0.00  0.00    +0.000 A 
ATOM     10  C   UNL     1       4.840   3.551  16.554  0.00  0.00    +0.000 A 
ATOM     11  F   UNL     1       4.733   2.228  16.750  0.00  0.00    +0.000 F 
ATOM     12  C   UNL     1       5.652   3.962  15.508  0.00  0.00    +0.000 A 
ATOM     13  F   UNL     1       6.284   3.055  14.751  0.00  0.00    +0.000 F 
ATOM     14  C   UNL     1       5.800   5.304  15.258  0.00  0.00    +0.000 A 
ATOM     15  F   UNL     1       6.582   5.719  14.250  0.00  0.00    +0.000 F 
ATOM     16  C   UNL     1       5.136   6.225  16.056  0.00  0.00    +0.000 A 
ATOM     17  F   UNL     1       5.302   7.531  15.784  0.00  0.00    +0.000 F 
ATOM     18  C   UNL     1       4.310   5.837  17.116  0.00  0.00    +0.000 A 
ATOM     19  N   UNL     1       3.698   6.780  17.844  0.00  0.00    +0.000 NA
ATOM     20  C   UNL     1       2.897   6.462  18.869  0.00  0.00    +0.000 A 
ATOM     21  C   UNL     1       2.337   7.551  19.531  0.00  0.00    +0.000 A 
ENDROOT
TORSDOF 0
ENDMDL
MODEL 5
REMARK VINA RESULT:      -7.4      2.950      5.743
REMARK  Name = 
REMARK  3 active torsions:
REMARK  status: ('A' for Active; 'I' for Inactive)
REMARK    1  A    between atoms: C_1  and  C_2
REMARK    2  A    between atoms: C_4  and  C_5
REMARK    3  A    between atoms: C_7  and  C_8
REMARK                            x       y       z     vdW  Elec       q    Type
REMARK                         _______ _______ _______ _____ _____    ______ ____
ROOT
ATOM      1  C   UNL     1       2.534   2.483  21.411  0.00  0.00    +0.000 C 
ATOM      2  C   UNL     1       2.546   3.764  20.631  0.00  0.00    +0.000 A 
ATOM      3  C   UNL     1       3.190   3.845  19.409  0.00  0.00    +0.000 A 
ATOM      4  C   UNL     1       3.210   5.045  18.668  0.00  0.00    +0.000 A 
ATOM      5  C   UNL     1       3.959   4.952  17.366  0.00  0.00    +0.000 C 
ATOM      6  C   UNL     1       2.554   6.239  19.162  0.00  0.00    +0.000 A 
ATOM      7  C   UNL     1       2.455   7.558  18.571  0.00  0.00    +0.000 A 
ATOM      8  C   UNL     1       3.070   7.924  17.238  0.00  0.00    +0.000 C 
ATOM      9  C   UNL     1       1.747   8.622  19.240  0.00  0.00    +0.000 A 
ATOM     10  C   UNL     1       1.589   9.952  18.748  0.00  0.00    +0.000 A 
ATOM     11  F   UNL     1       2.119  10.314  17.569  0.00  0.00    +0.000 F 
ATOM     12  C   UNL     1       0.894  10.928  19.444  0.00  0.00    +0.000 A 
ATOM     13  F   UNL     1       0.776  12.162  18.935  0.00  0.00    +0.000 F 
ATOM     14  C   UNL     1       0.328  10.617  20.656  0.00  0.00    +0.000 A 
ATOM     15  F   UNL     1      -0.348  11.549  21.343  0.00  0.00    +0.000 F 
ATOM     16  C   UNL     1       0.464   9.332  21.163  0.00  0.00    +0.000 A 
ATOM     17  F   UNL     1      -0.101   9.061  22.352  0.00  0.00    +0.000 F 
ATOM     18  C   UNL     1       1.160   8.328  20.480  0.00  0.00    +0.000 A 
ATOM     19  N   UNL     1       1.249   7.110  21.028  0.00  0.00    +0.000 NA
ATOM     20  C   UNL     1       1.904   6.114  20.416  0.00  0.00    +0.000 A 
ATOM     21  C   UNL     1       1.913   4.909  21.111  0.00  0.00    +0.000 A 
ENDROOT
TORSDOF 0
ENDMDL
MODEL 6
REMARK VINA RESULT:      -7.3      4.123      5.708
REMARK  Name = 
REMARK  3 active torsions:
REMARK  status: ('A' for Active; 'I' for Inactive)
REMARK    1  A    between atoms: C_1  and  C_2
REMARK    2  A    between atoms: C_4  and  C_5
REMARK    3  A    between atoms: C_7  and  C_8
REMARK                            x       y       z     vdW  Elec       q    Type
REMARK                         _______ _______ _______ _____ _____    ______ ____
ROOT
ATOM      1  C   UNL     1       8.233   8.191  18.033  0.00  0.00    +0.000 C 
ATOM      2  C   UNL     1       7.295   7.067  17.712  0.00  0.00    +0.000 A 
ATOM      3  C   UNL     1       7.425   6.347  16.537  0.00  0.00    +0.000 A 
ATOM      4  C   UNL     1       6.546   5.289  16.223  0.00  0.00    +0.000 A 
ATOM      5  C   UNL     1       6.832   4.622  14.904  0.00  0.00    +0.000 C 
ATOM      6  C   UNL     1       5.474   4.916  17.124  0.00  0.00    +0.000 A 
ATOM      7  C   UNL     1       4.472   3.877  16.998  0.00  0.00    +0.000 A 
ATOM      8  C   UNL     1       4.383   2.943  15.812  0.00  0.00    +0.000 C 
ATOM      9  C   UNL     1       3.480   3.671  18.025  0.00  0.00    +0.000 A 
ATOM     10  C   UNL     1       2.454   2.681  18.001  0.00  0.00    +0.000 A 
ATOM     11  F   UNL     1       2.343   1.834  16.966  0.00  0.00    +0.000 F 
ATOM     12  C   UNL     1       1.530   2.538  19.025  0.00  0.00    +0.000 A 
ATOM     13  F   UNL     1       0.587   1.590  18.951  0.00  0.00    +0.000 F 
ATOM     14  C   UNL     1       1.594   3.375  20.111  0.00  0.00    +0.000 A 
ATOM     15  F   UNL     1       0.708   3.252  21.110  0.00  0.00    +0.000 F 
ATOM     16  C   UNL     1       2.580   4.351  20.165  0.00  0.00    +0.000 A 
ATOM     17  F   UNL     1       2.614   5.154  21.241  0.00  0.00    +0.000 F 
ATOM     18  C   UNL     1       3.525   4.515  19.146  0.00  0.00    +0.000 A 
ATOM     19  N   UNL     1       4.450   5.476  19.265  0.00  0.00    +0.000 NA
ATOM     20  C   UNL     1       5.377   5.675  18.318  0.00  0.00    +0.000 A 
ATOM     21  C   UNL     1       6.266   6.712  18.582  0.00  0.00    +0.000 A 
ENDROOT
TORSDOF 0
ENDMDL
MODEL 7
REMARK VINA RESULT:      -7.2      3.103      5.099
REMARK  Name = 
REMARK  3 active torsions:
REMARK  status: ('A' for Active; 'I' for Inactive)
REMARK    1  A    between atoms: C_1  and  C_2
REMARK    2  A    between atoms: C_4  and  C_5
REMARK    3  A    between atoms: C_7  and  C_8
REMARK                            x       y       z     vdW  Elec       q    Type
REMARK                         _______ _______ _______ _____ _____    ______ ____
ROOT
ATOM      1  C   UNL     1       1.392   2.507  21.875  0.00  0.00    +0.000 C 
ATOM      2  C   UNL     1       1.959   3.469  20.874  0.00  0.00    +0.000 A 
ATOM      3  C   UNL     1       1.706   4.826  20.972  0.00  0.00    +0.000 A 
ATOM      4  C   UNL     1       2.231   5.740  20.035  0.00  0.00    +0.000 A 
ATOM      5  C   UNL     1       1.851   7.173  20.293  0.00  0.00    +0.000 C 
ATOM      6  C   UNL     1       3.058   5.288  18.934  0.00  0.00    +0.000 A 
ATOM      7  C   UNL     1       3.690   6.047  17.873  0.00  0.00    +0.000 A 
ATOM      8  C   UNL     1       3.577   7.550  17.740  0.00  0.00    +0.000 C 
ATOM      9  C   UNL     1       4.483   5.392  16.861  0.00  0.00    +0.000 A 
ATOM     10  C   UNL     1       5.146   6.042  15.778  0.00  0.00    +0.000 A 
ATOM     11  F   UNL     1       5.069   7.373  15.626  0.00  0.00    +0.000 F 
ATOM     12  C   UNL     1       5.894   5.350  14.837  0.00  0.00    +0.000 A 
ATOM     13  F   UNL     1       6.497   6.011  13.840  0.00  0.00    +0.000 F 
ATOM     14  C   UNL     1       6.010   3.986  14.941  0.00  0.00    +0.000 A 
ATOM     15  F   UNL     1       6.729   3.300  14.040  0.00  0.00    +0.000 F 
ATOM     16  C   UNL     1       5.376   3.323  15.983  0.00  0.00    +0.000 A 
ATOM     17  F   UNL     1       5.509   1.988  16.055  0.00  0.00    +0.000 F 
ATOM     18  C   UNL     1       4.616   3.998  16.946  0.00  0.00    +0.000 A 
ATOM     19  N   UNL     1       4.034   3.295  17.925  0.00  0.00    +0.000 NA
ATOM     20  C   UNL     1       3.297   3.892  18.871  0.00  0.00    +0.000 A 
ATOM     21  C   UNL     1       2.754   3.029  19.818  0.00  0.00    +0.000 A 
ENDROOT
TORSDOF 0
ENDMDL
MODEL 8
REMARK VINA RESULT:      -7.0      3.367      6.005
REMARK  Name = 
REMARK  3 active torsions:
REMARK  status: ('A' for Active; 'I' for Inactive)
REMARK    1  A    between atoms: C_1  and  C_2
REMARK    2  A    between atoms: C_4  and  C_5
REMARK    3  A    between atoms: C_7  and  C_8
REMARK                            x       y       z     vdW  Elec       q    Type
REMARK                         _______ _______ _______ _____ _____    ______ ____
ROOT
ATOM      1  C   UNL     1       3.029   3.280  20.304  0.00  0.00    +0.000 C 
ATOM      2  C   UNL     1       2.753   4.702  19.920  0.00  0.00    +0.000 A 
ATOM      3  C   UNL     1       3.262   5.231  18.747  0.00  0.00    +0.000 A 
ATOM      4  C   UNL     1       3.011   6.569  18.375  0.00  0.00    +0.000 A 
ATOM      5  C   UNL     1       3.645   6.976  17.072  0.00  0.00    +0.000 C 
ATOM      6  C   UNL     1       2.208   7.438  19.212  0.00  0.00    +0.000 A 
ATOM      7  C   UNL     1       1.834   8.825  19.022  0.00  0.00    +0.000 A 
ATOM      8  C   UNL     1       2.255   9.648  17.825  0.00  0.00    +0.000 C 
ATOM      9  C   UNL     1       1.017   9.514  19.992  0.00  0.00    +0.000 A 
ATOM     10  C   UNL     1       0.592  10.873  19.902  0.00  0.00    +0.000 A 
ATOM     11  F   UNL     1       0.945  11.634  18.855  0.00  0.00    +0.000 F 
ATOM     12  C   UNL     1      -0.195  11.475  20.873  0.00  0.00    +0.000 A 
ATOM     13  F   UNL     1      -0.566  12.755  20.738  0.00  0.00    +0.000 F 
ATOM     14  C   UNL     1      -0.588  10.746  21.967  0.00  0.00    +0.000 A 
ATOM     15  F   UNL     1      -1.349  11.311  22.916  0.00  0.00    +0.000 F 
ATOM     16  C   UNL     1      -0.191   9.421  22.085  0.00  0.00    +0.000 A 
ATOM     17  F   UNL     1      -0.592   8.736  23.169  0.00  0.00    +0.000 F 
ATOM     18  C   UNL     1       0.602   8.790  21.120  0.00  0.00    +0.000 A 
ATOM     19  N   UNL     1       0.946   7.508  21.297  0.00  0.00    +0.000 NA
ATOM     20  C   UNL     1       1.704   6.858  20.403  0.00  0.00    +0.000 A 
ATOM     21  C   UNL     1       1.980   5.534  20.728  0.00  0.00    +0.000 A 
ENDROOT
TORSDOF 0
ENDMDL
MODEL 9
REMARK VINA RESULT:      -6.9      2.106      4.086
REMARK  Name = 
REMARK  3 active torsions:
REMARK  status: ('A' for Active; 'I' for Inactive)
REMARK    1  A    between atoms: C_1  and  C_2
REMARK    2  A    between atoms: C_4  and  C_5
REMARK    3  A    between atoms: C_7  and  C_8
REMARK                            x       y       z     vdW  Elec       q    Type
REMARK                         _______ _______ _______ _____ _____    ______ ____
ROOT
ATOM      1  C   UNL     1       0.500  11.396  18.778  0.00  0.00    +0.000 C 
ATOM      2  C   UNL     1       1.141  10.047  18.909  0.00  0.00    +0.000 A 
ATOM      3  C   UNL     1       0.915   9.260  20.025  0.00  0.00    +0.000 A 
ATOM      4  C   UNL     1       1.514   7.991  20.161  0.00  0.00    +0.000 A 
ATOM      5  C   UNL     1       1.163   7.277  21.439  0.00  0.00    +0.000 C 
ATOM      6  C   UNL     1       2.389   7.464  19.133  0.00  0.00    +0.000 A 
ATOM      7  C   UNL     1       3.099   6.202  19.073  0.00  0.00    +0.000 A 
ATOM      8  C   UNL     1       3.031   5.153  20.160  0.00  0.00    +0.000 C 
ATOM      9  C   UNL     1       3.930   5.869  17.941  0.00  0.00    +0.000 A 
ATOM     10  C   UNL     1       4.669   4.659  17.782  0.00  0.00    +0.000 A 
ATOM     11  F   UNL     1       4.633   3.705  18.725  0.00  0.00    +0.000 F 
ATOM     12  C   UNL     1       5.451   4.403  16.666  0.00  0.00    +0.000 A 
ATOM     13  F   UNL     1       6.124   3.249  16.567  0.00  0.00    +0.000 F 
ATOM     14  C   UNL     1       5.526   5.342  15.667  0.00  0.00    +0.000 A 
ATOM     15  F   UNL     1       6.277   5.111  14.580  0.00  0.00    +0.000 F 
ATOM     16  C   UNL     1       4.820   6.531  15.792  0.00  0.00    +0.000 A 
ATOM     17  F   UNL     1       4.915   7.428  14.797  0.00  0.00    +0.000 F 
ATOM     18  C   UNL     1       4.023   6.813  16.907  0.00  0.00    +0.000 A 
ATOM     19  N   UNL     1       3.368   7.979  16.960  0.00  0.00    +0.000 NA
ATOM     20  C   UNL     1       2.592   8.298  18.005  0.00  0.00    +0.000 A 
ATOM     21  C   UNL     1       1.981   9.545  17.917  0.00  0.00    +0.000 A 
ENDROOT
TORSDOF 0
ENDMDL
