MODEL 1
REMARK VINA RESULT:      -7.4      0.000      0.000
REMARK  Name = 
REMARK  8 active torsions:
REMARK  status: ('A' for Active; 'I' for Inactive)
REMARK    1  A    between atoms: C_1  and  C_2
REMARK    2  A    between atoms: C_2  and  C_3
REMARK    3  A    between atoms: C_2  and  C_4
REMARK    4  A    between atoms: C_8  and  N_9
REMARK    5  A    between atoms: C_10  and  C_12
REMARK    6  A    between atoms: C_12  and  C_13
REMARK    7  A    between atoms: C_13  and  N_14
REMARK    8  A    between atoms: N_22  and  C_23
REMARK                            x       y       z     vdW  Elec       q    Type
REMARK                         _______ _______ _______ _____ _____    ______ ____
ROOT
ATOM      1  C   UNL     1       0.013  10.442  20.931  0.00  0.00    +0.000 A 
ATOM      2  N   UNL     1       0.582   9.320  21.326  0.00  0.00    +0.000 NA
ATOM      3  C   UNL     1       1.219   8.803  20.226  0.00  0.00    +0.000 A 
ATOM      4  C   UNL     1       1.970   7.621  20.096  0.00  0.00    +0.000 A 
ATOM      5  C   UNL     1       2.501   7.266  18.846  0.00  0.00    +0.000 A 
ATOM      6  C   UNL     1       2.260   8.086  17.739  0.00  0.00    +0.000 A 
ATOM      7  C   UNL     1       1.541   9.288  17.853  0.00  0.00    +0.000 A 
ATOM      8  C   UNL     1       1.035   9.615  19.116  0.00  0.00    +0.000 A 
ATOM      9  N   UNL     1       0.301  10.677  19.597  0.00  0.00    +0.000 N 
ATOM     10  C   UNL     1      -0.111  11.825  18.831  0.00  0.00    +0.000 C 
ENDROOT
BRANCH   5  11
ATOM     11  N   UNL     1       3.265   6.088  18.644  0.00  0.00    +0.000 N 
ATOM     12  C   UNL     1       2.743   4.815  18.575  0.00  0.00    +0.000 C 
ATOM     13  O   UNL     1       1.573   4.511  18.794  0.00  0.00    +0.000 OA
ATOM     14  H   UNL     1       4.273   6.191  18.653  0.00  0.00    +0.000 HD
BRANCH  12  15
ATOM     15  C   UNL     1       3.743   3.723  18.264  0.00  0.00    +0.000 C 
BRANCH  15  16
ATOM     16  C   UNL     1       4.313   4.016  16.875  0.00  0.00    +0.000 C 
BRANCH  16  17
ATOM     17  N   UNL     1       5.733   4.244  16.850  0.00  0.00    +0.000 N 
ATOM     18  C   UNL     1       6.566   4.212  15.778  0.00  0.00    +0.000 A 
ATOM     19  N   UNL     1       7.761   4.581  16.176  0.00  0.00    +0.000 NA
ATOM     20  N   UNL     1       7.642   4.859  17.518  0.00  0.00    +0.000 NA
ATOM     21  N   UNL     1       6.398   4.659  17.937  0.00  0.00    +0.000 NA
ENDBRANCH  16  17
ENDBRANCH  15  16
ENDBRANCH  12  15
ENDBRANCH   5  11
BRANCH   1  23
ATOM     22  C   UNL     1      -1.118  10.694  23.142  0.00  0.00    +0.000 C 
ATOM     23  C   UNL     1      -0.855  11.336  21.780  0.00  0.00    +0.000 C 
ATOM     24  C   UNL     1      -0.223  12.718  21.974  0.00  0.00    +0.000 C 
ENDBRANCH   1  23
TORSDOF 5
ENDMDL
MODEL 2
REMARK VINA RESULT:      -7.4      1.972      8.327
REMARK  Name = 
REMARK  8 active torsions:
REMARK  status: ('A' for Active; 'I' for Inactive)
REMARK    1  A    between atoms: C_1  and  C_2
REMARK    2  A    between atoms: C_2  and  C_3
REMARK    3  A    between atoms: C_2  and  C_4
REMARK    4  A    between atoms: C_8  and  N_9
REMARK    5  A    between atoms: C_10  and  C_12
REMARK    6  A    between atoms: C_12  and  C_13
REMARK    7  A    between atoms: C_13  and  N_14
REMARK    8  A    between atoms: N_22  and  C_23
REMARK                            x       y       z     vdW  Elec       q    Type
REMARK                         _______ _______ _______ _____ _____    ______ ____
ROOT
ATOM      1  C   UNL     1       4.841   5.147  16.962  0.00  0.00    +0.000 A 
ATOM      2  N   UNL     1       4.526   6.400  16.694  0.00  0.00    +0.000 NA
ATOM      3  C   UNL     1       3.675   6.805  17.692  0.00  0.00    +0.000 A 
ATOM      4  C   UNL     1       3.041   8.046  17.881  0.00  0.00    +0.000 A 
ATOM      5  C   UNL     1       2.167   8.223  18.965  0.00  0.00    +0.000 A 
ATOM      6  C   UNL     1       1.924   7.155  19.835  0.00  0.00    +0.000 A 
ATOM      7  C   UNL     1       2.573   5.918  19.683  0.00  0.00    +0.000 A 
ATOM      8  C   UNL     1       3.445   5.779  18.597  0.00  0.00    +0.000 A 
ATOM      9  N   UNL     1       4.232   4.746  18.139  0.00  0.00    +0.000 N 
ATOM     10  C   UNL     1       4.375   3.460  18.771  0.00  0.00    +0.000 C 
ENDROOT
BRANCH   5  11
ATOM     11  N   UNL     1       1.493   9.447  19.214  0.00  0.00    +0.000 N 
ATOM     12  C   UNL     1       0.376   9.881  18.535  0.00  0.00    +0.000 C 
ATOM     13  O   UNL     1      -0.118   9.334  17.552  0.00  0.00    +0.000 OA
ATOM     14  H   UNL     1       1.930  10.083  19.870  0.00  0.00    +0.000 HD
BRANCH  12  15
ATOM     15  C   UNL     1      -0.223  11.177  19.036  0.00  0.00    +0.000 C 
BRANCH  15  16
ATOM     16  C   UNL     1       0.660  11.665  20.186  0.00  0.00    +0.000 C 
BRANCH  16  17
ATOM     17  N   UNL     1       0.238  11.227  21.490  0.00  0.00    +0.000 N 
ATOM     18  C   UNL     1      -0.882  11.583  22.169  0.00  0.00    +0.000 A 
ATOM     19  N   UNL     1      -0.936  10.873  23.272  0.00  0.00    +0.000 NA
ATOM     20  N   UNL     1       0.172  10.057  23.248  0.00  0.00    +0.000 NA
ATOM     21  N   UNL     1       0.894  10.265  22.154  0.00  0.00    +0.000 NA
ENDBRANCH  16  17
ENDBRANCH  15  16
ENDBRANCH  12  15
ENDBRANCH   5  11
BRANCH   1  23
ATOM     22  C   UNL     1       5.442   4.507  14.625  0.00  0.00    +0.000 C 
ATOM     23  C   UNL     1       5.707   4.255  16.110  0.00  0.00    +0.000 C 
ATOM     24  C   UNL     1       7.194   4.457  16.410  0.00  0.00    +0.000 C 
ENDBRANCH   1  23
TORSDOF 5
ENDMDL
MODEL 3
REMARK VINA RESULT:      -7.3      2.170      3.328
REMARK  Name = 
REMARK  8 active torsions:
REMARK  status: ('A' for Active; 'I' for Inactive)
REMARK    1  A    between atoms: C_1  and  C_2
REMARK    2  A    between atoms: C_2  and  C_3
REMARK    3  A    between atoms: C_2  and  C_4
REMARK    4  A    between atoms: C_8  and  N_9
REMARK    5  A    between atoms: C_10  and  C_12
REMARK    6  A    between atoms: C_12  and  C_13
REMARK    7  A    between atoms: C_13  and  N_14
REMARK    8  A    between atoms: N_22  and  C_23
REMARK                            x       y       z     vdW  Elec       q    Type
REMARK                         _______ _______ _______ _____ _____    ______ ____
ROOT
ATOM      1  C   UNL     1       0.573  10.008  21.033  0.00  0.00    +0.000 A 
ATOM      2  N   UNL     1       0.837   8.756  21.351  0.00  0.00    +0.000 NA
ATOM      3  C   UNL     1       1.471   8.208  20.263  0.00  0.00    +0.000 A 
ATOM      4  C   UNL     1       1.958   6.903  20.073  0.00  0.00    +0.000 A 
ATOM      5  C   UNL     1       2.541   6.549  18.845  0.00  0.00    +0.000 A 
ATOM      6  C   UNL     1       2.612   7.497  17.819  0.00  0.00    +0.000 A 
ATOM      7  C   UNL     1       2.161   8.815  18.001  0.00  0.00    +0.000 A 
ATOM      8  C   UNL     1       1.595   9.136  19.240  0.00  0.00    +0.000 A 
ATOM      9  N   UNL     1       1.057  10.289  19.767  0.00  0.00    +0.000 N 
ATOM     10  C   UNL     1       0.993  11.563  19.098  0.00  0.00    +0.000 C 
ENDROOT
BRANCH   5  11
ATOM     11  N   UNL     1       3.052   5.251  18.585  0.00  0.00    +0.000 N 
ATOM     12  C   UNL     1       2.421   4.298  17.816  0.00  0.00    +0.000 C 
ATOM     13  O   UNL     1       1.288   4.393  17.352  0.00  0.00    +0.000 OA
ATOM     14  H   UNL     1       3.890   4.982  19.086  0.00  0.00    +0.000 HD
BRANCH  12  15
ATOM     15  C   UNL     1       3.199   3.018  17.605  0.00  0.00    +0.000 C 
BRANCH  15  16
ATOM     16  C   UNL     1       2.556   1.949  18.489  0.00  0.00    +0.000 C 
BRANCH  16  17
ATOM     17  N   UNL     1       2.359   2.345  19.858  0.00  0.00    +0.000 N 
ATOM     18  C   UNL     1       1.186   2.481  20.528  0.00  0.00    +0.000 A 
ATOM     19  N   UNL     1       1.460   2.755  21.783  0.00  0.00    +0.000 NA
ATOM     20  N   UNL     1       2.833   2.768  21.874  0.00  0.00    +0.000 NA
ATOM     21  N   UNL     1       3.391   2.511  20.697  0.00  0.00    +0.000 NA
ENDBRANCH  16  17
ENDBRANCH  15  16
ENDBRANCH  12  15
ENDBRANCH   5  11
BRANCH   1  23
ATOM     22  C   UNL     1      -1.351  11.596  21.122  0.00  0.00    +0.000 C 
ATOM     23  C   UNL     1      -0.174  10.997  21.892  0.00  0.00    +0.000 C 
ATOM     24  C   UNL     1      -0.677  10.353  23.187  0.00  0.00    +0.000 C 
ENDBRANCH   1  23
TORSDOF 5
ENDMDL
MODEL 4
REMARK VINA RESULT:      -7.3      1.189      2.445
REMARK  Name = 
REMARK  8 active torsions:
REMARK  status: ('A' for Active; 'I' for Inactive)
REMARK    1  A    between atoms: C_1  and  C_2
REMARK    2  A    between atoms: C_2  and  C_3
REMARK    3  A    between atoms: C_2  and  C_4
REMARK    4  A    between atoms: C_8  and  N_9
REMARK    5  A    between atoms: C_10  and  C_12
REMARK    6  A    between atoms: C_12  and  C_13
REMARK    7  A    between atoms: C_13  and  N_14
REMARK    8  A    between atoms: N_22  and  C_23
REMARK                            x       y       z     vdW  Elec       q    Type
REMARK                         _______ _______ _______ _____ _____    ______ ____
ROOT
ATOM      1  C   UNL     1       0.807  10.955  19.146  0.00  0.00    +0.000 A 
ATOM      2  N   UNL     1       1.468  10.292  18.217  0.00  0.00    +0.000 NA
ATOM      3  C   UNL     1       1.716   9.046  18.735  0.00  0.00    +0.000 A 
ATOM      4  C   UNL     1       2.391   7.955  18.163  0.00  0.00    +0.000 A 
ATOM      5  C   UNL     1       2.565   6.775  18.905  0.00  0.00    +0.000 A 
ATOM      6  C   UNL     1       2.078   6.709  20.214  0.00  0.00    +0.000 A 
ATOM      7  C   UNL     1       1.371   7.775  20.793  0.00  0.00    +0.000 A 
ATOM      8  C   UNL     1       1.208   8.932  20.022  0.00  0.00    +0.000 A 
ATOM      9  N   UNL     1       0.594  10.144  20.248  0.00  0.00    +0.000 N 
ATOM     10  C   UNL     1      -0.128  10.506  21.440  0.00  0.00    +0.000 C 
ENDROOT
BRANCH   5  11
ATOM     11  N   UNL     1       3.238   5.637  18.389  0.00  0.00    +0.000 N 
ATOM     12  C   UNL     1       2.636   4.624  17.677  0.00  0.00    +0.000 C 
ATOM     13  O   UNL     1       1.428   4.503  17.493  0.00  0.00    +0.000 OA
ATOM     14  H   UNL     1       4.209   5.523  18.654  0.00  0.00    +0.000 HD
BRANCH  12  15
ATOM     15  C   UNL     1       3.572   3.559  17.150  0.00  0.00    +0.000 C 
BRANCH  15  16
ATOM     16  C   UNL     1       4.986   3.948  17.584  0.00  0.00    +0.000 C 
BRANCH  16  17
ATOM     17  N   UNL     1       5.834   4.405  16.515  0.00  0.00    +0.000 N 
ATOM     18  C   UNL     1       6.805   5.352  16.566  0.00  0.00    +0.000 A 
ATOM     19  N   UNL     1       7.406   5.386  15.399  0.00  0.00    +0.000 NA
ATOM     20  N   UNL     1       6.792   4.423  14.631  0.00  0.00    +0.000 NA
ATOM     21  N   UNL     1       5.829   3.813  15.313  0.00  0.00    +0.000 NA
ENDBRANCH  16  17
ENDBRANCH  15  16
ENDBRANCH  12  15
ENDBRANCH   5  11
BRANCH   1  23
ATOM     22  C   UNL     1       1.439  13.243  18.373  0.00  0.00    +0.000 C 
ATOM     23  C   UNL     1       0.367  12.394  19.058  0.00  0.00    +0.000 C 
ATOM     24  C   UNL     1      -0.960  12.535  18.308  0.00  0.00    +0.000 C 
ENDBRANCH   1  23
TORSDOF 5
ENDMDL
MODEL 5
REMARK VINA RESULT:      -7.2      1.209      2.293
REMARK  Name = 
REMARK  8 active torsions:
REMARK  status: ('A' for Active; 'I' for Inactive)
REMARK    1  A    between atoms: C_1  and  C_2
REMARK    2  A    between atoms: C_2  and  C_3
REMARK    3  A    between atoms: C_2  and  C_4
REMARK    4  A    between atoms: C_8  and  N_9
REMARK    5  A    between atoms: C_10  and  C_12
REMARK    6  A    between atoms: C_12  and  C_13
REMARK    7  A    between atoms: C_13  and  N_14
REMARK    8  A    between atoms: N_22  and  C_23
REMARK                            x       y       z     vdW  Elec       q    Type
REMARK                         _______ _______ _______ _____ _____    ______ ____
ROOT
ATOM      1  C   UNL     1       0.499  10.830  19.522  0.00  0.00    +0.000 A 
ATOM      2  N   UNL     1       1.125  10.378  18.453  0.00  0.00    +0.000 NA
ATOM      3  C   UNL     1       1.592   9.129  18.780  0.00  0.00    +0.000 A 
ATOM      4  C   UNL     1       2.331   8.217  18.007  0.00  0.00    +0.000 A 
ATOM      5  C   UNL     1       2.742   6.998  18.570  0.00  0.00    +0.000 A 
ATOM      6  C   UNL     1       2.425   6.715  19.903  0.00  0.00    +0.000 A 
ATOM      7  C   UNL     1       1.660   7.598  20.682  0.00  0.00    +0.000 A 
ATOM      8  C   UNL     1       1.258   8.799  20.086  0.00  0.00    +0.000 A 
ATOM      9  N   UNL     1       0.523   9.877  20.526  0.00  0.00    +0.000 N 
ATOM     10  C   UNL     1      -0.094   9.996  21.822  0.00  0.00    +0.000 C 
ENDROOT
BRANCH   5  11
ATOM     11  N   UNL     1       3.491   6.033  17.847  0.00  0.00    +0.000 N 
ATOM     12  C   UNL     1       3.098   4.730  17.637  0.00  0.00    +0.000 C 
ATOM     13  O   UNL     1       2.115   4.192  18.139  0.00  0.00    +0.000 OA
ATOM     14  H   UNL     1       4.422   6.305  17.555  0.00  0.00    +0.000 HD
BRANCH  12  15
ATOM     15  C   UNL     1       4.019   3.911  16.759  0.00  0.00    +0.000 C 
BRANCH  15  16
ATOM     16  C   UNL     1       5.446   4.382  17.040  0.00  0.00    +0.000 C 
BRANCH  16  17
ATOM     17  N   UNL     1       6.248   4.593  15.865  0.00  0.00    +0.000 N 
ATOM     18  C   UNL     1       6.125   3.998  14.651  0.00  0.00    +0.000 A 
ATOM     19  N   UNL     1       6.988   4.554  13.832  0.00  0.00    +0.000 NA
ATOM     20  N   UNL     1       7.636   5.519  14.567  0.00  0.00    +0.000 NA
ATOM     21  N   UNL     1       7.183   5.553  15.815  0.00  0.00    +0.000 NA
ENDBRANCH  16  17
ENDBRANCH  15  16
ENDBRANCH  12  15
ENDBRANCH   5  11
BRANCH   1  23
ATOM     22  C   UNL     1       0.888  13.202  20.194  0.00  0.00    +0.000 C 
ATOM     23  C   UNL     1      -0.131  12.192  19.664  0.00  0.00    +0.000 C 
ATOM     24  C   UNL     1      -0.708  12.690  18.336  0.00  0.00    +0.000 C 
ENDBRANCH   1  23
TORSDOF 5
ENDMDL
MODEL 6
REMARK VINA RESULT:      -7.2      3.753      6.069
REMARK  Name = 
REMARK  8 active torsions:
REMARK  status: ('A' for Active; 'I' for Inactive)
REMARK    1  A    between atoms: C_1  and  C_2
REMARK    2  A    between atoms: C_2  and  C_3
REMARK    3  A    between atoms: C_2  and  C_4
REMARK    4  A    between atoms: C_8  and  N_9
REMARK    5  A    between atoms: C_10  and  C_12
REMARK    6  A    between atoms: C_12  and  C_13
REMARK    7  A    between atoms: C_13  and  N_14
REMARK    8  A    between atoms: N_22  and  C_23
REMARK                            x       y       z     vdW  Elec       q    Type
REMARK                         _______ _______ _______ _____ _____    ______ ____
ROOT
ATOM      1  C   UNL     1       2.346   4.478  19.426  0.00  0.00    +0.000 A 
ATOM      2  N   UNL     1       2.987   3.779  18.509  0.00  0.00    +0.000 NA
ATOM      3  C   UNL     1       3.667   4.689  17.738  0.00  0.00    +0.000 A 
ATOM      4  C   UNL     1       4.497   4.477  16.623  0.00  0.00    +0.000 A 
ATOM      5  C   UNL     1       5.062   5.576  15.955  0.00  0.00    +0.000 A 
ATOM      6  C   UNL     1       4.775   6.871  16.399  0.00  0.00    +0.000 A 
ATOM      7  C   UNL     1       3.975   7.103  17.530  0.00  0.00    +0.000 A 
ATOM      8  C   UNL     1       3.436   5.985  18.177  0.00  0.00    +0.000 A 
ATOM      9  N   UNL     1       2.628   5.825  19.281  0.00  0.00    +0.000 N 
ATOM     10  C   UNL     1       2.145   6.888  20.124  0.00  0.00    +0.000 C 
ENDROOT
BRANCH   5  11
ATOM     11  N   UNL     1       5.907   5.434  14.824  0.00  0.00    +0.000 N 
ATOM     12  C   UNL     1       7.184   4.920  14.857  0.00  0.00    +0.000 C 
ATOM     13  O   UNL     1       7.809   4.627  15.874  0.00  0.00    +0.000 OA
ATOM     14  H   UNL     1       5.575   5.832  13.954  0.00  0.00    +0.000 HD
BRANCH  12  15
ATOM     15  C   UNL     1       7.860   4.781  13.511  0.00  0.00    +0.000 C 
BRANCH  15  16
ATOM     16  C   UNL     1       6.755   4.629  12.466  0.00  0.00    +0.000 C 
BRANCH  16  17
ATOM     17  N   UNL     1       6.562   3.284  11.992  0.00  0.00    +0.000 N 
ATOM     18  C   UNL     1       5.395   2.602  11.864  0.00  0.00    +0.000 A 
ATOM     19  N   UNL     1       5.655   1.447  11.296  0.00  0.00    +0.000 NA
ATOM     20  N   UNL     1       7.011   1.440  11.062  0.00  0.00    +0.000 NA
ATOM     21  N   UNL     1       7.573   2.568  11.482  0.00  0.00    +0.000 NA
ENDBRANCH  16  17
ENDBRANCH  15  16
ENDBRANCH  12  15
ENDBRANCH   5  11
BRANCH   1  23
ATOM     22  C   UNL     1       0.547   2.806  19.872  0.00  0.00    +0.000 C 
ATOM     23  C   UNL     1       1.412   3.917  20.468  0.00  0.00    +0.000 C 
ATOM     24  C   UNL     1       2.176   3.381  21.681  0.00  0.00    +0.000 C 
ENDBRANCH   1  23
TORSDOF 5
ENDMDL
MODEL 7
REMARK VINA RESULT:      -7.1      2.280      3.839
REMARK  Name = 
REMARK  8 active torsions:
REMARK  status: ('A' for Active; 'I' for Inactive)
REMARK    1  A    between atoms: C_1  and  C_2
REMARK    2  A    between atoms: C_2  and  C_3
REMARK    3  A    between atoms: C_2  and  C_4
REMARK    4  A    between atoms: C_8  and  N_9
REMARK    5  A    between atoms: C_10  and  C_12
REMARK    6  A    between atoms: C_12  and  C_13
REMARK    7  A    between atoms: C_13  and  N_14
REMARK    8  A    between atoms: N_22  and  C_23
REMARK                            x       y       z     vdW  Elec       q    Type
REMARK                         _______ _______ _______ _____ _____    ______ ____
ROOT
ATOM      1  C   UNL     1       0.889  10.964  19.190  0.00  0.00    +0.000 A 
ATOM      2  N   UNL     1       1.504  10.202  18.305  0.00  0.00    +0.000 NA
ATOM      3  C   UNL     1       1.658   8.973  18.898  0.00  0.00    +0.000 A 
ATOM      4  C   UNL     1       2.254   7.804  18.395  0.00  0.00    +0.000 A 
ATOM      5  C   UNL     1       2.338   6.660  19.205  0.00  0.00    +0.000 A 
ATOM      6  C   UNL     1       1.841   6.706  20.512  0.00  0.00    +0.000 A 
ATOM      7  C   UNL     1       1.212   7.853  21.022  0.00  0.00    +0.000 A 
ATOM      8  C   UNL     1       1.137   8.972  20.184  0.00  0.00    +0.000 A 
ATOM      9  N   UNL     1       0.612  10.236  20.334  0.00  0.00    +0.000 N 
ATOM     10  C   UNL     1      -0.086  10.719  21.497  0.00  0.00    +0.000 C 
ENDROOT
BRANCH   5  11
ATOM     11  N   UNL     1       2.928   5.448  18.762  0.00  0.00    +0.000 N 
ATOM     12  C   UNL     1       2.336   4.557  17.894  0.00  0.00    +0.000 C 
ATOM     13  O   UNL     1       1.182   4.626  17.480  0.00  0.00    +0.000 OA
ATOM     14  H   UNL     1       3.803   5.181  19.197  0.00  0.00    +0.000 HD
BRANCH  12  15
ATOM     15  C   UNL     1       3.194   3.378  17.493  0.00  0.00    +0.000 C 
BRANCH  15  16
ATOM     16  C   UNL     1       2.637   2.150  18.214  0.00  0.00    +0.000 C 
BRANCH  16  17
ATOM     17  N   UNL     1       2.456   2.321  19.631  0.00  0.00    +0.000 N 
ATOM     18  C   UNL     1       3.410   2.370  20.596  0.00  0.00    +0.000 A 
ATOM     19  N   UNL     1       2.824   2.645  21.739  0.00  0.00    +0.000 NA
ATOM     20  N   UNL     1       1.485   2.780  21.452  0.00  0.00    +0.000 NA
ATOM     21  N   UNL     1       1.253   2.588  20.158  0.00  0.00    +0.000 NA
ENDBRANCH  16  17
ENDBRANCH  15  16
ENDBRANCH  12  15
ENDBRANCH   5  11
BRANCH   1  23
ATOM     22  C   UNL     1       1.715  13.163  18.343  0.00  0.00    +0.000 C 
ATOM     23  C   UNL     1       0.557  12.424  19.014  0.00  0.00    +0.000 C 
ATOM     24  C   UNL     1      -0.722  12.618  18.196  0.00  0.00    +0.000 C 
ENDBRANCH   1  23
TORSDOF 5
ENDMDL
MODEL 8
REMARK VINA RESULT:      -7.1      5.092      7.451
REMARK  Name = 
REMARK  8 active torsions:
REMARK  status: ('A' for Active; 'I' for Inactive)
REMARK    1  A    between atoms: C_1  and  C_2
REMARK    2  A    between atoms: C_2  and  C_3
REMARK    3  A    between atoms: C_2  and  C_4
REMARK    4  A    between atoms: C_8  and  N_9
REMARK    5  A    between atoms: C_10  and  C_12
REMARK    6  A    between atoms: C_12  and  C_13
REMARK    7  A    between atoms: C_13  and  N_14
REMARK    8  A    between atoms: N_22  and  C_23
REMARK                            x       y       z     vdW  Elec       q    Type
REMARK                         _______ _______ _______ _____ _____    ______ ____
ROOT
ATOM      1  C   UNL     1       2.932   3.506  19.420  0.00  0.00    +0.000 A 
ATOM      2  N   UNL     1       3.287   4.751  19.672  0.00  0.00    +0.000 NA
ATOM      3  C   UNL     1       4.220   5.085  18.722  0.00  0.00    +0.000 A 
ATOM      4  C   UNL     1       4.923   6.288  18.540  0.00  0.00    +0.000 A 
ATOM      5  C   UNL     1       5.875   6.391  17.512  0.00  0.00    +0.000 A 
ATOM      6  C   UNL     1       6.124   5.285  16.693  0.00  0.00    +0.000 A 
ATOM      7  C   UNL     1       5.409   4.084  16.838  0.00  0.00    +0.000 A 
ATOM      8  C   UNL     1       4.462   4.020  17.866  0.00  0.00    +0.000 A 
ATOM      9  N   UNL     1       3.598   3.039  18.300  0.00  0.00    +0.000 N 
ATOM     10  C   UNL     1       3.437   1.741  17.698  0.00  0.00    +0.000 C 
ENDROOT
BRANCH   5  11
ATOM     11  N   UNL     1       6.621   7.575  17.273  0.00  0.00    +0.000 N 
ATOM     12  C   UNL     1       7.817   7.886  17.882  0.00  0.00    +0.000 C 
ATOM     13  O   UNL     1       8.340   7.249  18.793  0.00  0.00    +0.000 OA
ATOM     14  H   UNL     1       6.185   8.278  16.688  0.00  0.00    +0.000 HD
BRANCH  12  15
ATOM     15  C   UNL     1       8.473   9.161  17.402  0.00  0.00    +0.000 C 
BRANCH  15  16
ATOM     16  C   UNL     1       8.935   9.925  18.644  0.00  0.00    +0.000 C 
BRANCH  16  17
ATOM     17  N   UNL     1       9.519  11.211  18.370  0.00  0.00    +0.000 N 
ATOM     18  C   UNL     1      10.820  11.581  18.489  0.00  0.00    +0.000 A 
ATOM     19  N   UNL     1      10.940  12.808  18.037  0.00  0.00    +0.000 NA
ATOM     20  N   UNL     1       9.683  13.181  17.621  0.00  0.00    +0.000 NA
ATOM     21  N   UNL     1       8.807  12.203  17.817  0.00  0.00    +0.000 NA
ENDBRANCH  16  17
ENDBRANCH  15  16
ENDBRANCH  12  15
ENDBRANCH   5  11
BRANCH   1  23
ATOM     22  C   UNL     1       2.357   2.714  21.716  0.00  0.00    +0.000 C 
ATOM     23  C   UNL     1       1.971   2.681  20.237  0.00  0.00    +0.000 C 
ATOM     24  C   UNL     1       0.528   3.164  20.070  0.00  0.00    +0.000 C 
ENDBRANCH   1  23
TORSDOF 5
ENDMDL
MODEL 9
REMARK VINA RESULT:      -7.1      1.150      2.365
REMARK  Name = 
REMARK  8 active torsions:
REMARK  status: ('A' for Active; 'I' for Inactive)
REMARK    1  A    between atoms: C_1  and  C_2
REMARK    2  A    between atoms: C_2  and  C_3
REMARK    3  A    between atoms: C_2  and  C_4
REMARK    4  A    between atoms: C_8  and  N_9
REMARK    5  A    between atoms: C_10  and  C_12
REMARK    6  A    between atoms: C_12  and  C_13
REMARK    7  A    between atoms: C_13  and  N_14
REMARK    8  A    between atoms: N_22  and  C_23
REMARK                            x       y       z     vdW  Elec       q    Type
REMARK                         _______ _______ _______ _____ _____    ______ ____
ROOT
ATOM      1  C   UNL     1       0.555  11.033  19.205  0.00  0.00    +0.000 A 
ATOM      2  N   UNL     1       1.249  10.411  18.271  0.00  0.00    +0.000 NA
ATOM      3  C   UNL     1       1.592   9.190  18.796  0.00  0.00    +0.000 A 
ATOM      4  C   UNL     1       2.337   8.145  18.222  0.00  0.00    +0.000 A 
ATOM      5  C   UNL     1       2.605   6.987  18.970  0.00  0.00    +0.000 A 
ATOM      6  C   UNL     1       2.141   6.898  20.287  0.00  0.00    +0.000 A 
ATOM      7  C   UNL     1       1.368   7.916  20.868  0.00  0.00    +0.000 A 
ATOM      8  C   UNL     1       1.112   9.052  20.090  0.00  0.00    +0.000 A 
ATOM      9  N   UNL     1       0.415  10.218  20.315  0.00  0.00    +0.000 N 
ATOM     10  C   UNL     1      -0.314  10.538  21.515  0.00  0.00    +0.000 C 
ENDROOT
BRANCH   5  11
ATOM     11  N   UNL     1       3.351   5.896  18.454  0.00  0.00    +0.000 N 
ATOM     12  C   UNL     1       2.805   4.801  17.820  0.00  0.00    +0.000 C 
ATOM     13  O   UNL     1       1.605   4.561  17.720  0.00  0.00    +0.000 OA
ATOM     14  H   UNL     1       4.343   5.884  18.658  0.00  0.00    +0.000 HD
BRANCH  12  15
ATOM     15  C   UNL     1       3.805   3.807  17.273  0.00  0.00    +0.000 C 
BRANCH  15  16
ATOM     16  C   UNL     1       4.924   4.611  16.611  0.00  0.00    +0.000 C 
BRANCH  16  17
ATOM     17  N   UNL     1       6.015   4.948  17.485  0.00  0.00    +0.000 N 
ATOM     18  C   UNL     1       6.953   5.915  17.318  0.00  0.00    +0.000 A 
ATOM     19  N   UNL     1       7.699   5.955  18.398  0.00  0.00    +0.000 NA
ATOM     20  N   UNL     1       7.186   4.999  19.245  0.00  0.00    +0.000 NA
ATOM     21  N   UNL     1       6.149   4.381  18.692  0.00  0.00    +0.000 NA
ENDBRANCH  16  17
ENDBRANCH  15  16
ENDBRANCH  12  15
ENDBRANCH   5  11
BRANCH   1  23
ATOM     22  C   UNL     1       1.095  13.400  18.627  0.00  0.00    +0.000 C 
ATOM     23  C   UNL     1       0.012  12.436  19.111  0.00  0.00    +0.000 C 
ATOM     24  C   UNL     1      -1.201  12.513  18.180  0.00  0.00    +0.000 C 
ENDBRANCH   1  23
TORSDOF 5
ENDMDL
