MODEL 1
REMARK VINA RESULT:      -7.5      0.000      0.000
REMARK  Name = 
REMARK  11 active torsions:
REMARK  status: ('A' for Active; 'I' for Inactive)
REMARK    1  A    between atoms: C_1  and  N_2
REMARK    2  A    between atoms: N_2  and  C_3
REMARK    3  A    between atoms: N_2  and  C_4
REMARK    4  A    between atoms: C_4  and  C_5
REMARK    5  A    between atoms: C_5  and  C_6
REMARK    6  A    between atoms: C_6  and  C_7
REMARK    7  A    between atoms: C_7  and  C_8
REMARK    8  A    between atoms: C_8  and  N_9
REMARK    9  A    between atoms: N_9  and  C_10
REMARK   10  A    between atoms: C_13  and  N_14
REMARK   11  A    between atoms: C_25  and  O_26
REMARK                            x       y       z     vdW  Elec       q    Type
REMARK                         _______ _______ _______ _____ _____    ______ ____
ROOT
ATOM      1  C   UNL     1       2.185   6.662  19.773  0.00  0.00    +0.000 A 
ATOM      2  C   UNL     1       1.559   5.962  20.818  0.00  0.00    +0.000 A 
ATOM      3  C   UNL     1       1.788   4.612  21.003  0.00  0.00    +0.000 A 
ATOM      4  C   UNL     1       2.625   3.955  20.101  0.00  0.00    +0.000 A 
ATOM      5  C   UNL     1       3.256   4.571  19.019  0.00  0.00    +0.000 A 
ATOM      6  N   UNL     1       4.062   3.864  18.197  0.00  0.00    +0.000 NA
ATOM      7  C   UNL     1       4.662   4.438  17.145  0.00  0.00    +0.000 A 
ATOM      8  C   UNL     1       5.464   3.642  16.340  0.00  0.00    +0.000 A 
ATOM      9  C   UNL     1       6.139   4.151  15.228  0.00  0.00    +0.000 A 
ATOM     10  C   UNL     1       6.009   5.491  14.905  0.00  0.00    +0.000 A 
ATOM     11  C   UNL     1       5.207   6.310  15.699  0.00  0.00    +0.000 A 
ATOM     12  C   UNL     1       4.519   5.797  16.836  0.00  0.00    +0.000 A 
ATOM     13  C   UNL     1       3.693   6.540  17.717  0.00  0.00    +0.000 A 
ATOM     14  C   UNL     1       3.029   5.953  18.837  0.00  0.00    +0.000 A 
ENDROOT
BRANCH   4  15
ATOM     15  N   UNL     1       2.833   2.544  20.337  0.00  0.00    +0.000 N 
ATOM     16  O   UNL     1       3.638   2.239  21.226  0.00  0.00    +0.000 OA
ATOM     17  O   UNL     1       2.117   1.745  19.719  0.00  0.00    +0.000 OA
ENDBRANCH   4  15
BRANCH   1  18
ATOM     18  N   UNL     1       1.884   8.023  19.577  0.00  0.00    +0.000 N 
ATOM     19  H   UNL     1       2.680   8.493  19.119  0.00  0.00    +0.000 HD
BRANCH  18  20
ATOM     20  C   UNL     1       1.309   8.778  20.683  0.00  0.00    +0.000 C 
BRANCH  20  21
ATOM     21  C   UNL     1       0.349   9.839  20.161  0.00  0.00    +0.000 C 
BRANCH  21  22
ATOM     22  C   UNL     1       0.238   9.808  18.636  0.00  0.00    +0.000 C 
BRANCH  22  23
ATOM     23  C   UNL     1      -0.945  10.653  18.176  0.00  0.00    +0.000 C 
BRANCH  23  24
ATOM     24  C   UNL     1      -1.796   9.907  17.144  0.00  0.00    +0.000 C 
BRANCH  24  26
ATOM     25  C   UNL     1      -2.871  10.121  15.007  0.00  0.00    +0.000 C 
ATOM     26  N   UNL     1      -2.559  10.809  16.264  0.00  0.00    +0.000 NA
ATOM     27  C   UNL     1      -3.799  11.280  16.885  0.00  0.00    +0.000 C 
ENDBRANCH  24  26
ENDBRANCH  23  24
ENDBRANCH  22  23
ENDBRANCH  21  22
ENDBRANCH  20  21
ENDBRANCH  18  20
ENDBRANCH   1  18
BRANCH  13  28
ATOM     28  O   UNL     1       3.532   7.901  17.530  0.00  0.00    +0.000 OA
ATOM     29  H   UNL     1       3.491   8.356  18.384  0.00  0.00    +0.000 HD
ENDBRANCH  13  28
TORSDOF 9
ENDMDL
MODEL 2
REMARK VINA RESULT:      -7.2      3.168      6.804
REMARK  Name = 
REMARK  11 active torsions:
REMARK  status: ('A' for Active; 'I' for Inactive)
REMARK    1  A    between atoms: C_1  and  N_2
REMARK    2  A    between atoms: N_2  and  C_3
REMARK    3  A    between atoms: N_2  and  C_4
REMARK    4  A    between atoms: C_4  and  C_5
REMARK    5  A    between atoms: C_5  and  C_6
REMARK    6  A    between atoms: C_6  and  C_7
REMARK    7  A    between atoms: C_7  and  C_8
REMARK    8  A    between atoms: C_8  and  N_9
REMARK    9  A    between atoms: N_9  and  C_10
REMARK   10  A    between atoms: C_13  and  N_14
REMARK   11  A    between atoms: C_25  and  O_26
REMARK                            x       y       z     vdW  Elec       q    Type
REMARK                         _______ _______ _______ _____ _____    ______ ____
ROOT
ATOM      1  C   UNL     1       4.192   4.712  17.868  0.00  0.00    +0.000 A 
ATOM      2  C   UNL     1       4.406   3.374  18.241  0.00  0.00    +0.000 A 
ATOM      3  C   UNL     1       3.758   2.832  19.333  0.00  0.00    +0.000 A 
ATOM      4  C   UNL     1       2.916   3.657  20.080  0.00  0.00    +0.000 A 
ATOM      5  C   UNL     1       2.678   5.002  19.795  0.00  0.00    +0.000 A 
ATOM      6  N   UNL     1       1.839   5.731  20.562  0.00  0.00    +0.000 NA
ATOM      7  C   UNL     1       1.612   7.028  20.311  0.00  0.00    +0.000 A 
ATOM      8  C   UNL     1       0.747   7.712  21.154  0.00  0.00    +0.000 A 
ATOM      9  C   UNL     1       0.439   9.061  20.967  0.00  0.00    +0.000 A 
ATOM     10  C   UNL     1       1.013   9.752  19.913  0.00  0.00    +0.000 A 
ATOM     11  C   UNL     1       1.887   9.086  19.054  0.00  0.00    +0.000 A 
ATOM     12  C   UNL     1       2.201   7.709  19.239  0.00  0.00    +0.000 A 
ATOM     13  C   UNL     1       3.061   6.933  18.421  0.00  0.00    +0.000 A 
ATOM     14  C   UNL     1       3.333   5.554  18.671  0.00  0.00    +0.000 A 
ENDROOT
BRANCH   4  15
ATOM     15  N   UNL     1       2.262   3.042  21.213  0.00  0.00    +0.000 N 
ATOM     16  O   UNL     1       1.025   3.021  21.199  0.00  0.00    +0.000 OA
ATOM     17  O   UNL     1       2.976   2.483  22.056  0.00  0.00    +0.000 OA
ENDBRANCH   4  15
BRANCH   1  18
ATOM     18  N   UNL     1       4.912   5.251  16.786  0.00  0.00    +0.000 N 
ATOM     19  H   UNL     1       4.512   4.912  15.897  0.00  0.00    +0.000 HD
BRANCH  18  20
ATOM     20  C   UNL     1       6.369   5.213  16.829  0.00  0.00    +0.000 C 
BRANCH  20  21
ATOM     21  C   UNL     1       6.896   6.176  17.884  0.00  0.00    +0.000 C 
BRANCH  21  22
ATOM     22  C   UNL     1       7.469   7.449  17.259  0.00  0.00    +0.000 C 
BRANCH  22  23
ATOM     23  C   UNL     1       8.279   8.226  18.292  0.00  0.00    +0.000 C 
BRANCH  23  24
ATOM     24  C   UNL     1       8.195   9.736  18.046  0.00  0.00    +0.000 C 
BRANCH  24  26
ATOM     25  C   UNL     1       9.394  11.815  17.974  0.00  0.00    +0.000 C 
ATOM     26  N   UNL     1       9.365  10.470  18.556  0.00  0.00    +0.000 NA
ATOM     27  C   UNL     1       9.371  10.569  20.017  0.00  0.00    +0.000 C 
ENDBRANCH  24  26
ENDBRANCH  23  24
ENDBRANCH  22  23
ENDBRANCH  21  22
ENDBRANCH  20  21
ENDBRANCH  18  20
ENDBRANCH   1  18
BRANCH  13  28
ATOM     28  O   UNL     1       3.649   7.499  17.304  0.00  0.00    +0.000 OA
ATOM     29  H   UNL     1       4.161   6.835  16.819  0.00  0.00    +0.000 HD
ENDBRANCH  13  28
TORSDOF 9
ENDMDL
MODEL 3
REMARK VINA RESULT:      -7.1      0.924      1.162
REMARK  Name = 
REMARK  11 active torsions:
REMARK  status: ('A' for Active; 'I' for Inactive)
REMARK    1  A    between atoms: C_1  and  N_2
REMARK    2  A    between atoms: N_2  and  C_3
REMARK    3  A    between atoms: N_2  and  C_4
REMARK    4  A    between atoms: C_4  and  C_5
REMARK    5  A    between atoms: C_5  and  C_6
REMARK    6  A    between atoms: C_6  and  C_7
REMARK    7  A    between atoms: C_7  and  C_8
REMARK    8  A    between atoms: C_8  and  N_9
REMARK    9  A    between atoms: N_9  and  C_10
REMARK   10  A    between atoms: C_13  and  N_14
REMARK   11  A    between atoms: C_25  and  O_26
REMARK                            x       y       z     vdW  Elec       q    Type
REMARK                         _______ _______ _______ _____ _____    ______ ____
ROOT
ATOM      1  C   UNL     1       2.317   6.655  19.698  0.00  0.00    +0.000 A 
ATOM      2  C   UNL     1       1.662   5.980  20.741  0.00  0.00    +0.000 A 
ATOM      3  C   UNL     1       1.824   4.619  20.916  0.00  0.00    +0.000 A 
ATOM      4  C   UNL     1       2.625   3.927  20.007  0.00  0.00    +0.000 A 
ATOM      5  C   UNL     1       3.282   4.519  18.926  0.00  0.00    +0.000 A 
ATOM      6  N   UNL     1       4.049   3.779  18.096  0.00  0.00    +0.000 NA
ATOM      7  C   UNL     1       4.672   4.330  17.046  0.00  0.00    +0.000 A 
ATOM      8  C   UNL     1       5.431   3.500  16.232  0.00  0.00    +0.000 A 
ATOM      9  C   UNL     1       6.127   3.982  15.121  0.00  0.00    +0.000 A 
ATOM     10  C   UNL     1       6.061   5.329  14.808  0.00  0.00    +0.000 A 
ATOM     11  C   UNL     1       5.304   6.182  15.610  0.00  0.00    +0.000 A 
ATOM     12  C   UNL     1       4.595   5.696  16.746  0.00  0.00    +0.000 A 
ATOM     13  C   UNL     1       3.810   6.472  17.635  0.00  0.00    +0.000 A 
ATOM     14  C   UNL     1       3.123   5.912  18.754  0.00  0.00    +0.000 A 
ENDROOT
BRANCH   4  15
ATOM     15  N   UNL     1       2.764   2.506  20.233  0.00  0.00    +0.000 N 
ATOM     16  O   UNL     1       3.652   2.150  21.017  0.00  0.00    +0.000 OA
ATOM     17  O   UNL     1       1.922   1.757  19.720  0.00  0.00    +0.000 OA
ENDBRANCH   4  15
BRANCH   1  18
ATOM     18  N   UNL     1       2.083   8.030  19.512  0.00  0.00    +0.000 N 
ATOM     19  H   UNL     1       2.977   8.514  19.333  0.00  0.00    +0.000 HD
BRANCH  18  20
ATOM     20  C   UNL     1       1.214   8.725  20.453  0.00  0.00    +0.000 C 
BRANCH  20  21
ATOM     21  C   UNL     1       0.751  10.054  19.870  0.00  0.00    +0.000 C 
BRANCH  21  22
ATOM     22  C   UNL     1       0.594   9.986  18.350  0.00  0.00    +0.000 C 
BRANCH  22  23
ATOM     23  C   UNL     1      -0.863  10.211  17.961  0.00  0.00    +0.000 C 
BRANCH  23  24
ATOM     24  C   UNL     1      -1.683  10.730  19.146  0.00  0.00    +0.000 C 
BRANCH  24  26
ATOM     25  C   UNL     1      -3.633  11.453  17.944  0.00  0.00    +0.000 C 
ATOM     26  N   UNL     1      -2.526  11.888  18.802  0.00  0.00    +0.000 NA
ATOM     27  C   UNL     1      -3.060  12.563  19.987  0.00  0.00    +0.000 C 
ENDBRANCH  24  26
ENDBRANCH  23  24
ENDBRANCH  22  23
ENDBRANCH  21  22
ENDBRANCH  20  21
ENDBRANCH  18  20
ENDBRANCH   1  18
BRANCH  13  28
ATOM     28  O   UNL     1       3.716   7.841  17.458  0.00  0.00    +0.000 OA
ATOM     29  H   UNL     1       3.150   8.231  18.140  0.00  0.00    +0.000 HD
ENDBRANCH  13  28
TORSDOF 9
ENDMDL
MODEL 4
REMARK VINA RESULT:      -7.1      2.722      7.065
REMARK  Name = 
REMARK  11 active torsions:
REMARK  status: ('A' for Active; 'I' for Inactive)
REMARK    1  A    between atoms: C_1  and  N_2
REMARK    2  A    between atoms: N_2  and  C_3
REMARK    3  A    between atoms: N_2  and  C_4
REMARK    4  A    between atoms: C_4  and  C_5
REMARK    5  A    between atoms: C_5  and  C_6
REMARK    6  A    between atoms: C_6  and  C_7
REMARK    7  A    between atoms: C_7  and  C_8
REMARK    8  A    between atoms: C_8  and  N_9
REMARK    9  A    between atoms: N_9  and  C_10
REMARK   10  A    between atoms: C_13  and  N_14
REMARK   11  A    between atoms: C_25  and  O_26
REMARK                            x       y       z     vdW  Elec       q    Type
REMARK                         _______ _______ _______ _____ _____    ______ ____
ROOT
ATOM      1  C   UNL     1       3.928   4.588  17.769  0.00  0.00    +0.000 A 
ATOM      2  C   UNL     1       4.086   3.256  18.186  0.00  0.00    +0.000 A 
ATOM      3  C   UNL     1       3.461   2.794  19.329  0.00  0.00    +0.000 A 
ATOM      4  C   UNL     1       2.703   3.694  20.078  0.00  0.00    +0.000 A 
ATOM      5  C   UNL     1       2.526   5.039  19.749  0.00  0.00    +0.000 A 
ATOM      6  N   UNL     1       1.766   5.844  20.524  0.00  0.00    +0.000 NA
ATOM      7  C   UNL     1       1.600   7.140  20.230  0.00  0.00    +0.000 A 
ATOM      8  C   UNL     1       0.815   7.905  21.082  0.00  0.00    +0.000 A 
ATOM      9  C   UNL     1       0.574   9.262  20.854  0.00  0.00    +0.000 A 
ATOM     10  C   UNL     1       1.135   9.877  19.748  0.00  0.00    +0.000 A 
ATOM     11  C   UNL     1       1.928   9.130  18.879  0.00  0.00    +0.000 A 
ATOM     12  C   UNL     1       2.175   7.746  19.105  0.00  0.00    +0.000 A 
ATOM     13  C   UNL     1       2.950   6.890  18.281  0.00  0.00    +0.000 A 
ATOM     14  C   UNL     1       3.157   5.508  18.576  0.00  0.00    +0.000 A 
ENDROOT
BRANCH   4  15
ATOM     15  N   UNL     1       2.071   3.161  21.264  0.00  0.00    +0.000 N 
ATOM     16  O   UNL     1       2.648   3.358  22.340  0.00  0.00    +0.000 OA
ATOM     17  O   UNL     1       0.951   2.649  21.138  0.00  0.00    +0.000 OA
ENDBRANCH   4  15
BRANCH   1  18
ATOM     18  N   UNL     1       4.625   5.043  16.635  0.00  0.00    +0.000 N 
ATOM     19  H   UNL     1       4.257   4.578  15.790  0.00  0.00    +0.000 HD
BRANCH  18  20
ATOM     20  C   UNL     1       6.081   5.105  16.687  0.00  0.00    +0.000 C 
BRANCH  20  21
ATOM     21  C   UNL     1       6.692   4.026  15.802  0.00  0.00    +0.000 C 
BRANCH  21  22
ATOM     22  C   UNL     1       5.963   3.908  14.462  0.00  0.00    +0.000 C 
BRANCH  22  23
ATOM     23  C   UNL     1       6.794   4.544  13.353  0.00  0.00    +0.000 C 
BRANCH  23  24
ATOM     24  C   UNL     1       6.673   3.757  12.044  0.00  0.00    +0.000 C 
BRANCH  24  26
ATOM     25  C   UNL     1       4.399   3.320  11.409  0.00  0.00    +0.000 C 
ATOM     26  N   UNL     1       5.586   2.764  12.065  0.00  0.00    +0.000 NA
ATOM     27  C   UNL     1       5.963   1.508  11.414  0.00  0.00    +0.000 C 
ENDBRANCH  24  26
ENDBRANCH  23  24
ENDBRANCH  22  23
ENDBRANCH  21  22
ENDBRANCH  20  21
ENDBRANCH  18  20
ENDBRANCH   1  18
BRANCH  13  28
ATOM     28  O   UNL     1       3.514   7.379  17.116  0.00  0.00    +0.000 OA
ATOM     29  H   UNL     1       2.874   7.341  16.390  0.00  0.00    +0.000 HD
ENDBRANCH  13  28
TORSDOF 9
ENDMDL
MODEL 5
REMARK VINA RESULT:      -7.0      2.484      3.038
REMARK  Name = 
REMARK  11 active torsions:
REMARK  status: ('A' for Active; 'I' for Inactive)
REMARK    1  A    between atoms: C_1  and  N_2
REMARK    2  A    between atoms: N_2  and  C_3
REMARK    3  A    between atoms: N_2  and  C_4
REMARK    4  A    between atoms: C_4  and  C_5
REMARK    5  A    between atoms: C_5  and  C_6
REMARK    6  A    between atoms: C_6  and  C_7
REMARK    7  A    between atoms: C_7  and  C_8
REMARK    8  A    between atoms: C_8  and  N_9
REMARK    9  A    between atoms: N_9  and  C_10
REMARK   10  A    between atoms: C_13  and  N_14
REMARK   11  A    between atoms: C_25  and  O_26
REMARK                            x       y       z     vdW  Elec       q    Type
REMARK                         _______ _______ _______ _____ _____    ______ ____
ROOT
ATOM      1  C   UNL     1       2.226   6.664  19.843  0.00  0.00    +0.000 A 
ATOM      2  C   UNL     1       1.603   5.959  20.886  0.00  0.00    +0.000 A 
ATOM      3  C   UNL     1       1.816   4.604  21.051  0.00  0.00    +0.000 A 
ATOM      4  C   UNL     1       2.636   3.947  20.132  0.00  0.00    +0.000 A 
ATOM      5  C   UNL     1       3.263   4.570  19.051  0.00  0.00    +0.000 A 
ATOM      6  N   UNL     1       4.051   3.863  18.212  0.00  0.00    +0.000 NA
ATOM      7  C   UNL     1       4.647   4.443  17.161  0.00  0.00    +0.000 A 
ATOM      8  C   UNL     1       5.430   3.647  16.337  0.00  0.00    +0.000 A 
ATOM      9  C   UNL     1       6.100   4.162  15.224  0.00  0.00    +0.000 A 
ATOM     10  C   UNL     1       5.983   5.507  14.920  0.00  0.00    +0.000 A 
ATOM     11  C   UNL     1       5.201   6.327  15.733  0.00  0.00    +0.000 A 
ATOM     12  C   UNL     1       4.518   5.807  16.870  0.00  0.00    +0.000 A 
ATOM     13  C   UNL     1       3.711   6.549  17.770  0.00  0.00    +0.000 A 
ATOM     14  C   UNL     1       3.052   5.957  18.890  0.00  0.00    +0.000 A 
ENDROOT
BRANCH   4  15
ATOM     15  N   UNL     1       2.828   2.531  20.348  0.00  0.00    +0.000 N 
ATOM     16  O   UNL     1       3.554   2.204  21.296  0.00  0.00    +0.000 OA
ATOM     17  O   UNL     1       2.171   1.748  19.649  0.00  0.00    +0.000 OA
ENDBRANCH   4  15
BRANCH   1  18
ATOM     18  N   UNL     1       1.941   8.031  19.667  0.00  0.00    +0.000 N 
ATOM     19  H   UNL     1       2.821   8.568  19.623  0.00  0.00    +0.000 HD
BRANCH  18  20
ATOM     20  C   UNL     1       0.917   8.644  20.505  0.00  0.00    +0.000 C 
BRANCH  20  21
ATOM     21  C   UNL     1       1.557   9.371  21.681  0.00  0.00    +0.000 C 
BRANCH  21  22
ATOM     22  C   UNL     1       0.665   9.338  22.924  0.00  0.00    +0.000 C 
BRANCH  22  23
ATOM     23  C   UNL     1      -0.696   9.952  22.612  0.00  0.00    +0.000 C 
BRANCH  23  24
ATOM     24  C   UNL     1      -0.574  11.444  22.288  0.00  0.00    +0.000 C 
BRANCH  24  26
ATOM     25  C   UNL     1      -0.987  13.713  22.958  0.00  0.00    +0.000 C 
ATOM     26  N   UNL     1      -1.259  12.306  23.267  0.00  0.00    +0.000 NA
ATOM     27  C   UNL     1      -2.706  12.081  23.294  0.00  0.00    +0.000 C 
ENDBRANCH  24  26
ENDBRANCH  23  24
ENDBRANCH  22  23
ENDBRANCH  21  22
ENDBRANCH  20  21
ENDBRANCH  18  20
ENDBRANCH   1  18
BRANCH  13  28
ATOM     28  O   UNL     1       3.565   7.915  17.602  0.00  0.00    +0.000 OA
ATOM     29  H   UNL     1       3.846   8.385  18.401  0.00  0.00    +0.000 HD
ENDBRANCH  13  28
TORSDOF 9
ENDMDL
MODEL 6
REMARK VINA RESULT:      -6.9      2.751      7.035
REMARK  Name = 
REMARK  11 active torsions:
REMARK  status: ('A' for Active; 'I' for Inactive)
REMARK    1  A    between atoms: C_1  and  N_2
REMARK    2  A    between atoms: N_2  and  C_3
REMARK    3  A    between atoms: N_2  and  C_4
REMARK    4  A    between atoms: C_4  and  C_5
REMARK    5  A    between atoms: C_5  and  C_6
REMARK    6  A    between atoms: C_6  and  C_7
REMARK    7  A    between atoms: C_7  and  C_8
REMARK    8  A    between atoms: C_8  and  N_9
REMARK    9  A    between atoms: N_9  and  C_10
REMARK   10  A    between atoms: C_13  and  N_14
REMARK   11  A    between atoms: C_25  and  O_26
REMARK                            x       y       z     vdW  Elec       q    Type
REMARK                         _______ _______ _______ _____ _____    ______ ____
ROOT
ATOM      1  C   UNL     1       4.024   4.673  17.824  0.00  0.00    +0.000 A 
ATOM      2  C   UNL     1       4.232   3.327  18.168  0.00  0.00    +0.000 A 
ATOM      3  C   UNL     1       3.613   2.774  19.272  0.00  0.00    +0.000 A 
ATOM      4  C   UNL     1       2.806   3.597  20.059  0.00  0.00    +0.000 A 
ATOM      5  C   UNL     1       2.577   4.950  19.804  0.00  0.00    +0.000 A 
ATOM      6  N   UNL     1       1.772   5.676  20.610  0.00  0.00    +0.000 NA
ATOM      7  C   UNL     1       1.554   6.980  20.388  0.00  0.00    +0.000 A 
ATOM      8  C   UNL     1       0.726   7.660  21.269  0.00  0.00    +0.000 A 
ATOM      9  C   UNL     1       0.430   9.017  21.115  0.00  0.00    +0.000 A 
ATOM     10  C   UNL     1       0.979   9.718  20.055  0.00  0.00    +0.000 A 
ATOM     11  C   UNL     1       1.816   9.055  19.157  0.00  0.00    +0.000 A 
ATOM     12  C   UNL     1       2.118   7.672  19.309  0.00  0.00    +0.000 A 
ATOM     13  C   UNL     1       2.941   6.898  18.451  0.00  0.00    +0.000 A 
ATOM     14  C   UNL     1       3.202   5.512  18.669  0.00  0.00    +0.000 A 
ENDROOT
BRANCH   4  15
ATOM     15  N   UNL     1       2.181   2.971  21.202  0.00  0.00    +0.000 N 
ATOM     16  O   UNL     1       0.949   2.857  21.171  0.00  0.00    +0.000 OA
ATOM     17  O   UNL     1       2.919   2.495  22.073  0.00  0.00    +0.000 OA
ENDBRANCH   4  15
BRANCH   1  18
ATOM     18  N   UNL     1       4.716   5.221  16.729  0.00  0.00    +0.000 N 
ATOM     19  H   UNL     1       4.254   4.942  15.850  0.00  0.00    +0.000 HD
BRANCH  18  20
ATOM     20  C   UNL     1       6.169   5.108  16.694  0.00  0.00    +0.000 C 
BRANCH  20  21
ATOM     21  C   UNL     1       6.606   4.216  15.539  0.00  0.00    +0.000 C 
BRANCH  21  22
ATOM     22  C   UNL     1       6.948   5.029  14.289  0.00  0.00    +0.000 C 
BRANCH  22  23
ATOM     23  C   UNL     1       6.919   4.134  13.054  0.00  0.00    +0.000 C 
BRANCH  23  24
ATOM     24  C   UNL     1       5.557   3.454  12.891  0.00  0.00    +0.000 C 
BRANCH  24  26
ATOM     25  C   UNL     1       5.748   1.610  11.364  0.00  0.00    +0.000 C 
ATOM     26  N   UNL     1       5.300   2.998  11.514  0.00  0.00    +0.000 NA
ATOM     27  C   UNL     1       3.887   3.099  11.145  0.00  0.00    +0.000 C 
ENDBRANCH  24  26
ENDBRANCH  23  24
ENDBRANCH  22  23
ENDBRANCH  21  22
ENDBRANCH  20  21
ENDBRANCH  18  20
ENDBRANCH   1  18
BRANCH  13  28
ATOM     28  O   UNL     1       3.500   7.477  17.325  0.00  0.00    +0.000 OA
ATOM     29  H   UNL     1       4.361   7.866  17.538  0.00  0.00    +0.000 HD
ENDBRANCH  13  28
TORSDOF 9
ENDMDL
MODEL 7
REMARK VINA RESULT:      -6.9      3.591      5.929
REMARK  Name = 
REMARK  11 active torsions:
REMARK  status: ('A' for Active; 'I' for Inactive)
REMARK    1  A    between atoms: C_1  and  N_2
REMARK    2  A    between atoms: N_2  and  C_3
REMARK    3  A    between atoms: N_2  and  C_4
REMARK    4  A    between atoms: C_4  and  C_5
REMARK    5  A    between atoms: C_5  and  C_6
REMARK    6  A    between atoms: C_6  and  C_7
REMARK    7  A    between atoms: C_7  and  C_8
REMARK    8  A    between atoms: C_8  and  N_9
REMARK    9  A    between atoms: N_9  and  C_10
REMARK   10  A    between atoms: C_13  and  N_14
REMARK   11  A    between atoms: C_25  and  O_26
REMARK                            x       y       z     vdW  Elec       q    Type
REMARK                         _______ _______ _______ _____ _____    ______ ____
ROOT
ATOM      1  C   UNL     1       5.366   4.088  18.349  0.00  0.00    +0.000 A 
ATOM      2  C   UNL     1       5.697   4.892  19.452  0.00  0.00    +0.000 A 
ATOM      3  C   UNL     1       6.511   5.998  19.302  0.00  0.00    +0.000 A 
ATOM      4  C   UNL     1       7.027   6.273  18.035  0.00  0.00    +0.000 A 
ATOM      5  C   UNL     1       6.773   5.503  16.899  0.00  0.00    +0.000 A 
ATOM      6  N   UNL     1       7.304   5.843  15.704  0.00  0.00    +0.000 NA
ATOM      7  C   UNL     1       7.082   5.105  14.607  0.00  0.00    +0.000 A 
ATOM      8  C   UNL     1       7.674   5.512  13.419  0.00  0.00    +0.000 A 
ATOM      9  C   UNL     1       7.493   4.817  12.222  0.00  0.00    +0.000 A 
ATOM     10  C   UNL     1       6.704   3.679  12.207  0.00  0.00    +0.000 A 
ATOM     11  C   UNL     1       6.101   3.250  13.388  0.00  0.00    +0.000 A 
ATOM     12  C   UNL     1       6.279   3.958  14.611  0.00  0.00    +0.000 A 
ATOM     13  C   UNL     1       5.704   3.621  15.862  0.00  0.00    +0.000 A 
ATOM     14  C   UNL     1       5.933   4.378  17.051  0.00  0.00    +0.000 A 
ENDROOT
BRANCH   4  15
ATOM     15  N   UNL     1       7.873   7.440  17.931  0.00  0.00    +0.000 N 
ATOM     16  O   UNL     1       7.628   8.226  17.007  0.00  0.00    +0.000 OA
ATOM     17  O   UNL     1       8.704   7.631  18.828  0.00  0.00    +0.000 OA
ENDBRANCH   4  15
BRANCH   1  18
ATOM     18  N   UNL     1       4.583   2.935  18.546  0.00  0.00    +0.000 N 
ATOM     19  H   UNL     1       3.671   3.048  18.077  0.00  0.00    +0.000 HD
BRANCH  18  20
ATOM     20  C   UNL     1       4.490   2.376  19.889  0.00  0.00    +0.000 C 
BRANCH  20  21
ATOM     21  C   UNL     1       3.121   2.665  20.493  0.00  0.00    +0.000 C 
BRANCH  21  22
ATOM     22  C   UNL     1       2.035   2.765  19.421  0.00  0.00    +0.000 C 
BRANCH  22  23
ATOM     23  C   UNL     1       1.241   4.056  19.594  0.00  0.00    +0.000 C 
BRANCH  23  24
ATOM     24  C   UNL     1       1.988   5.055  20.482  0.00  0.00    +0.000 C 
BRANCH  24  26
ATOM     25  C   UNL     1       2.313   5.997  18.297  0.00  0.00    +0.000 C 
ATOM     26  N   UNL     1       2.537   6.197  19.731  0.00  0.00    +0.000 NA
ATOM     27  C   UNL     1       1.950   7.474  20.145  0.00  0.00    +0.000 C 
ENDBRANCH  24  26
ENDBRANCH  23  24
ENDBRANCH  22  23
ENDBRANCH  21  22
ENDBRANCH  20  21
ENDBRANCH  18  20
ENDBRANCH   1  18
BRANCH  13  28
ATOM     28  O   UNL     1       4.850   2.536  15.960  0.00  0.00    +0.000 OA
ATOM     29  H   UNL     1       4.016   2.722  15.504  0.00  0.00    +0.000 HD
ENDBRANCH  13  28
TORSDOF 9
ENDMDL
MODEL 8
REMARK VINA RESULT:      -6.9      0.828      1.067
REMARK  Name = 
REMARK  11 active torsions:
REMARK  status: ('A' for Active; 'I' for Inactive)
REMARK    1  A    between atoms: C_1  and  N_2
REMARK    2  A    between atoms: N_2  and  C_3
REMARK    3  A    between atoms: N_2  and  C_4
REMARK    4  A    between atoms: C_4  and  C_5
REMARK    5  A    between atoms: C_5  and  C_6
REMARK    6  A    between atoms: C_6  and  C_7
REMARK    7  A    between atoms: C_7  and  C_8
REMARK    8  A    between atoms: C_8  and  N_9
REMARK    9  A    between atoms: N_9  and  C_10
REMARK   10  A    between atoms: C_13  and  N_14
REMARK   11  A    between atoms: C_25  and  O_26
REMARK                            x       y       z     vdW  Elec       q    Type
REMARK                         _______ _______ _______ _____ _____    ______ ____
ROOT
ATOM      1  C   UNL     1       2.171   6.417  19.826  0.00  0.00    +0.000 A 
ATOM      2  C   UNL     1       1.240   5.687  20.583  0.00  0.00    +0.000 A 
ATOM      3  C   UNL     1       1.044   4.339  20.356  0.00  0.00    +0.000 A 
ATOM      4  C   UNL     1       1.768   3.729  19.330  0.00  0.00    +0.000 A 
ATOM      5  C   UNL     1       2.685   4.392  18.513  0.00  0.00    +0.000 A 
ATOM      6  N   UNL     1       3.354   3.726  17.546  0.00  0.00    +0.000 NA
ATOM      7  C   UNL     1       4.225   4.351  16.743  0.00  0.00    +0.000 A 
ATOM      8  C   UNL     1       4.862   3.600  15.765  0.00  0.00    +0.000 A 
ATOM      9  C   UNL     1       5.795   4.159  14.889  0.00  0.00    +0.000 A 
ATOM     10  C   UNL     1       6.099   5.507  14.985  0.00  0.00    +0.000 A 
ATOM     11  C   UNL     1       5.470   6.281  15.959  0.00  0.00    +0.000 A 
ATOM     12  C   UNL     1       4.521   5.715  16.857  0.00  0.00    +0.000 A 
ATOM     13  C   UNL     1       3.836   6.404  17.891  0.00  0.00    +0.000 A 
ATOM     14  C   UNL     1       2.891   5.769  18.752  0.00  0.00    +0.000 A 
ENDROOT
BRANCH   4  15
ATOM     15  N   UNL     1       1.527   2.318  19.133  0.00  0.00    +0.000 N 
ATOM     16  O   UNL     1       0.422   1.998  18.677  0.00  0.00    +0.000 OA
ATOM     17  O   UNL     1       2.472   1.541  19.324  0.00  0.00    +0.000 OA
ENDBRANCH   4  15
BRANCH   1  18
ATOM     18  N   UNL     1       2.303   7.801  20.042  0.00  0.00    +0.000 N 
ATOM     19  H   UNL     1       3.116   7.983  20.651  0.00  0.00    +0.000 HD
BRANCH  18  20
ATOM     20  C   UNL     1       1.116   8.569  20.397  0.00  0.00    +0.000 C 
BRANCH  20  21
ATOM     21  C   UNL     1       0.796   9.588  19.312  0.00  0.00    +0.000 C 
BRANCH  21  22
ATOM     22  C   UNL     1      -0.577  10.230  19.519  0.00  0.00    +0.000 C 
BRANCH  22  23
ATOM     23  C   UNL     1      -0.984  11.016  18.277  0.00  0.00    +0.000 C 
BRANCH  23  24
ATOM     24  C   UNL     1      -1.919  10.199  17.380  0.00  0.00    +0.000 C 
BRANCH  24  26
ATOM     25  C   UNL     1      -2.857  10.355  15.175  0.00  0.00    +0.000 C 
ATOM     26  N   UNL     1      -2.720  11.033  16.468  0.00  0.00    +0.000 NA
ATOM     27  C   UNL     1      -4.048  11.335  17.006  0.00  0.00    +0.000 C 
ENDBRANCH  24  26
ENDBRANCH  23  24
ENDBRANCH  22  23
ENDBRANCH  21  22
ENDBRANCH  20  21
ENDBRANCH  18  20
ENDBRANCH   1  18
BRANCH  13  28
ATOM     28  O   UNL     1       4.100   7.743  18.121  0.00  0.00    +0.000 OA
ATOM     29  H   UNL     1       3.287   8.208  18.371  0.00  0.00    +0.000 HD
ENDBRANCH  13  28
TORSDOF 9
ENDMDL
MODEL 9
REMARK VINA RESULT:      -6.9      1.857      2.585
REMARK  Name = 
REMARK  11 active torsions:
REMARK  status: ('A' for Active; 'I' for Inactive)
REMARK    1  A    between atoms: C_1  and  N_2
REMARK    2  A    between atoms: N_2  and  C_3
REMARK    3  A    between atoms: N_2  and  C_4
REMARK    4  A    between atoms: C_4  and  C_5
REMARK    5  A    between atoms: C_5  and  C_6
REMARK    6  A    between atoms: C_6  and  C_7
REMARK    7  A    between atoms: C_7  and  C_8
REMARK    8  A    between atoms: C_8  and  N_9
REMARK    9  A    between atoms: N_9  and  C_10
REMARK   10  A    between atoms: C_13  and  N_14
REMARK   11  A    between atoms: C_25  and  O_26
REMARK                            x       y       z     vdW  Elec       q    Type
REMARK                         _______ _______ _______ _____ _____    ______ ____
ROOT
ATOM      1  C   UNL     1       2.226   6.602  19.827  0.00  0.00    +0.000 A 
ATOM      2  C   UNL     1       1.589   5.866  20.841  0.00  0.00    +0.000 A 
ATOM      3  C   UNL     1       1.784   4.503  20.956  0.00  0.00    +0.000 A 
ATOM      4  C   UNL     1       2.599   3.871  20.016  0.00  0.00    +0.000 A 
ATOM      5  C   UNL     1       3.239   4.525  18.962  0.00  0.00    +0.000 A 
ATOM      6  N   UNL     1       4.021   3.840  18.099  0.00  0.00    +0.000 NA
ATOM      7  C   UNL     1       4.629   4.451  17.073  0.00  0.00    +0.000 A 
ATOM      8  C   UNL     1       5.405   3.676  16.222  0.00  0.00    +0.000 A 
ATOM      9  C   UNL     1       6.087   4.223  15.133  0.00  0.00    +0.000 A 
ATOM     10  C   UNL     1       5.988   5.581  14.879  0.00  0.00    +0.000 A 
ATOM     11  C   UNL     1       5.213   6.379  15.719  0.00  0.00    +0.000 A 
ATOM     12  C   UNL     1       4.519   5.827  16.833  0.00  0.00    +0.000 A 
ATOM     13  C   UNL     1       3.717   6.545  17.757  0.00  0.00    +0.000 A 
ATOM     14  C   UNL     1       3.046   5.920  18.851  0.00  0.00    +0.000 A 
ENDROOT
BRANCH   4  15
ATOM     15  N   UNL     1       2.772   2.445  20.180  0.00  0.00    +0.000 N 
ATOM     16  O   UNL     1       3.666   2.076  20.952  0.00  0.00    +0.000 OA
ATOM     17  O   UNL     1       1.951   1.699  19.630  0.00  0.00    +0.000 OA
ENDBRANCH   4  15
BRANCH   1  18
ATOM     18  N   UNL     1       1.958   7.977  19.702  0.00  0.00    +0.000 N 
ATOM     19  H   UNL     1       2.784   8.458  19.312  0.00  0.00    +0.000 HD
BRANCH  18  20
ATOM     20  C   UNL     1       1.344   8.675  20.825  0.00  0.00    +0.000 C 
BRANCH  20  21
ATOM     21  C   UNL     1       0.238   9.601  20.336  0.00  0.00    +0.000 C 
BRANCH  21  22
ATOM     22  C   UNL     1       0.422   9.983  18.866  0.00  0.00    +0.000 C 
BRANCH  22  23
ATOM     23  C   UNL     1       0.317  11.495  18.699  0.00  0.00    +0.000 C 
BRANCH  23  24
ATOM     24  C   UNL     1       0.902  12.233  19.908  0.00  0.00    +0.000 C 
BRANCH  24  26
ATOM     25  C   UNL     1       2.709  13.635  20.639  0.00  0.00    +0.000 C 
ATOM     26  N   UNL     1       1.794  13.342  19.531  0.00  0.00    +0.000 NA
ATOM     27  C   UNL     1       2.567  13.054  18.321  0.00  0.00    +0.000 C 
ENDBRANCH  24  26
ENDBRANCH  23  24
ENDBRANCH  22  23
ENDBRANCH  21  22
ENDBRANCH  20  21
ENDBRANCH  18  20
ENDBRANCH   1  18
BRANCH  13  28
ATOM     28  O   UNL     1       3.590   7.917  17.639  0.00  0.00    +0.000 OA
ATOM     29  H   UNL     1       3.186   8.288  18.438  0.00  0.00    +0.000 HD
ENDBRANCH  13  28
TORSDOF 9
ENDMDL
