MODEL 1
REMARK VINA RESULT:      -8.3      0.000      0.000
REMARK  Name = 
REMARK  5 active torsions:
REMARK  status: ('A' for Active; 'I' for Inactive)
REMARK    1  A    between atoms: C_1  and  N_2
REMARK    2  A    between atoms: C_8  and  O_9
REMARK    3  A    between atoms: O_9  and  C_10
REMARK    4  A    between atoms: N_12  and  C_13
REMARK    5  A    between atoms: C_19  and  C_20
REMARK                            x       y       z     vdW  Elec       q    Type
REMARK                         _______ _______ _______ _____ _____    ______ ____
ROOT
ATOM      1  C   UNL     1       1.468   7.525  20.807  0.00  0.00    +0.000 C 
ATOM      2  O   UNL     1       0.428   7.139  21.318  0.00  0.00    +0.000 OA
ATOM      3  N   UNL     1       2.482   6.752  20.297  0.00  0.00    +0.000 N 
ATOM      4  H   UNL     1       3.158   7.270  19.751  0.00  0.00    +0.000 HD
ENDROOT
BRANCH   3   5
ATOM      5  C   UNL     1       2.278   5.395  19.989  0.00  0.00    +0.000 A 
ATOM      6  C   UNL     1       1.172   4.742  20.570  0.00  0.00    +0.000 A 
ATOM      7  C   UNL     1       0.920   3.396  20.318  0.00  0.00    +0.000 A 
ATOM      8  C   UNL     1       1.759   2.710  19.461  0.00  0.00    +0.000 A 
ATOM      9  F   UNL     1       1.518   1.420  19.194  0.00  0.00    +0.000 F 
ATOM     10  C   UNL     1       2.851   3.339  18.865  0.00  0.00    +0.000 A 
ATOM     11  C   UNL     1       3.166   4.693  19.120  0.00  0.00    +0.000 A 
BRANCH  11  12
ATOM     12  C   UNL     1       4.346   5.303  18.434  0.00  0.00    +0.000 A 
ATOM     13  C   UNL     1       4.229   5.824  17.128  0.00  0.00    +0.000 A 
ATOM     14  C   UNL     1       5.308   6.417  16.462  0.00  0.00    +0.000 A 
ATOM     15  C   UNL     1       6.560   6.475  17.072  0.00  0.00    +0.000 A 
ATOM     16  C   UNL     1       6.702   5.976  18.363  0.00  0.00    +0.000 A 
ATOM     17 CL   UNL     1       8.252   6.010  19.107  0.00  0.00    +0.000 Cl
ATOM     18  C   UNL     1       5.606   5.432  19.045  0.00  0.00    +0.000 A 
ENDBRANCH  11  12
ENDBRANCH   3   5
BRANCH   1  19
ATOM     19  O   UNL     1       1.752   8.836  20.581  0.00  0.00    +0.000 OA
BRANCH  19  27
ATOM     20  C   UNL     1       1.283  13.435  19.787  0.00  0.00    +0.000 C 
ATOM     21  N   UNL     1       0.965  12.003  19.401  0.00  0.00    +0.000 N 
ATOM     22  C   UNL     1       2.055  11.499  18.436  0.00  0.00    +0.000 C 
ATOM     23  C   UNL     1       1.687  10.108  17.932  0.00  0.00    +0.000 C 
ATOM     24  C   UNL     1       0.426   9.598  18.635  0.00  0.00    +0.000 C 
ATOM     25  C   UNL     1      -0.716  10.543  18.251  0.00  0.00    +0.000 C 
ATOM     26  C   UNL     1      -0.411  11.969  18.704  0.00  0.00    +0.000 C 
ATOM     27  C   UNL     1       0.627   9.644  20.171  0.00  0.00    +0.000 C 
ATOM     28  C   UNL     1       0.913  11.092  20.617  0.00  0.00    +0.000 C 
ENDBRANCH  19  27
ENDBRANCH   1  19
TORSDOF 4
ENDMDL
MODEL 2
REMARK VINA RESULT:      -8.3      1.449      1.725
REMARK  Name = 
REMARK  5 active torsions:
REMARK  status: ('A' for Active; 'I' for Inactive)
REMARK    1  A    between atoms: C_1  and  N_2
REMARK    2  A    between atoms: C_8  and  O_9
REMARK    3  A    between atoms: O_9  and  C_10
REMARK    4  A    between atoms: N_12  and  C_13
REMARK    5  A    between atoms: C_19  and  C_20
REMARK                            x       y       z     vdW  Elec       q    Type
REMARK                         _______ _______ _______ _____ _____    ______ ____
ROOT
ATOM      1  C   UNL     1       2.095   7.441  19.946  0.00  0.00    +0.000 C 
ATOM      2  O   UNL     1       1.729   6.714  20.856  0.00  0.00    +0.000 OA
ATOM      3  N   UNL     1       2.723   7.070  18.783  0.00  0.00    +0.000 N 
ATOM      4  H   UNL     1       2.763   7.801  18.085  0.00  0.00    +0.000 HD
ENDROOT
BRANCH   3   5
ATOM      5  C   UNL     1       2.710   5.733  18.344  0.00  0.00    +0.000 A 
ATOM      6  C   UNL     1       1.462   5.095  18.197  0.00  0.00    +0.000 A 
ATOM      7  C   UNL     1       1.378   3.770  17.780  0.00  0.00    +0.000 A 
ATOM      8  C   UNL     1       2.544   3.091  17.482  0.00  0.00    +0.000 A 
ATOM      9  F   UNL     1       2.478   1.821  17.061  0.00  0.00    +0.000 F 
ATOM     10  C   UNL     1       3.788   3.706  17.607  0.00  0.00    +0.000 A 
ATOM     11  C   UNL     1       3.923   5.037  18.061  0.00  0.00    +0.000 A 
BRANCH  11  12
ATOM     12  C   UNL     1       5.290   5.634  18.157  0.00  0.00    +0.000 A 
ATOM     13  C   UNL     1       5.711   6.619  17.239  0.00  0.00    +0.000 A 
ATOM     14  C   UNL     1       6.978   7.211  17.310  0.00  0.00    +0.000 A 
ATOM     15  C   UNL     1       7.886   6.806  18.287  0.00  0.00    +0.000 A 
ATOM     16  C   UNL     1       7.495   5.842  19.210  0.00  0.00    +0.000 A 
ATOM     17 CL   UNL     1       8.622   5.310  20.394  0.00  0.00    +0.000 Cl
ATOM     18  C   UNL     1       6.207   5.291  19.167  0.00  0.00    +0.000 A 
ENDBRANCH  11  12
ENDBRANCH   3   5
BRANCH   1  19
ATOM     19  O   UNL     1       1.846   8.779  19.908  0.00  0.00    +0.000 OA
BRANCH  19  27
ATOM     20  C   UNL     1      -1.078  11.979  21.700  0.00  0.00    +0.000 C 
ATOM     21  N   UNL     1      -0.518  11.250  20.494  0.00  0.00    +0.000 N 
ATOM     22  C   UNL     1       0.714  12.019  19.980  0.00  0.00    +0.000 C 
ATOM     23  C   UNL     1       1.214  11.377  18.690  0.00  0.00    +0.000 C 
ATOM     24  C   UNL     1       0.422  10.105  18.380  0.00  0.00    +0.000 C 
ATOM     25  C   UNL     1      -1.033  10.526  18.150  0.00  0.00    +0.000 C 
ATOM     26  C   UNL     1      -1.603  11.200  19.396  0.00  0.00    +0.000 C 
ATOM     27  C   UNL     1       0.484   9.140  19.591  0.00  0.00    +0.000 C 
ATOM     28  C   UNL     1      -0.113   9.825  20.836  0.00  0.00    +0.000 C 
ENDBRANCH  19  27
ENDBRANCH   1  19
TORSDOF 4
ENDMDL
MODEL 3
REMARK VINA RESULT:      -8.3      2.510      4.195
REMARK  Name = 
REMARK  5 active torsions:
REMARK  status: ('A' for Active; 'I' for Inactive)
REMARK    1  A    between atoms: C_1  and  N_2
REMARK    2  A    between atoms: C_8  and  O_9
REMARK    3  A    between atoms: O_9  and  C_10
REMARK    4  A    between atoms: N_12  and  C_13
REMARK    5  A    between atoms: C_19  and  C_20
REMARK                            x       y       z     vdW  Elec       q    Type
REMARK                         _______ _______ _______ _____ _____    ______ ____
ROOT
ATOM      1  C   UNL     1       2.195   8.398  18.264  0.00  0.00    +0.000 C 
ATOM      2  O   UNL     1       2.054   8.807  17.122  0.00  0.00    +0.000 OA
ATOM      3  N   UNL     1       2.799   7.231  18.662  0.00  0.00    +0.000 N 
ATOM      4  H   UNL     1       2.979   7.180  19.655  0.00  0.00    +0.000 HD
ENDROOT
BRANCH   3   5
ATOM      5  C   UNL     1       3.648   6.519  17.795  0.00  0.00    +0.000 A 
ATOM      6  C   UNL     1       4.578   7.251  17.028  0.00  0.00    +0.000 A 
ATOM      7  C   UNL     1       5.439   6.610  16.142  0.00  0.00    +0.000 A 
ATOM      8  C   UNL     1       5.388   5.232  16.042  0.00  0.00    +0.000 A 
ATOM      9  F   UNL     1       6.222   4.600  15.207  0.00  0.00    +0.000 F 
ATOM     10  C   UNL     1       4.486   4.488  16.800  0.00  0.00    +0.000 A 
ATOM     11  C   UNL     1       3.569   5.099  17.686  0.00  0.00    +0.000 A 
BRANCH  11  12
ATOM     12  C   UNL     1       2.641   4.234  18.475  0.00  0.00    +0.000 A 
ATOM     13  C   UNL     1       1.540   3.606  17.856  0.00  0.00    +0.000 A 
ATOM     14  C   UNL     1       0.661   2.775  18.562  0.00  0.00    +0.000 A 
ATOM     15  C   UNL     1       0.834   2.575  19.930  0.00  0.00    +0.000 A 
ATOM     16  C   UNL     1       1.916   3.176  20.565  0.00  0.00    +0.000 A 
ATOM     17 CL   UNL     1       2.115   2.963  22.260  0.00  0.00    +0.000 Cl
ATOM     18  C   UNL     1       2.823   3.962  19.844  0.00  0.00    +0.000 A 
ENDBRANCH  11  12
ENDBRANCH   3   5
BRANCH   1  19
ATOM     19  O   UNL     1       1.835   9.110  19.366  0.00  0.00    +0.000 OA
BRANCH  19  27
ATOM     20  C   UNL     1      -0.791  11.227  22.626  0.00  0.00    +0.000 C 
ATOM     21  N   UNL     1      -0.330  11.122  21.185  0.00  0.00    +0.000 N 
ATOM     22  C   UNL     1       0.932  11.988  21.006  0.00  0.00    +0.000 C 
ATOM     23  C   UNL     1       1.337  12.001  19.536  0.00  0.00    +0.000 C 
ATOM     24  C   UNL     1       0.448  11.057  18.724  0.00  0.00    +0.000 C 
ATOM     25  C   UNL     1      -0.982  11.599  18.812  0.00  0.00    +0.000 C 
ATOM     26  C   UNL     1      -1.456  11.637  20.264  0.00  0.00    +0.000 C 
ATOM     27  C   UNL     1       0.490   9.636  19.343  0.00  0.00    +0.000 C 
ATOM     28  C   UNL     1      -0.010   9.686  20.800  0.00  0.00    +0.000 C 
ENDBRANCH  19  27
ENDBRANCH   1  19
TORSDOF 4
ENDMDL
MODEL 4
REMARK VINA RESULT:      -8.3      4.862      6.823
REMARK  Name = 
REMARK  5 active torsions:
REMARK  status: ('A' for Active; 'I' for Inactive)
REMARK    1  A    between atoms: C_1  and  N_2
REMARK    2  A    between atoms: C_8  and  O_9
REMARK    3  A    between atoms: O_9  and  C_10
REMARK    4  A    between atoms: N_12  and  C_13
REMARK    5  A    between atoms: C_19  and  C_20
REMARK                            x       y       z     vdW  Elec       q    Type
REMARK                         _______ _______ _______ _____ _____    ______ ____
ROOT
ATOM      1  C   UNL     1       4.387   4.583  17.215  0.00  0.00    +0.000 C 
ATOM      2  O   UNL     1       4.057   5.705  16.865  0.00  0.00    +0.000 OA
ATOM      3  N   UNL     1       5.074   3.648  16.479  0.00  0.00    +0.000 N 
ATOM      4  H   UNL     1       5.410   2.864  17.022  0.00  0.00    +0.000 HD
ENDROOT
BRANCH   3   5
ATOM      5  C   UNL     1       5.791   4.014  15.325  0.00  0.00    +0.000 A 
ATOM      6  C   UNL     1       5.410   3.434  14.097  0.00  0.00    +0.000 A 
ATOM      7  C   UNL     1       6.085   3.742  12.920  0.00  0.00    +0.000 A 
ATOM      8  C   UNL     1       7.124   4.652  12.966  0.00  0.00    +0.000 A 
ATOM      9  F   UNL     1       7.771   4.972  11.837  0.00  0.00    +0.000 F 
ATOM     10  C   UNL     1       7.508   5.246  14.166  0.00  0.00    +0.000 A 
ATOM     11  C   UNL     1       6.876   4.937  15.391  0.00  0.00    +0.000 A 
BRANCH  11  12
ATOM     12  C   UNL     1       7.334   5.626  16.636  0.00  0.00    +0.000 A 
ATOM     13  C   UNL     1       7.649   4.885  17.794  0.00  0.00    +0.000 A 
ATOM     14  C   UNL     1       8.098   5.496  18.971  0.00  0.00    +0.000 A 
ATOM     15  C   UNL     1       8.211   6.883  19.040  0.00  0.00    +0.000 A 
ATOM     16  C   UNL     1       7.914   7.638  17.910  0.00  0.00    +0.000 A 
ATOM     17 CL   UNL     1       8.016   9.353  17.999  0.00  0.00    +0.000 Cl
ATOM     18  C   UNL     1       7.518   7.018  16.719  0.00  0.00    +0.000 A 
ENDBRANCH  11  12
ENDBRANCH   3   5
BRANCH   1  19
ATOM     19  O   UNL     1       4.191   4.100  18.472  0.00  0.00    +0.000 OA
BRANCH  19  27
ATOM     20  C   UNL     1       1.730   2.541  22.148  0.00  0.00    +0.000 C 
ATOM     21  N   UNL     1       1.779   2.962  20.693  0.00  0.00    +0.000 N 
ATOM     22  C   UNL     1       1.531   4.480  20.609  0.00  0.00    +0.000 C 
ATOM     23  C   UNL     1       1.445   4.903  19.147  0.00  0.00    +0.000 C 
ATOM     24  C   UNL     1       1.757   3.722  18.226  0.00  0.00    +0.000 C 
ATOM     25  C   UNL     1       0.672   2.668  18.463  0.00  0.00    +0.000 C 
ATOM     26  C   UNL     1       0.678   2.206  19.919  0.00  0.00    +0.000 C 
ATOM     27  C   UNL     1       3.137   3.120  18.594  0.00  0.00    +0.000 C 
ATOM     28  C   UNL     1       3.123   2.639  20.058  0.00  0.00    +0.000 C 
ENDBRANCH  19  27
ENDBRANCH   1  19
TORSDOF 4
ENDMDL
MODEL 5
REMARK VINA RESULT:      -8.0      4.357      6.646
REMARK  Name = 
REMARK  5 active torsions:
REMARK  status: ('A' for Active; 'I' for Inactive)
REMARK    1  A    between atoms: C_1  and  N_2
REMARK    2  A    between atoms: C_8  and  O_9
REMARK    3  A    between atoms: O_9  and  C_10
REMARK    4  A    between atoms: N_12  and  C_13
REMARK    5  A    between atoms: C_19  and  C_20
REMARK                            x       y       z     vdW  Elec       q    Type
REMARK                         _______ _______ _______ _____ _____    ______ ____
ROOT
ATOM      1  C   UNL     1       4.263   3.020  17.033  0.00  0.00    +0.000 C 
ATOM      2  O   UNL     1       4.931   2.003  16.929  0.00  0.00    +0.000 OA
ATOM      3  N   UNL     1       4.477   4.225  16.411  0.00  0.00    +0.000 N 
ATOM      4  H   UNL     1       3.702   4.870  16.485  0.00  0.00    +0.000 HD
ENDROOT
BRANCH   3   5
ATOM      5  C   UNL     1       5.319   4.324  15.288  0.00  0.00    +0.000 A 
ATOM      6  C   UNL     1       4.872   3.765  14.073  0.00  0.00    +0.000 A 
ATOM      7  C   UNL     1       5.661   3.817  12.927  0.00  0.00    +0.000 A 
ATOM      8  C   UNL     1       6.886   4.453  12.989  0.00  0.00    +0.000 A 
ATOM      9  F   UNL     1       7.647   4.527  11.890  0.00  0.00    +0.000 F 
ATOM     10  C   UNL     1       7.341   5.024  14.176  0.00  0.00    +0.000 A 
ATOM     11  C   UNL     1       6.591   4.964  15.372  0.00  0.00    +0.000 A 
BRANCH  11  12
ATOM     12  C   UNL     1       7.139   5.612  16.603  0.00  0.00    +0.000 A 
ATOM     13  C   UNL     1       7.480   4.839  17.732  0.00  0.00    +0.000 A 
ATOM     14  C   UNL     1       8.011   5.410  18.895  0.00  0.00    +0.000 A 
ATOM     15  C   UNL     1       8.186   6.790  18.979  0.00  0.00    +0.000 A 
ATOM     16  C   UNL     1       7.866   7.577  17.877  0.00  0.00    +0.000 A 
ATOM     17 CL   UNL     1       8.043   9.283  17.986  0.00  0.00    +0.000 Cl
ATOM     18  C   UNL     1       7.385   6.994  16.697  0.00  0.00    +0.000 A 
ENDBRANCH  11  12
ENDBRANCH   3   5
BRANCH   1  19
ATOM     19  O   UNL     1       3.107   3.089  17.747  0.00  0.00    +0.000 OA
BRANCH  19  27
ATOM     20  C   UNL     1       1.665   6.289  20.858  0.00  0.00    +0.000 C 
ATOM     21  N   UNL     1       1.911   4.838  20.496  0.00  0.00    +0.000 N 
ATOM     22  C   UNL     1       0.645   4.273  19.826  0.00  0.00    +0.000 C 
ATOM     23  C   UNL     1       0.823   2.780  19.572  0.00  0.00    +0.000 C 
ATOM     24  C   UNL     1       2.241   2.338  19.941  0.00  0.00    +0.000 C 
ATOM     25  C   UNL     1       2.407   2.571  21.446  0.00  0.00    +0.000 C 
ATOM     26  C   UNL     1       2.220   4.048  21.786  0.00  0.00    +0.000 C 
ATOM     27  C   UNL     1       3.276   3.203  19.178  0.00  0.00    +0.000 C 
ATOM     28  C   UNL     1       3.089   4.688  19.546  0.00  0.00    +0.000 C 
ENDBRANCH  19  27
ENDBRANCH   1  19
TORSDOF 4
ENDMDL
MODEL 6
REMARK VINA RESULT:      -8.0      1.590      2.040
REMARK  Name = 
REMARK  5 active torsions:
REMARK  status: ('A' for Active; 'I' for Inactive)
REMARK    1  A    between atoms: C_1  and  N_2
REMARK    2  A    between atoms: C_8  and  O_9
REMARK    3  A    between atoms: O_9  and  C_10
REMARK    4  A    between atoms: N_12  and  C_13
REMARK    5  A    between atoms: C_19  and  C_20
REMARK                            x       y       z     vdW  Elec       q    Type
REMARK                         _______ _______ _______ _____ _____    ______ ____
ROOT
ATOM      1  C   UNL     1       2.140   7.430  19.911  0.00  0.00    +0.000 C 
ATOM      2  O   UNL     1       1.685   6.702  20.779  0.00  0.00    +0.000 OA
ATOM      3  N   UNL     1       2.831   7.054  18.785  0.00  0.00    +0.000 N 
ATOM      4  H   UNL     1       2.947   7.796  18.107  0.00  0.00    +0.000 HD
ENDROOT
BRANCH   3   5
ATOM      5  C   UNL     1       2.797   5.727  18.320  0.00  0.00    +0.000 A 
ATOM      6  C   UNL     1       1.540   5.159  18.029  0.00  0.00    +0.000 A 
ATOM      7  C   UNL     1       1.433   3.847  17.577  0.00  0.00    +0.000 A 
ATOM      8  C   UNL     1       2.588   3.111  17.389  0.00  0.00    +0.000 A 
ATOM      9  F   UNL     1       2.502   1.853  16.937  0.00  0.00    +0.000 F 
ATOM     10  C   UNL     1       3.841   3.657  17.658  0.00  0.00    +0.000 A 
ATOM     11  C   UNL     1       3.995   4.972  18.152  0.00  0.00    +0.000 A 
BRANCH  11  12
ATOM     12  C   UNL     1       5.373   5.493  18.404  0.00  0.00    +0.000 A 
ATOM     13  C   UNL     1       6.207   4.888  19.369  0.00  0.00    +0.000 A 
ATOM     14  C   UNL     1       7.508   5.340  19.618  0.00  0.00    +0.000 A 
ATOM     15  C   UNL     1       8.009   6.444  18.931  0.00  0.00    +0.000 A 
ATOM     16  C   UNL     1       7.212   7.055  17.968  0.00  0.00    +0.000 A 
ATOM     17 CL   UNL     1       7.810   8.440  17.143  0.00  0.00    +0.000 Cl
ATOM     18  C   UNL     1       5.931   6.566  17.685  0.00  0.00    +0.000 A 
ENDBRANCH  11  12
ENDBRANCH   3   5
BRANCH   1  19
ATOM     19  O   UNL     1       1.947   8.777  19.884  0.00  0.00    +0.000 OA
BRANCH  19  27
ATOM     20  C   UNL     1      -0.730  12.087  21.853  0.00  0.00    +0.000 C 
ATOM     21  N   UNL     1      -0.274  11.342  20.614  0.00  0.00    +0.000 N 
ATOM     22  C   UNL     1       0.956  12.061  20.029  0.00  0.00    +0.000 C 
ATOM     23  C   UNL     1       1.352  11.405  18.710  0.00  0.00    +0.000 C 
ATOM     24  C   UNL     1       0.491  10.168  18.445  0.00  0.00    +0.000 C 
ATOM     25  C   UNL     1      -0.956  10.650  18.303  0.00  0.00    +0.000 C 
ATOM     26  C   UNL     1      -1.423  11.341  19.582  0.00  0.00    +0.000 C 
ATOM     27  C   UNL     1       0.584   9.196  19.648  0.00  0.00    +0.000 C 
ATOM     28  C   UNL     1       0.092   9.899  20.928  0.00  0.00    +0.000 C 
ENDBRANCH  19  27
ENDBRANCH   1  19
TORSDOF 4
ENDMDL
MODEL 7
REMARK VINA RESULT:      -7.9      1.351      1.394
REMARK  Name = 
REMARK  5 active torsions:
REMARK  status: ('A' for Active; 'I' for Inactive)
REMARK    1  A    between atoms: C_1  and  N_2
REMARK    2  A    between atoms: C_8  and  O_9
REMARK    3  A    between atoms: O_9  and  C_10
REMARK    4  A    between atoms: N_12  and  C_13
REMARK    5  A    between atoms: C_19  and  C_20
REMARK                            x       y       z     vdW  Elec       q    Type
REMARK                         _______ _______ _______ _____ _____    ______ ____
ROOT
ATOM      1  C   UNL     1       1.580   7.418  20.661  0.00  0.00    +0.000 C 
ATOM      2  O   UNL     1       0.588   7.084  21.288  0.00  0.00    +0.000 OA
ATOM      3  N   UNL     1       2.529   6.597  20.103  0.00  0.00    +0.000 N 
ATOM      4  H   UNL     1       3.158   7.069  19.467  0.00  0.00    +0.000 HD
ENDROOT
BRANCH   3   5
ATOM      5  C   UNL     1       2.276   5.229  19.895  0.00  0.00    +0.000 A 
ATOM      6  C   UNL     1       1.450   4.559  20.821  0.00  0.00    +0.000 A 
ATOM      7  C   UNL     1       1.170   3.203  20.682  0.00  0.00    +0.000 A 
ATOM      8  C   UNL     1       1.693   2.522  19.600  0.00  0.00    +0.000 A 
ATOM      9  F   UNL     1       1.417   1.221  19.443  0.00  0.00    +0.000 F 
ATOM     10  C   UNL     1       2.501   3.167  18.665  0.00  0.00    +0.000 A 
ATOM     11  C   UNL     1       2.841   4.533  18.786  0.00  0.00    +0.000 A 
BRANCH  11  12
ATOM     12  C   UNL     1       3.702   5.159  17.736  0.00  0.00    +0.000 A 
ATOM     13  C   UNL     1       3.805   6.563  17.632  0.00  0.00    +0.000 A 
ATOM     14  C   UNL     1       4.615   7.182  16.673  0.00  0.00    +0.000 A 
ATOM     15  C   UNL     1       5.325   6.411  15.754  0.00  0.00    +0.000 A 
ATOM     16  C   UNL     1       5.248   5.025  15.838  0.00  0.00    +0.000 A 
ATOM     17 CL   UNL     1       6.091   4.069  14.684  0.00  0.00    +0.000 Cl
ATOM     18  C   UNL     1       4.479   4.410  16.833  0.00  0.00    +0.000 A 
ENDBRANCH  11  12
ENDBRANCH   3   5
BRANCH   1  19
ATOM     19  O   UNL     1       1.862   8.708  20.332  0.00  0.00    +0.000 OA
BRANCH  19  27
ATOM     20  C   UNL     1       1.264  13.353  20.069  0.00  0.00    +0.000 C 
ATOM     21  N   UNL     1       0.980  11.967  19.525  0.00  0.00    +0.000 N 
ATOM     22  C   UNL     1       2.071  11.604  18.500  0.00  0.00    +0.000 C 
ATOM     23  C   UNL     1       1.733  10.269  17.845  0.00  0.00    +0.000 C 
ATOM     24  C   UNL     1       0.495   9.650  18.496  0.00  0.00    +0.000 C 
ATOM     25  C   UNL     1      -0.676  10.601  18.231  0.00  0.00    +0.000 C 
ATOM     26  C   UNL     1      -0.403  11.974  18.841  0.00  0.00    +0.000 C 
ATOM     27  C   UNL     1       0.711   9.527  20.026  0.00  0.00    +0.000 C 
ATOM     28  C   UNL     1       0.965  10.922  20.631  0.00  0.00    +0.000 C 
ENDBRANCH  19  27
ENDBRANCH   1  19
TORSDOF 4
ENDMDL
MODEL 8
REMARK VINA RESULT:      -7.9      1.232      1.492
REMARK  Name = 
REMARK  5 active torsions:
REMARK  status: ('A' for Active; 'I' for Inactive)
REMARK    1  A    between atoms: C_1  and  N_2
REMARK    2  A    between atoms: C_8  and  O_9
REMARK    3  A    between atoms: O_9  and  C_10
REMARK    4  A    between atoms: N_12  and  C_13
REMARK    5  A    between atoms: C_19  and  C_20
REMARK                            x       y       z     vdW  Elec       q    Type
REMARK                         _______ _______ _______ _____ _____    ______ ____
ROOT
ATOM      1  C   UNL     1       1.948   7.353  20.294  0.00  0.00    +0.000 C 
ATOM      2  O   UNL     1       1.293   7.009  21.265  0.00  0.00    +0.000 OA
ATOM      3  N   UNL     1       2.675   6.549  19.451  0.00  0.00    +0.000 N 
ATOM      4  H   UNL     1       2.980   7.010  18.605  0.00  0.00    +0.000 HD
ENDROOT
BRANCH   3   5
ATOM      5  C   UNL     1       2.465   5.158  19.411  0.00  0.00    +0.000 A 
ATOM      6  C   UNL     1       1.226   4.662  19.867  0.00  0.00    +0.000 A 
ATOM      7  C   UNL     1       0.958   3.296  19.868  0.00  0.00    +0.000 A 
ATOM      8  C   UNL     1       1.919   2.428  19.386  0.00  0.00    +0.000 A 
ATOM      9  F   UNL     1       1.667   1.113  19.363  0.00  0.00    +0.000 F 
ATOM     10  C   UNL     1       3.144   2.898  18.919  0.00  0.00    +0.000 A 
ATOM     11  C   UNL     1       3.474   4.272  18.933  0.00  0.00    +0.000 A 
BRANCH  11  12
ATOM     12  C   UNL     1       4.804   4.702  18.402  0.00  0.00    +0.000 A 
ATOM     13  C   UNL     1       5.773   5.266  19.259  0.00  0.00    +0.000 A 
ATOM     14  C   UNL     1       7.034   5.664  18.799  0.00  0.00    +0.000 A 
ATOM     15  C   UNL     1       7.356   5.544  17.448  0.00  0.00    +0.000 A 
ATOM     16  C   UNL     1       6.423   4.984  16.582  0.00  0.00    +0.000 A 
ATOM     17 CL   UNL     1       6.799   4.867  14.908  0.00  0.00    +0.000 Cl
ATOM     18  C   UNL     1       5.183   4.538  17.057  0.00  0.00    +0.000 A 
ENDBRANCH  11  12
ENDBRANCH   3   5
BRANCH   1  19
ATOM     19  O   UNL     1       1.987   8.632  19.830  0.00  0.00    +0.000 OA
BRANCH  19  27
ATOM     20  C   UNL     1       0.550  12.902  21.135  0.00  0.00    +0.000 C 
ATOM     21  N   UNL     1       0.523  11.764  20.134  0.00  0.00    +0.000 N 
ATOM     22  C   UNL     1       1.659  11.974  19.115  0.00  0.00    +0.000 C 
ATOM     23  C   UNL     1       1.569  10.913  18.024  0.00  0.00    +0.000 C 
ATOM     24  C   UNL     1       0.467   9.902  18.346  0.00  0.00    +0.000 C 
ATOM     25  C   UNL     1      -0.859  10.669  18.351  0.00  0.00    +0.000 C 
ATOM     26  C   UNL     1      -0.840  11.771  19.409  0.00  0.00    +0.000 C 
ATOM     27  C   UNL     1       0.706   9.295  19.752  0.00  0.00    +0.000 C 
ATOM     28  C   UNL     1       0.702  10.415  20.812  0.00  0.00    +0.000 C 
ENDBRANCH  19  27
ENDBRANCH   1  19
TORSDOF 4
ENDMDL
MODEL 9
REMARK VINA RESULT:      -7.9      2.520      4.363
REMARK  Name = 
REMARK  5 active torsions:
REMARK  status: ('A' for Active; 'I' for Inactive)
REMARK    1  A    between atoms: C_1  and  N_2
REMARK    2  A    between atoms: C_8  and  O_9
REMARK    3  A    between atoms: O_9  and  C_10
REMARK    4  A    between atoms: N_12  and  C_13
REMARK    5  A    between atoms: C_19  and  C_20
REMARK                            x       y       z     vdW  Elec       q    Type
REMARK                         _______ _______ _______ _____ _____    ______ ____
ROOT
ATOM      1  C   UNL     1       2.480   8.205  17.984  0.00  0.00    +0.000 C 
ATOM      2  O   UNL     1       2.626   8.518  16.813  0.00  0.00    +0.000 OA
ATOM      3  N   UNL     1       2.984   7.097  18.620  0.00  0.00    +0.000 N 
ATOM      4  H   UNL     1       2.907   7.130  19.627  0.00  0.00    +0.000 HD
ENDROOT
BRANCH   3   5
ATOM      5  C   UNL     1       4.038   6.353  18.059  0.00  0.00    +0.000 A 
ATOM      6  C   UNL     1       5.133   7.058  17.518  0.00  0.00    +0.000 A 
ATOM      7  C   UNL     1       6.203   6.383  16.936  0.00  0.00    +0.000 A 
ATOM      8  C   UNL     1       6.190   5.002  16.919  0.00  0.00    +0.000 A 
ATOM      9  F   UNL     1       7.221   4.339  16.379  0.00  0.00    +0.000 F 
ATOM     10  C   UNL     1       5.124   4.285  17.459  0.00  0.00    +0.000 A 
ATOM     11  C   UNL     1       4.001   4.927  18.028  0.00  0.00    +0.000 A 
BRANCH  11  12
ATOM     12  C   UNL     1       2.902   4.091  18.600  0.00  0.00    +0.000 A 
ATOM     13  C   UNL     1       1.844   3.637  17.784  0.00  0.00    +0.000 A 
ATOM     14  C   UNL     1       0.808   2.838  18.283  0.00  0.00    +0.000 A 
ATOM     15  C   UNL     1       0.777   2.496  19.633  0.00  0.00    +0.000 A 
ATOM     16  C   UNL     1       1.811   2.923  20.459  0.00  0.00    +0.000 A 
ATOM     17 CL   UNL     1       1.760   2.536  22.134  0.00  0.00    +0.000 Cl
ATOM     18  C   UNL     1       2.873   3.677  19.944  0.00  0.00    +0.000 A 
ENDBRANCH  11  12
ENDBRANCH   3   5
BRANCH   1  19
ATOM     19  O   UNL     1       1.839   8.986  18.896  0.00  0.00    +0.000 OA
BRANCH  19  27
ATOM     20  C   UNL     1      -2.473  10.775  18.447  0.00  0.00    +0.000 C 
ATOM     21  N   UNL     1      -1.009  10.966  18.792  0.00  0.00    +0.000 N 
ATOM     22  C   UNL     1      -0.812  10.664  20.290  0.00  0.00    +0.000 C 
ATOM     23  C   UNL     1       0.627  10.976  20.687  0.00  0.00    +0.000 C 
ATOM     24  C   UNL     1       1.452  11.365  19.459  0.00  0.00    +0.000 C 
ATOM     25  C   UNL     1       0.842  12.652  18.897  0.00  0.00    +0.000 C 
ATOM     26  C   UNL     1      -0.614  12.428  18.493  0.00  0.00    +0.000 C 
ATOM     27  C   UNL     1       1.356  10.250  18.388  0.00  0.00    +0.000 C 
ATOM     28  C   UNL     1      -0.115  10.047  17.974  0.00  0.00    +0.000 C 
ENDBRANCH  19  27
ENDBRANCH   1  19
TORSDOF 4
ENDMDL
