MODEL 1
REMARK VINA RESULT:      -8.7      0.000      0.000
REMARK  Name = 
REMARK  4 active torsions:
REMARK  status: ('A' for Active; 'I' for Inactive)
REMARK    1  A    between atoms: C_1  and  C_2
REMARK    2  A    between atoms: C_2  and  C_3
REMARK    3  A    between atoms: C_7  and  C_8
REMARK    4  A    between atoms: N_10  and  C_11
REMARK                            x       y       z     vdW  Elec       q    Type
REMARK                         _______ _______ _______ _____ _____    ______ ____
ROOT
ATOM      1  C   UNL     1       2.439   6.658  19.244  0.00  0.00    +0.000 C 
ATOM      2  O   UNL     1       1.981   6.274  18.162  0.00  0.00    +0.000 OA
ATOM      3  N   UNL     1       3.488   6.009  19.892  0.00  0.00    +0.000 N 
ATOM      4  H   UNL     1       3.715   6.297  20.841  0.00  0.00    +0.000 HD
ENDROOT
BRANCH   3   5
ATOM      5  C   UNL     1       4.377   5.068  19.258  0.00  0.00    +0.000 A 
ATOM      6  C   UNL     1       4.003   3.732  19.130  0.00  0.00    +0.000 A 
ATOM      7  C   UNL     1       4.116   3.131  17.869  0.00  0.00    +0.000 A 
ATOM      8  C   UNL     1       4.492   3.912  16.763  0.00  0.00    +0.000 A 
ATOM      9  C   UNL     1       4.961   5.210  16.979  0.00  0.00    +0.000 A 
ATOM     10  C   UNL     1       5.289   5.519  18.300  0.00  0.00    +0.000 A 
ATOM     11  C   UNL     1       6.829   5.174  18.526  0.00  0.00    +0.000 C 
ATOM     12  C   UNL     1       7.546   4.704  17.220  0.00  0.00    +0.000 C 
ATOM     13  N   UNL     1       7.151   5.535  16.103  0.00  0.00    +0.000 N 
ATOM     14  C   UNL     1       5.822   5.866  15.973  0.00  0.00    +0.000 C 
ATOM     15  O   UNL     1       5.397   6.708  15.198  0.00  0.00    +0.000 OA
ATOM     16  H   UNL     1       7.816   6.061  15.550  0.00  0.00    +0.000 HD
ENDBRANCH   3   5
BRANCH   1  23
ATOM     17  C   UNL     1       1.585  12.550  19.973  0.00  0.00    +0.000 C 
ATOM     18  C   UNL     1       0.861  11.412  19.237  0.00  0.00    +0.000 C 
ATOM     19  C   UNL     1      -0.560  11.899  18.884  0.00  0.00    +0.000 C 
ATOM     20  C   UNL     1       1.636  10.933  17.985  0.00  0.00    +0.000 C 
ATOM     21  O   UNL     1       2.153   9.580  18.180  0.00  0.00    +0.000 OA
ATOM     22  C   UNL     1       1.616   9.137  19.361  0.00  0.00    +0.000 A 
ATOM     23  C   UNL     1       1.764   7.859  19.884  0.00  0.00    +0.000 A 
ATOM     24  C   UNL     1       1.128   7.633  21.125  0.00  0.00    +0.000 A 
ATOM     25  C   UNL     1       0.392   8.632  21.798  0.00  0.00    +0.000 A 
ATOM     26  C   UNL     1       0.264   9.893  21.239  0.00  0.00    +0.000 A 
ATOM     27  C   UNL     1       0.880  10.134  20.015  0.00  0.00    +0.000 A 
ENDBRANCH   1  23
TORSDOF 2
ENDMDL
MODEL 2
REMARK VINA RESULT:      -8.4      2.232      7.596
REMARK  Name = 
REMARK  4 active torsions:
REMARK  status: ('A' for Active; 'I' for Inactive)
REMARK    1  A    between atoms: C_1  and  C_2
REMARK    2  A    between atoms: C_2  and  C_3
REMARK    3  A    between atoms: C_7  and  C_8
REMARK    4  A    between atoms: N_10  and  C_11
REMARK                            x       y       z     vdW  Elec       q    Type
REMARK                         _______ _______ _______ _____ _____    ______ ____
ROOT
ATOM      1  C   UNL     1       2.296   8.146  18.328  0.00  0.00    +0.000 C 
ATOM      2  O   UNL     1       2.219   8.974  17.413  0.00  0.00    +0.000 OA
ATOM      3  N   UNL     1       1.712   8.347  19.577  0.00  0.00    +0.000 N 
ATOM      4  H   UNL     1       1.936   7.689  20.320  0.00  0.00    +0.000 HD
ENDROOT
BRANCH   3   5
ATOM      5  C   UNL     1       0.689   9.325  19.849  0.00  0.00    +0.000 A 
ATOM      6  C   UNL     1       0.248   9.527  21.155  0.00  0.00    +0.000 A 
ATOM      7  C   UNL     1       0.201  10.841  21.641  0.00  0.00    +0.000 A 
ATOM      8  C   UNL     1       0.696  11.888  20.847  0.00  0.00    +0.000 A 
ATOM      9  C   UNL     1       1.017  11.634  19.513  0.00  0.00    +0.000 A 
ATOM     10  C   UNL     1       0.543  10.424  19.001  0.00  0.00    +0.000 A 
ATOM     11  C   UNL     1      -0.896  10.682  18.365  0.00  0.00    +0.000 C 
ATOM     12  C   UNL     1      -1.315  12.186  18.392  0.00  0.00    +0.000 C 
ATOM     13  N   UNL     1      -0.199  13.026  18.012  0.00  0.00    +0.000 N 
ATOM     14  C   UNL     1       1.042  12.738  18.530  0.00  0.00    +0.000 C 
ATOM     15  O   UNL     1       2.083  13.241  18.140  0.00  0.00    +0.000 OA
ATOM     16  H   UNL     1      -0.236  13.663  17.226  0.00  0.00    +0.000 HD
ENDBRANCH   3   5
BRANCH   1  23
ATOM     17  C   UNL     1       4.323   2.672  19.702  0.00  0.00    +0.000 C 
ATOM     18  C   UNL     1       3.247   3.248  18.770  0.00  0.00    +0.000 C 
ATOM     19  C   UNL     1       2.845   2.149  17.765  0.00  0.00    +0.000 C 
ATOM     20  C   UNL     1       2.025   3.795  19.550  0.00  0.00    +0.000 C 
ATOM     21  O   UNL     1       1.948   5.250  19.442  0.00  0.00    +0.000 OA
ATOM     22  C   UNL     1       2.907   5.612  18.532  0.00  0.00    +0.000 A 
ATOM     23  C   UNL     1       3.117   6.899  18.052  0.00  0.00    +0.000 A 
ATOM     24  C   UNL     1       4.175   7.036  17.126  0.00  0.00    +0.000 A 
ATOM     25  C   UNL     1       4.971   5.948  16.710  0.00  0.00    +0.000 A 
ATOM     26  C   UNL     1       4.725   4.679  17.208  0.00  0.00    +0.000 A 
ATOM     27  C   UNL     1       3.686   4.523  18.120  0.00  0.00    +0.000 A 
ENDBRANCH   1  23
TORSDOF 2
ENDMDL
MODEL 3
REMARK VINA RESULT:      -8.3      2.566      7.725
REMARK  Name = 
REMARK  4 active torsions:
REMARK  status: ('A' for Active; 'I' for Inactive)
REMARK    1  A    between atoms: C_1  and  C_2
REMARK    2  A    between atoms: C_2  and  C_3
REMARK    3  A    between atoms: C_7  and  C_8
REMARK    4  A    between atoms: N_10  and  C_11
REMARK                            x       y       z     vdW  Elec       q    Type
REMARK                         _______ _______ _______ _____ _____    ______ ____
ROOT
ATOM      1  C   UNL     1       2.561   7.916  18.106  0.00  0.00    +0.000 C 
ATOM      2  O   UNL     1       3.028   8.555  17.155  0.00  0.00    +0.000 OA
ATOM      3  N   UNL     1       1.727   8.491  19.062  0.00  0.00    +0.000 N 
ATOM      4  H   UNL     1       1.498   7.942  19.888  0.00  0.00    +0.000 HD
ENDROOT
BRANCH   3   5
ATOM      5  C   UNL     1       1.036   9.744  18.892  0.00  0.00    +0.000 A 
ATOM      6  C   UNL     1      -0.021   9.840  17.988  0.00  0.00    +0.000 A 
ATOM      7  C   UNL     1      -1.223  10.407  18.434  0.00  0.00    +0.000 A 
ATOM      8  C   UNL     1      -1.361  10.755  19.788  0.00  0.00    +0.000 A 
ATOM      9  C   UNL     1      -0.233  10.739  20.611  0.00  0.00    +0.000 A 
ATOM     10  C   UNL     1       0.993  10.657  19.947  0.00  0.00    +0.000 A 
ATOM     11  C   UNL     1       1.507  12.140  19.664  0.00  0.00    +0.000 C 
ATOM     12  C   UNL     1       0.580  13.235  20.282  0.00  0.00    +0.000 C 
ATOM     13  N   UNL     1       0.178  12.856  21.619  0.00  0.00    +0.000 N 
ATOM     14  C   UNL     1      -0.200  11.553  21.844  0.00  0.00    +0.000 C 
ATOM     15  O   UNL     1      -0.371  11.068  22.951  0.00  0.00    +0.000 OA
ATOM     16  H   UNL     1       0.370  13.429  22.432  0.00  0.00    +0.000 HD
ENDBRANCH   3   5
BRANCH   1  23
ATOM     17  C   UNL     1       3.037   2.715  21.053  0.00  0.00    +0.000 C 
ATOM     18  C   UNL     1       2.121   3.283  19.959  0.00  0.00    +0.000 C 
ATOM     19  C   UNL     1       1.379   2.105  19.296  0.00  0.00    +0.000 C 
ATOM     20  C   UNL     1       1.141   4.350  20.508  0.00  0.00    +0.000 C 
ATOM     21  O   UNL     1       1.470   5.675  19.987  0.00  0.00    +0.000 OA
ATOM     22  C   UNL     1       2.447   5.479  19.045  0.00  0.00    +0.000 A 
ATOM     23  C   UNL     1       2.985   6.463  18.226  0.00  0.00    +0.000 A 
ATOM     24  C   UNL     1       3.993   6.028  17.336  0.00  0.00    +0.000 A 
ATOM     25  C   UNL     1       4.431   4.688  17.276  0.00  0.00    +0.000 A 
ATOM     26  C   UNL     1       3.864   3.735  18.107  0.00  0.00    +0.000 A 
ATOM     27  C   UNL     1       2.867   4.144  18.988  0.00  0.00    +0.000 A 
ENDBRANCH   1  23
TORSDOF 2
ENDMDL
MODEL 4
REMARK VINA RESULT:      -8.3      5.585      8.429
REMARK  Name = 
REMARK  4 active torsions:
REMARK  status: ('A' for Active; 'I' for Inactive)
REMARK    1  A    between atoms: C_1  and  C_2
REMARK    2  A    between atoms: C_2  and  C_3
REMARK    3  A    between atoms: C_7  and  C_8
REMARK    4  A    between atoms: N_10  and  C_11
REMARK                            x       y       z     vdW  Elec       q    Type
REMARK                         _______ _______ _______ _____ _____    ______ ____
ROOT
ATOM      1  C   UNL     1       7.951   8.865  18.081  0.00  0.00    +0.000 C 
ATOM      2  O   UNL     1       7.337   9.610  17.308  0.00  0.00    +0.000 OA
ATOM      3  N   UNL     1       8.938   9.328  18.948  0.00  0.00    +0.000 N 
ATOM      4  H   UNL     1       9.495   8.640  19.450  0.00  0.00    +0.000 HD
ENDROOT
BRANCH   3   5
ATOM      5  C   UNL     1       9.122  10.712  19.308  0.00  0.00    +0.000 A 
ATOM      6  C   UNL     1       9.481  11.052  20.611  0.00  0.00    +0.000 A 
ATOM      7  C   UNL     1      10.567  11.920  20.792  0.00  0.00    +0.000 A 
ATOM      8  C   UNL     1      11.318  12.327  19.677  0.00  0.00    +0.000 A 
ATOM      9  C   UNL     1      10.839  12.044  18.397  0.00  0.00    +0.000 A 
ATOM     10  C   UNL     1       9.506  11.633  18.331  0.00  0.00    +0.000 A 
ATOM     11  C   UNL     1       8.595  12.926  18.134  0.00  0.00    +0.000 C 
ATOM     12  C   UNL     1       9.426  14.238  17.966  0.00  0.00    +0.000 C 
ATOM     13  N   UNL     1      10.551  14.010  17.086  0.00  0.00    +0.000 N 
ATOM     14  C   UNL     1      11.280  12.854  17.242  0.00  0.00    +0.000 C 
ATOM     15  O   UNL     1      12.118  12.458  16.448  0.00  0.00    +0.000 OA
ATOM     16  H   UNL     1      10.694  14.536  16.232  0.00  0.00    +0.000 HD
ENDBRANCH   3   5
BRANCH   1  23
ATOM     17  C   UNL     1       4.407   4.244  16.647  0.00  0.00    +0.000 C 
ATOM     18  C   UNL     1       5.657   4.904  16.046  0.00  0.00    +0.000 C 
ATOM     19  C   UNL     1       6.266   3.928  15.019  0.00  0.00    +0.000 C 
ATOM     20  C   UNL     1       5.349   6.287  15.419  0.00  0.00    +0.000 C 
ATOM     21  O   UNL     1       5.972   7.359  16.193  0.00  0.00    +0.000 OA
ATOM     22  C   UNL     1       6.766   6.740  17.124  0.00  0.00    +0.000 A 
ATOM     23  C   UNL     1       7.621   7.384  18.009  0.00  0.00    +0.000 A 
ATOM     24  C   UNL     1       8.333   6.539  18.889  0.00  0.00    +0.000 A 
ATOM     25  C   UNL     1       8.192   5.135  18.880  0.00  0.00    +0.000 A 
ATOM     26  C   UNL     1       7.332   4.531  17.977  0.00  0.00    +0.000 A 
ATOM     27  C   UNL     1       6.624   5.347  17.100  0.00  0.00    +0.000 A 
ENDBRANCH   1  23
TORSDOF 2
ENDMDL
MODEL 5
REMARK VINA RESULT:      -8.1      2.132      7.389
REMARK  Name = 
REMARK  4 active torsions:
REMARK  status: ('A' for Active; 'I' for Inactive)
REMARK    1  A    between atoms: C_1  and  C_2
REMARK    2  A    between atoms: C_2  and  C_3
REMARK    3  A    between atoms: C_7  and  C_8
REMARK    4  A    between atoms: N_10  and  C_11
REMARK                            x       y       z     vdW  Elec       q    Type
REMARK                         _______ _______ _______ _____ _____    ______ ____
ROOT
ATOM      1  C   UNL     1       2.447   7.768  18.193  0.00  0.00    +0.000 C 
ATOM      2  O   UNL     1       2.362   8.630  17.310  0.00  0.00    +0.000 OA
ATOM      3  N   UNL     1       1.904   7.937  19.466  0.00  0.00    +0.000 N 
ATOM      4  H   UNL     1       2.136   7.250  20.179  0.00  0.00    +0.000 HD
ENDROOT
BRANCH   3   5
ATOM      5  C   UNL     1       0.912   8.927  19.802  0.00  0.00    +0.000 A 
ATOM      6  C   UNL     1       0.523   9.101  21.129  0.00  0.00    +0.000 A 
ATOM      7  C   UNL     1       0.521  10.401  21.652  0.00  0.00    +0.000 A 
ATOM      8  C   UNL     1       1.008  11.461  20.869  0.00  0.00    +0.000 A 
ATOM      9  C   UNL     1       1.275  11.238  19.517  0.00  0.00    +0.000 A 
ATOM     10  C   UNL     1       0.758  10.052  18.991  0.00  0.00    +0.000 A 
ATOM     11  C   UNL     1      -0.698  10.356  18.415  0.00  0.00    +0.000 C 
ATOM     12  C   UNL     1      -1.084  11.867  18.500  0.00  0.00    +0.000 C 
ATOM     13  N   UNL     1       0.033  12.695  18.101  0.00  0.00    +0.000 N 
ATOM     14  C   UNL     1       1.287  12.368  18.565  0.00  0.00    +0.000 C 
ATOM     15  O   UNL     1       2.322  12.862  18.151  0.00  0.00    +0.000 OA
ATOM     16  H   UNL     1      -0.020  13.354  17.335  0.00  0.00    +0.000 HD
ENDBRANCH   3   5
BRANCH   1  23
ATOM     17  C   UNL     1       6.933   4.843  15.493  0.00  0.00    +0.000 C 
ATOM     18  C   UNL     1       6.640   5.344  16.916  0.00  0.00    +0.000 C 
ATOM     19  C   UNL     1       7.613   4.638  17.881  0.00  0.00    +0.000 C 
ATOM     20  C   UNL     1       6.732   6.887  17.027  0.00  0.00    +0.000 C 
ATOM     21  O   UNL     1       5.414   7.470  17.268  0.00  0.00    +0.000 OA
ATOM     22  C   UNL     1       4.568   6.414  17.484  0.00  0.00    +0.000 A 
ATOM     23  C   UNL     1       3.231   6.514  17.850  0.00  0.00    +0.000 A 
ATOM     24  C   UNL     1       2.550   5.286  18.005  0.00  0.00    +0.000 A 
ATOM     25  C   UNL     1       3.175   4.037  17.802  0.00  0.00    +0.000 A 
ATOM     26  C   UNL     1       4.511   3.980  17.442  0.00  0.00    +0.000 A 
ATOM     27  C   UNL     1       5.200   5.179  17.288  0.00  0.00    +0.000 A 
ENDBRANCH   1  23
TORSDOF 2
ENDMDL
MODEL 6
REMARK VINA RESULT:      -8.1      2.483      3.436
REMARK  Name = 
REMARK  4 active torsions:
REMARK  status: ('A' for Active; 'I' for Inactive)
REMARK    1  A    between atoms: C_1  and  C_2
REMARK    2  A    between atoms: C_2  and  C_3
REMARK    3  A    between atoms: C_7  and  C_8
REMARK    4  A    between atoms: N_10  and  C_11
REMARK                            x       y       z     vdW  Elec       q    Type
REMARK                         _______ _______ _______ _____ _____    ______ ____
ROOT
ATOM      1  C   UNL     1       1.533   7.689  20.412  0.00  0.00    +0.000 C 
ATOM      2  O   UNL     1       1.509   6.658  21.094  0.00  0.00    +0.000 OA
ATOM      3  N   UNL     1       2.236   7.783  19.212  0.00  0.00    +0.000 N 
ATOM      4  H   UNL     1       2.326   8.700  18.781  0.00  0.00    +0.000 HD
ENDROOT
BRANCH   3   5
ATOM      5  C   UNL     1       2.709   6.651  18.456  0.00  0.00    +0.000 A 
ATOM      6  C   UNL     1       3.917   6.731  17.764  0.00  0.00    +0.000 A 
ATOM      7  C   UNL     1       4.853   5.704  17.950  0.00  0.00    +0.000 A 
ATOM      8  C   UNL     1       4.597   4.698  18.896  0.00  0.00    +0.000 A 
ATOM      9  C   UNL     1       3.326   4.614  19.469  0.00  0.00    +0.000 A 
ATOM     10  C   UNL     1       2.331   5.362  18.835  0.00  0.00    +0.000 A 
ATOM     11  C   UNL     1       1.641   4.439  17.733  0.00  0.00    +0.000 C 
ATOM     12  C   UNL     1       2.178   2.972  17.743  0.00  0.00    +0.000 C 
ATOM     13  N   UNL     1       2.309   2.494  19.102  0.00  0.00    +0.000 N 
ATOM     14  C   UNL     1       2.852   3.338  20.043  0.00  0.00    +0.000 C 
ATOM     15  O   UNL     1       2.836   3.128  21.245  0.00  0.00    +0.000 OA
ATOM     16  H   UNL     1       1.827   1.670  19.442  0.00  0.00    +0.000 HD
ENDBRANCH   3   5
BRANCH   1  23
ATOM     17  C   UNL     1      -0.254  13.412  20.237  0.00  0.00    +0.000 C 
ATOM     18  C   UNL     1      -0.890  12.047  19.933  0.00  0.00    +0.000 C 
ATOM     19  C   UNL     1      -2.420  12.236  19.871  0.00  0.00    +0.000 C 
ATOM     20  C   UNL     1      -0.332  11.413  18.635  0.00  0.00    +0.000 C 
ATOM     21  O   UNL     1       0.465  10.226  18.937  0.00  0.00    +0.000 OA
ATOM     22  C   UNL     1       0.295   9.989  20.276  0.00  0.00    +0.000 A 
ATOM     23  C   UNL     1       0.797   8.895  20.970  0.00  0.00    +0.000 A 
ATOM     24  C   UNL     1       0.506   8.867  22.352  0.00  0.00    +0.000 A 
ATOM     25  C   UNL     1      -0.242   9.877  22.995  0.00  0.00    +0.000 A 
ATOM     26  C   UNL     1      -0.729  10.949  22.265  0.00  0.00    +0.000 A 
ATOM     27  C   UNL     1      -0.455  10.992  20.902  0.00  0.00    +0.000 A 
ENDBRANCH   1  23
TORSDOF 2
ENDMDL
MODEL 7
REMARK VINA RESULT:      -8.0      2.330      7.714
REMARK  Name = 
REMARK  4 active torsions:
REMARK  status: ('A' for Active; 'I' for Inactive)
REMARK    1  A    between atoms: C_1  and  C_2
REMARK    2  A    between atoms: C_2  and  C_3
REMARK    3  A    between atoms: C_7  and  C_8
REMARK    4  A    between atoms: N_10  and  C_11
REMARK                            x       y       z     vdW  Elec       q    Type
REMARK                         _______ _______ _______ _____ _____    ______ ____
ROOT
ATOM      1  C   UNL     1       2.189   8.291  18.317  0.00  0.00    +0.000 C 
ATOM      2  O   UNL     1       2.043   9.076  17.372  0.00  0.00    +0.000 OA
ATOM      3  N   UNL     1       1.669   8.535  19.586  0.00  0.00    +0.000 N 
ATOM      4  H   UNL     1       1.949   7.916  20.344  0.00  0.00    +0.000 HD
ENDROOT
BRANCH   3   5
ATOM      5  C   UNL     1       0.639   9.501  19.872  0.00  0.00    +0.000 A 
ATOM      6  C   UNL     1      -0.349   9.210  20.812  0.00  0.00    +0.000 A 
ATOM      7  C   UNL     1      -0.606  10.156  21.814  0.00  0.00    +0.000 A 
ATOM      8  C   UNL     1       0.202  11.301  21.906  0.00  0.00    +0.000 A 
ATOM      9  C   UNL     1       1.095  11.586  20.872  0.00  0.00    +0.000 A 
ATOM     10  C   UNL     1       0.901  10.861  19.694  0.00  0.00    +0.000 A 
ATOM     11  C   UNL     1      -0.089  11.689  18.757  0.00  0.00    +0.000 C 
ATOM     12  C   UNL     1      -0.467  13.083  19.350  0.00  0.00    +0.000 C 
ATOM     13  N   UNL     1       0.704  13.727  19.906  0.00  0.00    +0.000 N 
ATOM     14  C   UNL     1       1.570  12.969  20.659  0.00  0.00    +0.000 C 
ATOM     15  O   UNL     1       2.677  13.341  21.014  0.00  0.00    +0.000 OA
ATOM     16  H   UNL     1       1.032  14.632  19.593  0.00  0.00    +0.000 HD
ENDBRANCH   3   5
BRANCH   1  23
ATOM     17  C   UNL     1       4.198   2.808  19.682  0.00  0.00    +0.000 C 
ATOM     18  C   UNL     1       3.147   3.392  18.726  0.00  0.00    +0.000 C 
ATOM     19  C   UNL     1       2.781   2.304  17.696  0.00  0.00    +0.000 C 
ATOM     20  C   UNL     1       1.900   3.923  19.475  0.00  0.00    +0.000 C 
ATOM     21  O   UNL     1       1.821   5.380  19.384  0.00  0.00    +0.000 OA
ATOM     22  C   UNL     1       2.805   5.757  18.508  0.00  0.00    +0.000 A 
ATOM     23  C   UNL     1       3.024   7.051  18.050  0.00  0.00    +0.000 A 
ATOM     24  C   UNL     1       4.108   7.204  17.158  0.00  0.00    +0.000 A 
ATOM     25  C   UNL     1       4.921   6.124  16.753  0.00  0.00    +0.000 A 
ATOM     26  C   UNL     1       4.666   4.848  17.228  0.00  0.00    +0.000 A 
ATOM     27  C   UNL     1       3.600   4.676  18.105  0.00  0.00    +0.000 A 
ENDBRANCH   1  23
TORSDOF 2
ENDMDL
MODEL 8
REMARK VINA RESULT:      -7.9      2.914      8.176
REMARK  Name = 
REMARK  4 active torsions:
REMARK  status: ('A' for Active; 'I' for Inactive)
REMARK    1  A    between atoms: C_1  and  C_2
REMARK    2  A    between atoms: C_2  and  C_3
REMARK    3  A    between atoms: C_7  and  C_8
REMARK    4  A    between atoms: N_10  and  C_11
REMARK                            x       y       z     vdW  Elec       q    Type
REMARK                         _______ _______ _______ _____ _____    ______ ____
ROOT
ATOM      1  C   UNL     1       1.614   8.437  19.811  0.00  0.00    +0.000 C 
ATOM      2  O   UNL     1       1.500   8.474  21.042  0.00  0.00    +0.000 OA
ATOM      3  N   UNL     1       1.092   9.424  18.977  0.00  0.00    +0.000 N 
ATOM      4  H   UNL     1       1.101   9.255  17.974  0.00  0.00    +0.000 HD
ENDROOT
BRANCH   3   5
ATOM      5  C   UNL     1       0.687  10.734  19.421  0.00  0.00    +0.000 A 
ATOM      6  C   UNL     1       1.506  11.836  19.181  0.00  0.00    +0.000 A 
ATOM      7  C   UNL     1       0.931  12.973  18.598  0.00  0.00    +0.000 A 
ATOM      8  C   UNL     1      -0.409  12.931  18.178  0.00  0.00    +0.000 A 
ATOM      9  C   UNL     1      -1.202  11.843  18.549  0.00  0.00    +0.000 A 
ATOM     10  C   UNL     1      -0.671  11.028  19.552  0.00  0.00    +0.000 A 
ATOM     11  C   UNL     1      -1.176  11.579  20.960  0.00  0.00    +0.000 C 
ATOM     12  C   UNL     1      -2.177  12.770  20.826  0.00  0.00    +0.000 C 
ATOM     13  N   UNL     1      -3.133  12.508  19.772  0.00  0.00    +0.000 N 
ATOM     14  C   UNL     1      -2.673  11.973  18.591  0.00  0.00    +0.000 C 
ATOM     15  O   UNL     1      -3.393  11.530  17.711  0.00  0.00    +0.000 OA
ATOM     16  H   UNL     1      -4.132  12.486  19.932  0.00  0.00    +0.000 HD
ENDBRANCH   3   5
BRANCH   1  23
ATOM     17  C   UNL     1       3.680   2.814  20.088  0.00  0.00    +0.000 C 
ATOM     18  C   UNL     1       2.452   3.510  19.482  0.00  0.00    +0.000 C 
ATOM     19  C   UNL     1       1.804   2.542  18.471  0.00  0.00    +0.000 C 
ATOM     20  C   UNL     1       1.446   3.976  20.564  0.00  0.00    +0.000 C 
ATOM     21  O   UNL     1       1.403   5.435  20.641  0.00  0.00    +0.000 OA
ATOM     22  C   UNL     1       2.159   5.890  19.592  0.00  0.00    +0.000 A 
ATOM     23  C   UNL     1       2.310   7.222  19.226  0.00  0.00    +0.000 A 
ATOM     24  C   UNL     1       3.150   7.454  18.114  0.00  0.00    +0.000 A 
ATOM     25  C   UNL     1       3.798   6.413  17.416  0.00  0.00    +0.000 A 
ATOM     26  C   UNL     1       3.616   5.097  17.810  0.00  0.00    +0.000 A 
ATOM     27  C   UNL     1       2.790   4.847  18.901  0.00  0.00    +0.000 A 
ENDBRANCH   1  23
TORSDOF 2
ENDMDL
MODEL 9
REMARK VINA RESULT:      -7.9      1.063      1.160
REMARK  Name = 
REMARK  4 active torsions:
REMARK  status: ('A' for Active; 'I' for Inactive)
REMARK    1  A    between atoms: C_1  and  C_2
REMARK    2  A    between atoms: C_2  and  C_3
REMARK    3  A    between atoms: C_7  and  C_8
REMARK    4  A    between atoms: N_10  and  C_11
REMARK                            x       y       z     vdW  Elec       q    Type
REMARK                         _______ _______ _______ _____ _____    ______ ____
ROOT
ATOM      1  C   UNL     1       2.240   7.365  19.222  0.00  0.00    +0.000 C 
ATOM      2  O   UNL     1       2.136   7.489  17.996  0.00  0.00    +0.000 OA
ATOM      3  N   UNL     1       2.903   6.293  19.817  0.00  0.00    +0.000 N 
ATOM      4  H   UNL     1       2.826   6.184  20.826  0.00  0.00    +0.000 HD
ENDROOT
BRANCH   3   5
ATOM      5  C   UNL     1       3.821   5.421  19.129  0.00  0.00    +0.000 A 
ATOM      6  C   UNL     1       3.334   4.427  18.281  0.00  0.00    +0.000 A 
ATOM      7  C   UNL     1       3.876   4.335  16.991  0.00  0.00    +0.000 A 
ATOM      8  C   UNL     1       4.800   5.301  16.560  0.00  0.00    +0.000 A 
ATOM      9  C   UNL     1       5.327   6.198  17.491  0.00  0.00    +0.000 A 
ATOM     10  C   UNL     1       5.108   5.871  18.831  0.00  0.00    +0.000 A 
ATOM     11  C   UNL     1       6.336   4.986  19.334  0.00  0.00    +0.000 C 
ATOM     12  C   UNL     1       7.456   4.828  18.257  0.00  0.00    +0.000 C 
ATOM     13  N   UNL     1       7.703   6.093  17.599  0.00  0.00    +0.000 N 
ATOM     14  C   UNL     1       6.622   6.862  17.234  0.00  0.00    +0.000 C 
ATOM     15  O   UNL     1       6.699   8.019  16.855  0.00  0.00    +0.000 OA
ATOM     16  H   UNL     1       8.611   6.540  17.595  0.00  0.00    +0.000 HD
ENDBRANCH   3   5
BRANCH   1  23
ATOM     17  C   UNL     1       1.035  13.031  20.772  0.00  0.00    +0.000 C 
ATOM     18  C   UNL     1       0.318  11.928  19.980  0.00  0.00    +0.000 C 
ATOM     19  C   UNL     1      -1.166  12.324  19.842  0.00  0.00    +0.000 C 
ATOM     20  C   UNL     1       0.978  11.669  18.602  0.00  0.00    +0.000 C 
ATOM     21  O   UNL     1       1.614  10.353  18.570  0.00  0.00    +0.000 OA
ATOM     22  C   UNL     1       1.252   9.730  19.735  0.00  0.00    +0.000 A 
ATOM     23  C   UNL     1       1.554   8.417  20.075  0.00  0.00    +0.000 A 
ATOM     24  C   UNL     1       1.085   7.993  21.338  0.00  0.00    +0.000 A 
ATOM     25  C   UNL     1       0.358   8.837  22.205  0.00  0.00    +0.000 A 
ATOM     26  C   UNL     1       0.072  10.138  21.826  0.00  0.00    +0.000 A 
ATOM     27  C   UNL     1       0.523  10.574  20.584  0.00  0.00    +0.000 A 
ENDBRANCH   1  23
TORSDOF 2
ENDMDL
