MODEL 1
REMARK VINA RESULT:      -7.9      0.000      0.000
REMARK  Name = 
REMARK  7 active torsions:
REMARK  status: ('A' for Active; 'I' for Inactive)
REMARK    1  A    between atoms: C_2  and  C_3
REMARK    2  A    between atoms: C_2  and  O_19
REMARK    3  A    between atoms: C_4  and  C_5
REMARK    4  A    between atoms: CA_6  and  C_7
REMARK    5  A    between atoms: C_7  and  OXT_9
REMARK    6  A    between atoms: O_19  and  C_20
REMARK    7  A    between atoms: C_20  and  C_21
REMARK                            x       y       z     vdW  Elec       q    Type
REMARK                         _______ _______ _______ _____ _____    ______ ____
ROOT
ATOM      1  C   UNL     1       5.898   4.767  18.072  0.00  0.00    +0.000 A 
ATOM      2  CA  UNL     1       7.157   5.311  18.312  0.00  0.00    +0.000 A 
ATOM      3  N   UNL     1       7.788   5.348  17.081  0.00  0.00    +0.000 N 
ATOM      4  C   UNL     1       6.999   4.836  16.085  0.00  0.00    +0.000 A 
ATOM      5  C   UNL     1       7.291   4.663  14.724  0.00  0.00    +0.000 A 
ATOM      6  C   UNL     1       6.295   4.118  13.908  0.00  0.00    +0.000 A 
ATOM      7 CL   UNL     1       6.620   3.877  12.234  0.00  0.00    +0.000 Cl
ATOM      8  C   UNL     1       5.053   3.772  14.422  0.00  0.00    +0.000 A 
ATOM      9  C   UNL     1       4.799   3.955  15.782  0.00  0.00    +0.000 A 
ATOM     10 CL   UNL     1       3.265   3.562  16.432  0.00  0.00    +0.000 Cl
ATOM     11  C   UNL     1       5.776   4.483  16.663  0.00  0.00    +0.000 A 
ATOM     12  H   UNL     1       8.730   5.698  16.959  0.00  0.00    +0.000 HD
ENDROOT
BRANCH   1  14
ATOM     13  C   UNL     1       4.510   3.231  19.395  0.00  0.00    +0.000 C 
ATOM     14  C   UNL     1       4.918   4.469  19.069  0.00  0.00    +0.000 C 
BRANCH  13  16
ATOM     15  O   UNL     1       3.582   2.389  21.427  0.00  0.00    +0.000 OA
ATOM     16  C   UNL     1       3.454   3.062  20.418  0.00  0.00    +0.000 C 
BRANCH  16  17
ATOM     17  O   UNL     1       2.381   3.803  20.061  0.00  0.00    +0.000 OA
BRANCH  17  18
ATOM     18  C   UNL     1       2.019   4.862  20.960  0.00  0.00    +0.000 C 
BRANCH  18  19
ATOM     19  C   UNL     1       1.947   6.158  20.192  0.00  0.00    +0.000 A 
ATOM     20  C   UNL     1       2.359   6.221  18.853  0.00  0.00    +0.000 A 
ATOM     21  C   UNL     1       2.324   7.431  18.156  0.00  0.00    +0.000 A 
ATOM     22  C   UNL     1       1.881   8.590  18.790  0.00  0.00    +0.000 A 
ATOM     23  C   UNL     1       1.465   8.539  20.119  0.00  0.00    +0.000 A 
ATOM     24  C   UNL     1       1.498   7.330  20.817  0.00  0.00    +0.000 A 
ENDBRANCH  18  19
ENDBRANCH  17  18
ENDBRANCH  16  17
ENDBRANCH  13  16
ENDBRANCH   1  14
BRANCH   2  25
ATOM     25  C   UNL     1       7.901   5.802  19.453  0.00  0.00    +0.000 C 
ATOM     26  O   UNL     1       7.950   5.210  20.523  0.00  0.00    +0.000 OA
BRANCH  25  27
ATOM     27  OXT UNL     1       8.546   6.972  19.262  0.00  0.00    +0.000 OA
ATOM     28  HXT UNL     1       8.689   7.210  18.333  0.00  0.00    +0.000 HD
ENDBRANCH  25  27
ENDBRANCH   2  25
TORSDOF 7
ENDMDL
MODEL 2
REMARK VINA RESULT:      -7.8      3.241      5.227
REMARK  Name = 
REMARK  7 active torsions:
REMARK  status: ('A' for Active; 'I' for Inactive)
REMARK    1  A    between atoms: C_2  and  C_3
REMARK    2  A    between atoms: C_2  and  O_19
REMARK    3  A    between atoms: C_4  and  C_5
REMARK    4  A    between atoms: CA_6  and  C_7
REMARK    5  A    between atoms: C_7  and  OXT_9
REMARK    6  A    between atoms: O_19  and  C_20
REMARK    7  A    between atoms: C_20  and  C_21
REMARK                            x       y       z     vdW  Elec       q    Type
REMARK                         _______ _______ _______ _____ _____    ______ ____
ROOT
ATOM      1  C   UNL     1       2.395   5.566  19.709  0.00  0.00    +0.000 A 
ATOM      2  CA  UNL     1       2.547   4.291  20.248  0.00  0.00    +0.000 A 
ATOM      3  N   UNL     1       3.577   3.705  19.534  0.00  0.00    +0.000 N 
ATOM      4  C   UNL     1       4.065   4.537  18.561  0.00  0.00    +0.000 A 
ATOM      5  C   UNL     1       5.070   4.298  17.613  0.00  0.00    +0.000 A 
ATOM      6  C   UNL     1       5.389   5.331  16.726  0.00  0.00    +0.000 A 
ATOM      7 CL   UNL     1       6.608   5.071  15.537  0.00  0.00    +0.000 Cl
ATOM      8  C   UNL     1       4.744   6.558  16.790  0.00  0.00    +0.000 A 
ATOM      9  C   UNL     1       3.746   6.759  17.745  0.00  0.00    +0.000 A 
ATOM     10 CL   UNL     1       2.957   8.275  17.859  0.00  0.00    +0.000 Cl
ATOM     11  C   UNL     1       3.365   5.743  18.656  0.00  0.00    +0.000 A 
ATOM     12  H   UNL     1       3.902   2.763  19.713  0.00  0.00    +0.000 HD
ENDROOT
BRANCH   1  14
ATOM     13  C   UNL     1       1.586   7.534  20.936  0.00  0.00    +0.000 C 
ATOM     14  C   UNL     1       1.393   6.512  20.086  0.00  0.00    +0.000 C 
BRANCH  13  16
ATOM     15  O   UNL     1      -0.628   8.018  21.685  0.00  0.00    +0.000 OA
ATOM     16  C   UNL     1       0.449   8.418  21.277  0.00  0.00    +0.000 C 
BRANCH  16  17
ATOM     17  O   UNL     1       0.830   9.703  21.103  0.00  0.00    +0.000 OA
BRANCH  17  18
ATOM     18  C   UNL     1       0.970  10.140  19.742  0.00  0.00    +0.000 C 
BRANCH  18  19
ATOM     19  C   UNL     1      -0.379  10.568  19.221  0.00  0.00    +0.000 A 
ATOM     20  C   UNL     1      -0.887  10.036  18.028  0.00  0.00    +0.000 A 
ATOM     21  C   UNL     1      -2.121  10.462  17.530  0.00  0.00    +0.000 A 
ATOM     22  C   UNL     1      -2.857  11.425  18.218  0.00  0.00    +0.000 A 
ATOM     23  C   UNL     1      -2.364  11.957  19.407  0.00  0.00    +0.000 A 
ATOM     24  C   UNL     1      -1.131  11.532  19.907  0.00  0.00    +0.000 A 
ENDBRANCH  18  19
ENDBRANCH  17  18
ENDBRANCH  16  17
ENDBRANCH  13  16
ENDBRANCH   1  14
BRANCH   2  25
ATOM     25  C   UNL     1       1.929   3.498  21.290  0.00  0.00    +0.000 C 
ATOM     26  O   UNL     1       2.470   3.268  22.363  0.00  0.00    +0.000 OA
BRANCH  25  27
ATOM     27  OXT UNL     1       0.701   3.018  21.000  0.00  0.00    +0.000 OA
ATOM     28  HXT UNL     1       0.523   2.906  20.053  0.00  0.00    +0.000 HD
ENDBRANCH  25  27
ENDBRANCH   2  25
TORSDOF 7
ENDMDL
MODEL 3
REMARK VINA RESULT:      -7.6      2.952      6.549
REMARK  Name = 
REMARK  7 active torsions:
REMARK  status: ('A' for Active; 'I' for Inactive)
REMARK    1  A    between atoms: C_2  and  C_3
REMARK    2  A    between atoms: C_2  and  O_19
REMARK    3  A    between atoms: C_4  and  C_5
REMARK    4  A    between atoms: CA_6  and  C_7
REMARK    5  A    between atoms: C_7  and  OXT_9
REMARK    6  A    between atoms: O_19  and  C_20
REMARK    7  A    between atoms: C_20  and  C_21
REMARK                            x       y       z     vdW  Elec       q    Type
REMARK                         _______ _______ _______ _____ _____    ______ ____
ROOT
ATOM      1  C   UNL     1       2.627   5.531  19.548  0.00  0.00    +0.000 A 
ATOM      2  CA  UNL     1       1.968   5.050  20.676  0.00  0.00    +0.000 A 
ATOM      3  N   UNL     1       1.256   6.125  21.178  0.00  0.00    +0.000 N 
ATOM      4  C   UNL     1       1.452   7.261  20.437  0.00  0.00    +0.000 A 
ATOM      5  C   UNL     1       0.944   8.552  20.643  0.00  0.00    +0.000 A 
ATOM      6  C   UNL     1       1.294   9.544  19.722  0.00  0.00    +0.000 A 
ATOM      7 CL   UNL     1       0.702  11.146  19.949  0.00  0.00    +0.000 Cl
ATOM      8  C   UNL     1       2.104   9.261  18.631  0.00  0.00    +0.000 A 
ATOM      9  C   UNL     1       2.593   7.965  18.460  0.00  0.00    +0.000 A 
ATOM     10 CL   UNL     1       3.570   7.586  17.106  0.00  0.00    +0.000 Cl
ATOM     11  C   UNL     1       2.291   6.923  19.371  0.00  0.00    +0.000 A 
ATOM     12  H   UNL     1       0.682   6.062  22.010  0.00  0.00    +0.000 HD
ENDROOT
BRANCH   1  14
ATOM     13  C   UNL     1       3.230   4.181  17.585  0.00  0.00    +0.000 C 
ATOM     14  C   UNL     1       3.544   4.788  18.743  0.00  0.00    +0.000 C 
BRANCH  13  16
ATOM     15  O   UNL     1       4.491   2.222  17.067  0.00  0.00    +0.000 OA
ATOM     16  C   UNL     1       4.267   3.405  16.870  0.00  0.00    +0.000 C 
BRANCH  16  17
ATOM     17  O   UNL     1       4.863   4.208  15.961  0.00  0.00    +0.000 OA
BRANCH  17  18
ATOM     18  C   UNL     1       6.293   4.114  15.878  0.00  0.00    +0.000 C 
BRANCH  18  19
ATOM     19  C   UNL     1       6.908   5.099  16.841  0.00  0.00    +0.000 A 
ATOM     20  C   UNL     1       7.448   4.666  18.060  0.00  0.00    +0.000 A 
ATOM     21  C   UNL     1       7.985   5.586  18.964  0.00  0.00    +0.000 A 
ATOM     22  C   UNL     1       7.984   6.946  18.661  0.00  0.00    +0.000 A 
ATOM     23  C   UNL     1       7.454   7.387  17.450  0.00  0.00    +0.000 A 
ATOM     24  C   UNL     1       6.918   6.469  16.544  0.00  0.00    +0.000 A 
ENDBRANCH  18  19
ENDBRANCH  17  18
ENDBRANCH  16  17
ENDBRANCH  13  16
ENDBRANCH   1  14
BRANCH   2  25
ATOM     25  C   UNL     1       1.864   3.795  21.391  0.00  0.00    +0.000 C 
ATOM     26  O   UNL     1       2.663   3.449  22.251  0.00  0.00    +0.000 OA
BRANCH  25  27
ATOM     27  OXT UNL     1       0.817   3.018  21.045  0.00  0.00    +0.000 OA
ATOM     28  HXT UNL     1       0.345   3.304  20.247  0.00  0.00    +0.000 HD
ENDBRANCH  25  27
ENDBRANCH   2  25
TORSDOF 7
ENDMDL
MODEL 4
REMARK VINA RESULT:      -7.6      2.761      7.152
REMARK  Name = 
REMARK  7 active torsions:
REMARK  status: ('A' for Active; 'I' for Inactive)
REMARK    1  A    between atoms: C_2  and  C_3
REMARK    2  A    between atoms: C_2  and  O_19
REMARK    3  A    between atoms: C_4  and  C_5
REMARK    4  A    between atoms: CA_6  and  C_7
REMARK    5  A    between atoms: C_7  and  OXT_9
REMARK    6  A    between atoms: O_19  and  C_20
REMARK    7  A    between atoms: C_20  and  C_21
REMARK                            x       y       z     vdW  Elec       q    Type
REMARK                         _______ _______ _______ _____ _____    ______ ____
ROOT
ATOM      1  C   UNL     1       3.285   5.261  19.441  0.00  0.00    +0.000 A 
ATOM      2  CA  UNL     1       2.849   4.422  20.464  0.00  0.00    +0.000 A 
ATOM      3  N   UNL     1       1.902   5.148  21.164  0.00  0.00    +0.000 N 
ATOM      4  C   UNL     1       1.736   6.407  20.648  0.00  0.00    +0.000 A 
ATOM      5  C   UNL     1       0.909   7.446  21.097  0.00  0.00    +0.000 A 
ATOM      6  C   UNL     1       0.920   8.645  20.377  0.00  0.00    +0.000 A 
ATOM      7 CL   UNL     1      -0.072   9.951  20.905  0.00  0.00    +0.000 Cl
ATOM      8  C   UNL     1       1.711   8.798  19.246  0.00  0.00    +0.000 A 
ATOM      9  C   UNL     1       2.524   7.742  18.831  0.00  0.00    +0.000 A 
ATOM     10 CL   UNL     1       3.485   7.900  17.423  0.00  0.00    +0.000 Cl
ATOM     11  C   UNL     1       2.572   6.512  19.532  0.00  0.00    +0.000 A 
ATOM     12  H   UNL     1       1.417   4.780  21.973  0.00  0.00    +0.000 HD
ENDROOT
BRANCH   1  14
ATOM     13  C   UNL     1       5.636   5.001  18.778  0.00  0.00    +0.000 C 
ATOM     14  C   UNL     1       4.320   4.960  18.505  0.00  0.00    +0.000 C 
BRANCH  13  16
ATOM     15  O   UNL     1       7.743   4.305  17.899  0.00  0.00    +0.000 OA
ATOM     16  C   UNL     1       6.608   4.707  17.702  0.00  0.00    +0.000 C 
BRANCH  16  17
ATOM     17  O   UNL     1       6.012   4.916  16.507  0.00  0.00    +0.000 OA
BRANCH  17  18
ATOM     18  C   UNL     1       5.835   3.756  15.680  0.00  0.00    +0.000 C 
BRANCH  18  19
ATOM     19  C   UNL     1       6.400   4.037  14.310  0.00  0.00    +0.000 A 
ATOM     20  C   UNL     1       7.366   5.036  14.125  0.00  0.00    +0.000 A 
ATOM     21  C   UNL     1       7.860   5.317  12.849  0.00  0.00    +0.000 A 
ATOM     22  C   UNL     1       7.393   4.605  11.746  0.00  0.00    +0.000 A 
ATOM     23  C   UNL     1       6.437   3.606  11.919  0.00  0.00    +0.000 A 
ATOM     24  C   UNL     1       5.942   3.323  13.194  0.00  0.00    +0.000 A 
ENDBRANCH  18  19
ENDBRANCH  17  18
ENDBRANCH  16  17
ENDBRANCH  13  16
ENDBRANCH   1  14
BRANCH   2  25
ATOM     25  C   UNL     1       3.134   3.081  20.931  0.00  0.00    +0.000 C 
ATOM     26  O   UNL     1       3.847   2.299  20.318  0.00  0.00    +0.000 OA
BRANCH  25  27
ATOM     27  OXT UNL     1       2.553   2.741  22.101  0.00  0.00    +0.000 OA
ATOM     28  HXT UNL     1       1.589   2.643  22.062  0.00  0.00    +0.000 HD
ENDBRANCH  25  27
ENDBRANCH   2  25
TORSDOF 7
ENDMDL
MODEL 5
REMARK VINA RESULT:      -7.6      6.178      9.607
REMARK  Name = 
REMARK  7 active torsions:
REMARK  status: ('A' for Active; 'I' for Inactive)
REMARK    1  A    between atoms: C_2  and  C_3
REMARK    2  A    between atoms: C_2  and  O_19
REMARK    3  A    between atoms: C_4  and  C_5
REMARK    4  A    between atoms: CA_6  and  C_7
REMARK    5  A    between atoms: C_7  and  OXT_9
REMARK    6  A    between atoms: O_19  and  C_20
REMARK    7  A    between atoms: C_20  and  C_21
REMARK                            x       y       z     vdW  Elec       q    Type
REMARK                         _______ _______ _______ _____ _____    ______ ____
ROOT
ATOM      1  C   UNL     1      -1.304  11.141  19.121  0.00  0.00    +0.000 A 
ATOM      2  CA  UNL     1      -1.270  11.845  20.322  0.00  0.00    +0.000 A 
ATOM      3  N   UNL     1      -2.534  12.387  20.472  0.00  0.00    +0.000 N 
ATOM      4  C   UNL     1      -3.353  12.079  19.419  0.00  0.00    +0.000 A 
ATOM      5  C   UNL     1      -4.679  12.470  19.182  0.00  0.00    +0.000 A 
ATOM      6  C   UNL     1      -5.298  12.004  18.019  0.00  0.00    +0.000 A 
ATOM      7 CL   UNL     1      -6.922  12.474  17.687  0.00  0.00    +0.000 Cl
ATOM      8  C   UNL     1      -4.632  11.169  17.133  0.00  0.00    +0.000 A 
ATOM      9  C   UNL     1      -3.312  10.802  17.400  0.00  0.00    +0.000 A 
ATOM     10 CL   UNL     1      -2.480   9.751  16.335  0.00  0.00    +0.000 Cl
ATOM     11  C   UNL     1      -2.624  11.261  18.550  0.00  0.00    +0.000 A 
ATOM     12  H   UNL     1      -2.793  12.960  21.266  0.00  0.00    +0.000 HD
ENDROOT
BRANCH   1  14
ATOM     13  C   UNL     1       0.592   9.579  19.140  0.00  0.00    +0.000 C 
ATOM     14  C   UNL     1      -0.194  10.473  18.518  0.00  0.00    +0.000 C 
BRANCH  13  16
ATOM     15  O   UNL     1       2.168   9.422  17.355  0.00  0.00    +0.000 OA
ATOM     16  C   UNL     1       1.739   8.992  18.412  0.00  0.00    +0.000 C 
BRANCH  16  17
ATOM     17  O   UNL     1       2.231   7.960  19.134  0.00  0.00    +0.000 OA
BRANCH  17  18
ATOM     18  C   UNL     1       2.803   6.880  18.380  0.00  0.00    +0.000 C 
BRANCH  18  19
ATOM     19  C   UNL     1       2.200   5.579  18.849  0.00  0.00    +0.000 A 
ATOM     20  C   UNL     1       1.906   4.557  17.936  0.00  0.00    +0.000 A 
ATOM     21  C   UNL     1       1.315   3.368  18.369  0.00  0.00    +0.000 A 
ATOM     22  C   UNL     1       1.010   3.190  19.718  0.00  0.00    +0.000 A 
ATOM     23  C   UNL     1       1.302   4.197  20.634  0.00  0.00    +0.000 A 
ATOM     24  C   UNL     1       1.894   5.387  20.203  0.00  0.00    +0.000 A 
ENDBRANCH  18  19
ENDBRANCH  17  18
ENDBRANCH  16  17
ENDBRANCH  13  16
ENDBRANCH   1  14
BRANCH   2  25
ATOM     25  C   UNL     1      -0.301  12.125  21.362  0.00  0.00    +0.000 C 
ATOM     26  O   UNL     1      -0.095  11.369  22.301  0.00  0.00    +0.000 OA
BRANCH  25  27
ATOM     27  OXT UNL     1       0.369  13.289  21.230  0.00  0.00    +0.000 OA
ATOM     28  HXT UNL     1       0.807  13.410  20.373  0.00  0.00    +0.000 HD
ENDBRANCH  25  27
ENDBRANCH   2  25
TORSDOF 7
ENDMDL
MODEL 6
REMARK VINA RESULT:      -7.6      3.228      7.618
REMARK  Name = 
REMARK  7 active torsions:
REMARK  status: ('A' for Active; 'I' for Inactive)
REMARK    1  A    between atoms: C_2  and  C_3
REMARK    2  A    between atoms: C_2  and  O_19
REMARK    3  A    between atoms: C_4  and  C_5
REMARK    4  A    between atoms: CA_6  and  C_7
REMARK    5  A    between atoms: C_7  and  OXT_9
REMARK    6  A    between atoms: O_19  and  C_20
REMARK    7  A    between atoms: C_20  and  C_21
REMARK                            x       y       z     vdW  Elec       q    Type
REMARK                         _______ _______ _______ _____ _____    ______ ____
ROOT
ATOM      1  C   UNL     1       2.736   6.715  18.882  0.00  0.00    +0.000 A 
ATOM      2  CA  UNL     1       2.720   5.625  19.748  0.00  0.00    +0.000 A 
ATOM      3  N   UNL     1       1.974   6.028  20.842  0.00  0.00    +0.000 N 
ATOM      4  C   UNL     1       1.540   7.321  20.718  0.00  0.00    +0.000 A 
ATOM      5  C   UNL     1       0.800   8.098  21.620  0.00  0.00    +0.000 A 
ATOM      6  C   UNL     1       0.475   9.404  21.243  0.00  0.00    +0.000 A 
ATOM      7 CL   UNL     1      -0.420  10.395  22.331  0.00  0.00    +0.000 Cl
ATOM      8  C   UNL     1       0.857   9.912  20.009  0.00  0.00    +0.000 A 
ATOM      9  C   UNL     1       1.595   9.111  19.137  0.00  0.00    +0.000 A 
ATOM     10 CL   UNL     1       2.052   9.708  17.599  0.00  0.00    +0.000 Cl
ATOM     11  C   UNL     1       1.973   7.788  19.473  0.00  0.00    +0.000 A 
ATOM     12  H   UNL     1       1.802   5.427  21.639  0.00  0.00    +0.000 HD
ENDROOT
BRANCH   1  14
ATOM     13  C   UNL     1       4.762   6.521  17.507  0.00  0.00    +0.000 C 
ATOM     14  C   UNL     1       3.452   6.785  17.648  0.00  0.00    +0.000 C 
BRANCH  13  16
ATOM     15  O   UNL     1       4.817   7.111  15.195  0.00  0.00    +0.000 OA
ATOM     16  C   UNL     1       5.393   6.674  16.177  0.00  0.00    +0.000 C 
BRANCH  16  17
ATOM     17  O   UNL     1       6.689   6.299  16.265  0.00  0.00    +0.000 OA
BRANCH  17  18
ATOM     18  C   UNL     1       6.955   4.902  16.064  0.00  0.00    +0.000 C 
BRANCH  18  19
ATOM     19  C   UNL     1       6.918   4.601  14.587  0.00  0.00    +0.000 A 
ATOM     20  C   UNL     1       7.795   5.244  13.703  0.00  0.00    +0.000 A 
ATOM     21  C   UNL     1       7.733   4.989  12.331  0.00  0.00    +0.000 A 
ATOM     22  C   UNL     1       6.793   4.090  11.829  0.00  0.00    +0.000 A 
ATOM     23  C   UNL     1       5.920   3.441  12.699  0.00  0.00    +0.000 A 
ATOM     24  C   UNL     1       5.981   3.694  14.071  0.00  0.00    +0.000 A 
ENDBRANCH  18  19
ENDBRANCH  17  18
ENDBRANCH  16  17
ENDBRANCH  13  16
ENDBRANCH   1  14
BRANCH   2  25
ATOM     25  C   UNL     1       3.260   4.281  19.774  0.00  0.00    +0.000 C 
ATOM     26  O   UNL     1       2.557   3.279  19.771  0.00  0.00    +0.000 OA
BRANCH  25  27
ATOM     27  OXT UNL     1       4.606   4.199  19.803  0.00  0.00    +0.000 OA
ATOM     28  HXT UNL     1       5.037   4.818  20.413  0.00  0.00    +0.000 HD
ENDBRANCH  25  27
ENDBRANCH   2  25
TORSDOF 7
ENDMDL
MODEL 7
REMARK VINA RESULT:      -7.6      3.224      7.655
REMARK  Name = 
REMARK  7 active torsions:
REMARK  status: ('A' for Active; 'I' for Inactive)
REMARK    1  A    between atoms: C_2  and  C_3
REMARK    2  A    between atoms: C_2  and  O_19
REMARK    3  A    between atoms: C_4  and  C_5
REMARK    4  A    between atoms: CA_6  and  C_7
REMARK    5  A    between atoms: C_7  and  OXT_9
REMARK    6  A    between atoms: O_19  and  C_20
REMARK    7  A    between atoms: C_20  and  C_21
REMARK                            x       y       z     vdW  Elec       q    Type
REMARK                         _______ _______ _______ _____ _____    ______ ____
ROOT
ATOM      1  C   UNL     1       2.738   6.746  18.880  0.00  0.00    +0.000 A 
ATOM      2  CA  UNL     1       2.693   5.616  19.691  0.00  0.00    +0.000 A 
ATOM      3  N   UNL     1       1.930   5.974  20.789  0.00  0.00    +0.000 N 
ATOM      4  C   UNL     1       1.513   7.277  20.720  0.00  0.00    +0.000 A 
ATOM      5  C   UNL     1       0.764   8.019  21.645  0.00  0.00    +0.000 A 
ATOM      6  C   UNL     1       0.461   9.345  21.325  0.00  0.00    +0.000 A 
ATOM      7 CL   UNL     1      -0.444  10.293  22.443  0.00  0.00    +0.000 Cl
ATOM      8  C   UNL     1       0.873   9.908  20.125  0.00  0.00    +0.000 A 
ATOM      9  C   UNL     1       1.619   9.141  19.229  0.00  0.00    +0.000 A 
ATOM     10 CL   UNL     1       2.114   9.807  17.731  0.00  0.00    +0.000 Cl
ATOM     11  C   UNL     1       1.976   7.799  19.508  0.00  0.00    +0.000 A 
ATOM     12  H   UNL     1       1.735   5.338  21.552  0.00  0.00    +0.000 HD
ENDROOT
BRANCH   1  14
ATOM     13  C   UNL     1       4.749   6.459  17.499  0.00  0.00    +0.000 C 
ATOM     14  C   UNL     1       3.479   6.867  17.665  0.00  0.00    +0.000 C 
BRANCH  13  16
ATOM     15  O   UNL     1       4.862   7.147  15.216  0.00  0.00    +0.000 OA
ATOM     16  C   UNL     1       5.418   6.684  16.198  0.00  0.00    +0.000 C 
BRANCH  16  17
ATOM     17  O   UNL     1       6.719   6.338  16.312  0.00  0.00    +0.000 OA
BRANCH  17  18
ATOM     18  C   UNL     1       7.024   4.952  16.093  0.00  0.00    +0.000 C 
BRANCH  18  19
ATOM     19  C   UNL     1       6.906   4.648  14.621  0.00  0.00    +0.000 A 
ATOM     20  C   UNL     1       5.973   3.712  14.156  0.00  0.00    +0.000 A 
ATOM     21  C   UNL     1       5.891   3.407  12.795  0.00  0.00    +0.000 A 
ATOM     22  C   UNL     1       6.743   4.032  11.886  0.00  0.00    +0.000 A 
ATOM     23  C   UNL     1       7.672   4.968  12.337  0.00  0.00    +0.000 A 
ATOM     24  C   UNL     1       7.754   5.275  13.697  0.00  0.00    +0.000 A 
ENDBRANCH  18  19
ENDBRANCH  17  18
ENDBRANCH  16  17
ENDBRANCH  13  16
ENDBRANCH   1  14
BRANCH   2  25
ATOM     25  C   UNL     1       3.216   4.265  19.662  0.00  0.00    +0.000 C 
ATOM     26  O   UNL     1       4.384   3.997  19.910  0.00  0.00    +0.000 OA
BRANCH  25  27
ATOM     27  OXT UNL     1       2.324   3.307  19.335  0.00  0.00    +0.000 OA
ATOM     28  HXT UNL     1       2.580   2.754  18.581  0.00  0.00    +0.000 HD
ENDBRANCH  25  27
ENDBRANCH   2  25
TORSDOF 7
ENDMDL
MODEL 8
REMARK VINA RESULT:      -7.6      3.234      5.168
REMARK  Name = 
REMARK  7 active torsions:
REMARK  status: ('A' for Active; 'I' for Inactive)
REMARK    1  A    between atoms: C_2  and  C_3
REMARK    2  A    between atoms: C_2  and  O_19
REMARK    3  A    between atoms: C_4  and  C_5
REMARK    4  A    between atoms: CA_6  and  C_7
REMARK    5  A    between atoms: C_7  and  OXT_9
REMARK    6  A    between atoms: O_19  and  C_20
REMARK    7  A    between atoms: C_20  and  C_21
REMARK                            x       y       z     vdW  Elec       q    Type
REMARK                         _______ _______ _______ _____ _____    ______ ____
ROOT
ATOM      1  C   UNL     1       2.619   5.471  19.322  0.00  0.00    +0.000 A 
ATOM      2  CA  UNL     1       2.485   4.200  19.874  0.00  0.00    +0.000 A 
ATOM      3  N   UNL     1       3.296   3.376  19.116  0.00  0.00    +0.000 N 
ATOM      4  C   UNL     1       3.916   4.058  18.102  0.00  0.00    +0.000 A 
ATOM      5  C   UNL     1       4.775   3.575  17.105  0.00  0.00    +0.000 A 
ATOM      6  C   UNL     1       5.285   4.494  16.183  0.00  0.00    +0.000 A 
ATOM      7 CL   UNL     1       6.332   3.937  14.934  0.00  0.00    +0.000 Cl
ATOM      8  C   UNL     1       4.967   5.843  16.260  0.00  0.00    +0.000 A 
ATOM      9  C   UNL     1       4.106   6.287  17.265  0.00  0.00    +0.000 A 
ATOM     10 CL   UNL     1       3.722   7.950  17.395  0.00  0.00    +0.000 Cl
ATOM     11  C   UNL     1       3.540   5.400  18.214  0.00  0.00    +0.000 A 
ATOM     12  H   UNL     1       3.389   2.383  19.294  0.00  0.00    +0.000 HD
ENDROOT
BRANCH   1  14
ATOM     13  C   UNL     1       2.070   7.258  20.916  0.00  0.00    +0.000 C 
ATOM     14  C   UNL     1       1.904   6.636  19.736  0.00  0.00    +0.000 C 
BRANCH  13  16
ATOM     15  O   UNL     1       1.159   8.934  22.350  0.00  0.00    +0.000 OA
ATOM     16  C   UNL     1       1.232   8.433  21.240  0.00  0.00    +0.000 C 
BRANCH  16  17
ATOM     17  O   UNL     1       0.624   8.859  20.110  0.00  0.00    +0.000 OA
BRANCH  17  18
ATOM     18  C   UNL     1       0.517  10.282  19.950  0.00  0.00    +0.000 C 
BRANCH  18  19
ATOM     19  C   UNL     1      -0.681  10.592  19.089  0.00  0.00    +0.000 A 
ATOM     20  C   UNL     1      -1.651  11.510  19.514  0.00  0.00    +0.000 A 
ATOM     21  C   UNL     1      -2.777  11.767  18.729  0.00  0.00    +0.000 A 
ATOM     22  C   UNL     1      -2.947  11.108  17.513  0.00  0.00    +0.000 A 
ATOM     23  C   UNL     1      -1.987  10.197  17.077  0.00  0.00    +0.000 A 
ATOM     24  C   UNL     1      -0.860   9.939  17.860  0.00  0.00    +0.000 A 
ENDBRANCH  18  19
ENDBRANCH  17  18
ENDBRANCH  16  17
ENDBRANCH  13  16
ENDBRANCH   1  14
BRANCH   2  25
ATOM     25  C   UNL     1       1.752   3.588  20.964  0.00  0.00    +0.000 C 
ATOM     26  O   UNL     1       2.212   3.463  22.090  0.00  0.00    +0.000 OA
BRANCH  25  27
ATOM     27  OXT UNL     1       0.512   3.154  20.654  0.00  0.00    +0.000 OA
ATOM     28  HXT UNL     1       0.032   2.740  21.388  0.00  0.00    +0.000 HD
ENDBRANCH  25  27
ENDBRANCH   2  25
TORSDOF 7
ENDMDL
MODEL 9
REMARK VINA RESULT:      -7.6      2.981      7.356
REMARK  Name = 
REMARK  7 active torsions:
REMARK  status: ('A' for Active; 'I' for Inactive)
REMARK    1  A    between atoms: C_2  and  C_3
REMARK    2  A    between atoms: C_2  and  O_19
REMARK    3  A    between atoms: C_4  and  C_5
REMARK    4  A    between atoms: CA_6  and  C_7
REMARK    5  A    between atoms: C_7  and  OXT_9
REMARK    6  A    between atoms: O_19  and  C_20
REMARK    7  A    between atoms: C_20  and  C_21
REMARK                            x       y       z     vdW  Elec       q    Type
REMARK                         _______ _______ _______ _____ _____    ______ ____
ROOT
ATOM      1  C   UNL     1       3.756   4.545  18.373  0.00  0.00    +0.000 A 
ATOM      2  CA  UNL     1       3.504   3.446  19.190  0.00  0.00    +0.000 A 
ATOM      3  N   UNL     1       2.663   3.907  20.188  0.00  0.00    +0.000 N 
ATOM      4  C   UNL     1       2.392   5.243  20.052  0.00  0.00    +0.000 A 
ATOM      5  C   UNL     1       1.624   6.080  20.874  0.00  0.00    +0.000 A 
ATOM      6  C   UNL     1       1.496   7.421  20.502  0.00  0.00    +0.000 A 
ATOM      7 CL   UNL     1       0.572   8.483  21.495  0.00  0.00    +0.000 Cl
ATOM      8  C   UNL     1       2.096   7.909  19.350  0.00  0.00    +0.000 A 
ATOM      9  C   UNL     1       2.856   7.048  18.557  0.00  0.00    +0.000 A 
ATOM     10 CL   UNL     1       3.581   7.621  17.115  0.00  0.00    +0.000 Cl
ATOM     11  C   UNL     1       3.039   5.684  18.894  0.00  0.00    +0.000 A 
ATOM     12  H   UNL     1       2.319   3.314  20.933  0.00  0.00    +0.000 HD
ENDROOT
BRANCH   1  14
ATOM     13  C   UNL     1       5.977   4.475  17.326  0.00  0.00    +0.000 C 
ATOM     14  C   UNL     1       4.638   4.559  17.249  0.00  0.00    +0.000 C 
BRANCH  13  16
ATOM     15  O   UNL     1       7.997   4.487  16.055  0.00  0.00    +0.000 OA
ATOM     16  C   UNL     1       6.779   4.546  16.084  0.00  0.00    +0.000 C 
BRANCH  16  17
ATOM     17  O   UNL     1       5.940   4.636  15.028  0.00  0.00    +0.000 OA
BRANCH  17  18
ATOM     18  C   UNL     1       6.548   4.948  13.766  0.00  0.00    +0.000 C 
BRANCH  18  19
ATOM     19  C   UNL     1       6.261   3.833  12.792  0.00  0.00    +0.000 A 
ATOM     20  C   UNL     1       7.307   3.110  12.202  0.00  0.00    +0.000 A 
ATOM     21  C   UNL     1       7.038   2.102  11.274  0.00  0.00    +0.000 A 
ATOM     22  C   UNL     1       5.722   1.808  10.923  0.00  0.00    +0.000 A 
ATOM     23  C   UNL     1       4.674   2.516  11.506  0.00  0.00    +0.000 A 
ATOM     24  C   UNL     1       4.940   3.524  12.436  0.00  0.00    +0.000 A 
ENDBRANCH  18  19
ENDBRANCH  17  18
ENDBRANCH  16  17
ENDBRANCH  13  16
ENDBRANCH   1  14
BRANCH   2  25
ATOM     25  C   UNL     1       3.887   2.050  19.241  0.00  0.00    +0.000 C 
ATOM     26  O   UNL     1       3.246   1.162  18.694  0.00  0.00    +0.000 OA
BRANCH  25  27
ATOM     27  OXT UNL     1       5.010   1.783  19.940  0.00  0.00    +0.000 OA
ATOM     28  HXT UNL     1       5.798   1.627  19.398  0.00  0.00    +0.000 HD
ENDBRANCH  25  27
ENDBRANCH   2  25
TORSDOF 7
ENDMDL
