MODEL 1
REMARK VINA RESULT:      -6.7      0.000      0.000
REMARK  Name = 
REMARK  7 active torsions:
REMARK  status: ('A' for Active; 'I' for Inactive)
REMARK    1  A    between atoms: C_1  and  C_2
REMARK    2  A    between atoms: C_2  and  C_3
REMARK    3  A    between atoms: C_2  and  C_4
REMARK    4  A    between atoms: C_2  and  N_5
REMARK    5  A    between atoms: C_6  and  C_8
REMARK    6  A    between atoms: C_8  and  C_9
REMARK    7  A    between atoms: C_8  and  N_16
REMARK                            x       y       z     vdW  Elec       q    Type
REMARK                         _______ _______ _______ _____ _____    ______ ____
ROOT
ATOM      1  C   UNL     1      -2.410  11.881  20.189  0.00  0.00    +0.000 C 
ENDROOT
BRANCH   1   2
ATOM      2  N   UNL     1      -1.094  12.511  20.436  0.00  0.00    +0.000 N 
ATOM      3  C   UNL     1      -0.295  12.199  21.634  0.00  0.00    +0.000 C 
ATOM      4  C   UNL     1       0.608  10.958  21.596  0.00  0.00    +0.000 C 
ATOM      5  C   UNL     1       1.199  10.645  20.260  0.00  0.00    +0.000 A 
ATOM      6  C   UNL     1       1.351  11.526  19.205  0.00  0.00    +0.000 A 
ATOM      7  N   UNL     1       1.762  10.801  18.113  0.00  0.00    +0.000 N 
ATOM      8  C   UNL     1       1.900   9.470  18.445  0.00  0.00    +0.000 A 
ATOM      9  C   UNL     1       2.232   8.364  17.649  0.00  0.00    +0.000 A 
ATOM     10  C   UNL     1       2.233   7.102  18.256  0.00  0.00    +0.000 A 
ATOM     11  C   UNL     1       1.923   6.953  19.606  0.00  0.00    +0.000 A 
ATOM     12  C   UNL     1       1.591   8.066  20.383  0.00  0.00    +0.000 A 
ATOM     13  C   UNL     1       1.575   9.347  19.794  0.00  0.00    +0.000 A 
ATOM     14  C   UNL     1       0.999  12.981  19.143  0.00  0.00    +0.000 C 
ATOM     15  C   UNL     1      -0.514  13.128  19.324  0.00  0.00    +0.000 C 
ATOM     16  O   UNL     1      -1.193  13.714  18.479  0.00  0.00    +0.000 OA
ATOM     17  H   UNL     1       1.873  11.163  17.177  0.00  0.00    +0.000 HD
ENDBRANCH   1   2
BRANCH   1  18
ATOM     18  C   UNL     1      -2.601  11.350  18.767  0.00  0.00    +0.000 A 
ATOM     19  C   UNL     1      -1.756  10.378  18.205  0.00  0.00    +0.000 A 
ATOM     20  C   UNL     1      -1.924   9.941  16.891  0.00  0.00    +0.000 A 
ATOM     21  C   UNL     1      -2.960  10.462  16.125  0.00  0.00    +0.000 A 
ATOM     22 BR   UNL     1      -3.181   9.875  14.343  0.00  0.00    +0.000 Br
ATOM     23  C   UNL     1      -3.832  11.403  16.666  0.00  0.00    +0.000 A 
ATOM     24  C   UNL     1      -3.656  11.846  17.980  0.00  0.00    +0.000 A 
ENDBRANCH   1  18
BRANCH   1  26
ATOM     25  N   UNL     1      -3.329  14.209  20.464  0.00  0.00    +0.000 N 
ATOM     26  C   UNL     1      -3.567  12.853  20.620  0.00  0.00    +0.000 C 
ATOM     27  O   UNL     1      -4.626  12.431  21.084  0.00  0.00    +0.000 OA
ATOM     28  H   UNL     1      -2.442  14.497  20.057  0.00  0.00    +0.000 HD
BRANCH  25  30
ATOM     29  C   UNL     1      -4.486  15.173  22.426  0.00  0.00    +0.000 C 
ATOM     30  C   UNL     1      -4.274  15.252  20.901  0.00  0.00    +0.000 C 
ATOM     31  C   UNL     1      -5.625  15.128  20.185  0.00  0.00    +0.000 C 
ATOM     32  C   UNL     1      -3.697  16.637  20.568  0.00  0.00    +0.000 C 
ENDBRANCH  25  30
ENDBRANCH   1  26
TORSDOF 4
ENDMDL
MODEL 2
REMARK VINA RESULT:      -6.6      1.141      1.416
REMARK  Name = 
REMARK  7 active torsions:
REMARK  status: ('A' for Active; 'I' for Inactive)
REMARK    1  A    between atoms: C_1  and  C_2
REMARK    2  A    between atoms: C_2  and  C_3
REMARK    3  A    between atoms: C_2  and  C_4
REMARK    4  A    between atoms: C_2  and  N_5
REMARK    5  A    between atoms: C_6  and  C_8
REMARK    6  A    between atoms: C_8  and  C_9
REMARK    7  A    between atoms: C_8  and  N_16
REMARK                            x       y       z     vdW  Elec       q    Type
REMARK                         _______ _______ _______ _____ _____    ______ ____
ROOT
ATOM      1  C   UNL     1      -2.520  11.834  20.255  0.00  0.00    +0.000 C 
ENDROOT
BRANCH   1   2
ATOM      2  N   UNL     1      -1.219  12.481  20.538  0.00  0.00    +0.000 N 
ATOM      3  C   UNL     1      -0.429  12.150  21.737  0.00  0.00    +0.000 C 
ATOM      4  C   UNL     1       0.497  10.929  21.677  0.00  0.00    +0.000 C 
ATOM      5  C   UNL     1       1.112  10.664  20.341  0.00  0.00    +0.000 A 
ATOM      6  C   UNL     1       1.260  11.577  19.312  0.00  0.00    +0.000 A 
ATOM      7  N   UNL     1       1.699  10.890  18.207  0.00  0.00    +0.000 N 
ATOM      8  C   UNL     1       1.858   9.554  18.503  0.00  0.00    +0.000 A 
ATOM      9  C   UNL     1       2.221   8.477  17.681  0.00  0.00    +0.000 A 
ATOM     10  C   UNL     1       2.239   7.198  18.253  0.00  0.00    +0.000 A 
ATOM     11  C   UNL     1       1.915   7.006  19.594  0.00  0.00    +0.000 A 
ATOM     12  C   UNL     1       1.552   8.091  20.397  0.00  0.00    +0.000 A 
ATOM     13  C   UNL     1       1.518   9.387  19.843  0.00  0.00    +0.000 A 
ATOM     14  C   UNL     1       0.881  13.026  19.286  0.00  0.00    +0.000 C 
ATOM     15  C   UNL     1      -0.637  13.140  19.451  0.00  0.00    +0.000 C 
ATOM     16  O   UNL     1      -1.316  13.736  18.613  0.00  0.00    +0.000 OA
ATOM     17  H   UNL     1       1.815  11.281  17.282  0.00  0.00    +0.000 HD
ENDBRANCH   1   2
BRANCH   1  18
ATOM     18  C   UNL     1      -2.677  11.327  18.821  0.00  0.00    +0.000 A 
ATOM     19  C   UNL     1      -1.817  10.365  18.261  0.00  0.00    +0.000 A 
ATOM     20  C   UNL     1      -1.954   9.951  16.937  0.00  0.00    +0.000 A 
ATOM     21  C   UNL     1      -2.973  10.484  16.156  0.00  0.00    +0.000 A 
ATOM     22 BR   UNL     1      -3.152   9.927  14.359  0.00  0.00    +0.000 Br
ATOM     23  C   UNL     1      -3.859  11.415  16.693  0.00  0.00    +0.000 A 
ATOM     24  C   UNL     1      -3.714  11.835  18.018  0.00  0.00    +0.000 A 
ENDBRANCH   1  18
BRANCH   1  26
ATOM     25  N   UNL     1      -4.893  12.160  21.031  0.00  0.00    +0.000 N 
ATOM     26  C   UNL     1      -3.701  12.777  20.685  0.00  0.00    +0.000 C 
ATOM     27  O   UNL     1      -3.578  14.001  20.702  0.00  0.00    +0.000 OA
ATOM     28  H   UNL     1      -4.929  11.144  21.015  0.00  0.00    +0.000 HD
BRANCH  25  30
ATOM     29  C   UNL     1      -7.307  11.932  21.514  0.00  0.00    +0.000 C 
ATOM     30  C   UNL     1      -6.119  12.903  21.369  0.00  0.00    +0.000 C 
ATOM     31  C   UNL     1      -6.446  13.966  20.313  0.00  0.00    +0.000 C 
ATOM     32  C   UNL     1      -5.924  13.627  22.711  0.00  0.00    +0.000 C 
ENDBRANCH  25  30
ENDBRANCH   1  26
TORSDOF 4
ENDMDL
MODEL 3
REMARK VINA RESULT:      -6.6      1.167      1.832
REMARK  Name = 
REMARK  7 active torsions:
REMARK  status: ('A' for Active; 'I' for Inactive)
REMARK    1  A    between atoms: C_1  and  C_2
REMARK    2  A    between atoms: C_2  and  C_3
REMARK    3  A    between atoms: C_2  and  C_4
REMARK    4  A    between atoms: C_2  and  N_5
REMARK    5  A    between atoms: C_6  and  C_8
REMARK    6  A    between atoms: C_8  and  C_9
REMARK    7  A    between atoms: C_8  and  N_16
REMARK                            x       y       z     vdW  Elec       q    Type
REMARK                         _______ _______ _______ _____ _____    ______ ____
ROOT
ATOM      1  C   UNL     1      -2.549  11.835  20.221  0.00  0.00    +0.000 C 
ENDROOT
BRANCH   1   2
ATOM      2  N   UNL     1      -1.256  12.481  20.539  0.00  0.00    +0.000 N 
ATOM      3  C   UNL     1      -0.488  12.132  21.747  0.00  0.00    +0.000 C 
ATOM      4  C   UNL     1       0.444  10.915  21.683  0.00  0.00    +0.000 C 
ATOM      5  C   UNL     1       1.085  10.676  20.354  0.00  0.00    +0.000 A 
ATOM      6  C   UNL     1       1.249  11.608  19.345  0.00  0.00    +0.000 A 
ATOM      7  N   UNL     1       1.711  10.943  18.236  0.00  0.00    +0.000 N 
ATOM      8  C   UNL     1       1.870   9.602  18.511  0.00  0.00    +0.000 A 
ATOM      9  C   UNL     1       2.253   8.542  17.677  0.00  0.00    +0.000 A 
ATOM     10  C   UNL     1       2.265   7.253  18.226  0.00  0.00    +0.000 A 
ATOM     11  C   UNL     1       1.916   7.036  19.557  0.00  0.00    +0.000 A 
ATOM     12  C   UNL     1       1.534   8.104  20.373  0.00  0.00    +0.000 A 
ATOM     13  C   UNL     1       1.506   9.411  19.842  0.00  0.00    +0.000 A 
ATOM     14  C   UNL     1       0.865  13.056  19.338  0.00  0.00    +0.000 C 
ATOM     15  C   UNL     1      -0.656  13.162  19.476  0.00  0.00    +0.000 C 
ATOM     16  O   UNL     1      -1.322  13.770  18.636  0.00  0.00    +0.000 OA
ATOM     17  H   UNL     1       1.843  11.351  17.321  0.00  0.00    +0.000 HD
ENDBRANCH   1   2
BRANCH   1  18
ATOM     18  C   UNL     1      -2.688  11.378  18.768  0.00  0.00    +0.000 A 
ATOM     19  C   UNL     1      -3.676  11.887  17.908  0.00  0.00    +0.000 A 
ATOM     20  C   UNL     1      -3.811  11.422  16.600  0.00  0.00    +0.000 A 
ATOM     21  C   UNL     1      -2.937  10.449  16.126  0.00  0.00    +0.000 A 
ATOM     22 BR   UNL     1      -3.126   9.815  14.357  0.00  0.00    +0.000 Br
ATOM     23  C   UNL     1      -1.929   9.949  16.946  0.00  0.00    +0.000 A 
ATOM     24  C   UNL     1      -1.802  10.410  18.260  0.00  0.00    +0.000 A 
ENDBRANCH   1  18
BRANCH   1  26
ATOM     25  N   UNL     1      -4.940  12.118  20.955  0.00  0.00    +0.000 N 
ATOM     26  C   UNL     1      -3.742  12.753  20.671  0.00  0.00    +0.000 C 
ATOM     27  O   UNL     1      -3.621  13.975  20.755  0.00  0.00    +0.000 OA
ATOM     28  H   UNL     1      -4.974  11.104  20.886  0.00  0.00    +0.000 HD
BRANCH  25  30
ATOM     29  C   UNL     1      -6.525  13.860  20.201  0.00  0.00    +0.000 C 
ATOM     30  C   UNL     1      -6.176  12.841  21.303  0.00  0.00    +0.000 C 
ATOM     31  C   UNL     1      -6.049  13.562  22.651  0.00  0.00    +0.000 C 
ATOM     32  C   UNL     1      -7.338  11.841  21.419  0.00  0.00    +0.000 C 
ENDBRANCH  25  30
ENDBRANCH   1  26
TORSDOF 4
ENDMDL
MODEL 4
REMARK VINA RESULT:      -6.5      3.475      6.066
REMARK  Name = 
REMARK  7 active torsions:
REMARK  status: ('A' for Active; 'I' for Inactive)
REMARK    1  A    between atoms: C_1  and  C_2
REMARK    2  A    between atoms: C_2  and  C_3
REMARK    3  A    between atoms: C_2  and  C_4
REMARK    4  A    between atoms: C_2  and  N_5
REMARK    5  A    between atoms: C_6  and  C_8
REMARK    6  A    between atoms: C_8  and  C_9
REMARK    7  A    between atoms: C_8  and  N_16
REMARK                            x       y       z     vdW  Elec       q    Type
REMARK                         _______ _______ _______ _____ _____    ______ ____
ROOT
ATOM      1  C   UNL     1       1.686  13.254  18.722  0.00  0.00    +0.000 C 
ENDROOT
BRANCH   1   2
ATOM      2  N   UNL     1       1.523  11.876  19.237  0.00  0.00    +0.000 N 
ATOM      3  C   UNL     1       0.762  11.589  20.465  0.00  0.00    +0.000 C 
ATOM      4  C   UNL     1      -0.761  11.438  20.351  0.00  0.00    +0.000 C 
ATOM      5  C   UNL     1      -1.245  10.835  19.073  0.00  0.00    +0.000 A 
ATOM      6  C   UNL     1      -0.501  10.062  18.198  0.00  0.00    +0.000 A 
ATOM      7  N   UNL     1      -1.258   9.864  17.070  0.00  0.00    +0.000 N 
ATOM      8  C   UNL     1      -2.487  10.476  17.203  0.00  0.00    +0.000 A 
ATOM      9  C   UNL     1      -3.547  10.593  16.293  0.00  0.00    +0.000 A 
ATOM     10  C   UNL     1      -4.665  11.339  16.688  0.00  0.00    +0.000 A 
ATOM     11  C   UNL     1      -4.722  11.937  17.944  0.00  0.00    +0.000 A 
ATOM     12  C   UNL     1      -3.654  11.813  18.837  0.00  0.00    +0.000 A 
ATOM     13  C   UNL     1      -2.514  11.074  18.461  0.00  0.00    +0.000 A 
ATOM     14  C   UNL     1       0.926   9.622  18.322  0.00  0.00    +0.000 C 
ATOM     15  C   UNL     1       1.824  10.862  18.323  0.00  0.00    +0.000 C 
ATOM     16  O   UNL     1       2.732  10.980  17.498  0.00  0.00    +0.000 OA
ATOM     17  H   UNL     1      -0.944   9.408  16.226  0.00  0.00    +0.000 HD
ENDBRANCH   1   2
BRANCH   1  18
ATOM     18  C   UNL     1       2.935  13.976  19.230  0.00  0.00    +0.000 A 
ATOM     19  C   UNL     1       3.798  14.685  18.376  0.00  0.00    +0.000 A 
ATOM     20  C   UNL     1       4.954  15.298  18.857  0.00  0.00    +0.000 A 
ATOM     21  C   UNL     1       5.252  15.228  20.213  0.00  0.00    +0.000 A 
ATOM     22 BR   UNL     1       6.823  16.053  20.861  0.00  0.00    +0.000 Br
ATOM     23  C   UNL     1       4.399  14.560  21.087  0.00  0.00    +0.000 A 
ATOM     24  C   UNL     1       3.246  13.937  20.602  0.00  0.00    +0.000 A 
ENDBRANCH   1  18
BRANCH   1  26
ATOM     25  N   UNL     1       0.373  14.924  20.073  0.00  0.00    +0.000 N 
ATOM     26  C   UNL     1       0.376  14.086  18.969  0.00  0.00    +0.000 C 
ATOM     27  O   UNL     1      -0.600  13.990  18.227  0.00  0.00    +0.000 OA
ATOM     28  H   UNL     1       1.217  14.976  20.639  0.00  0.00    +0.000 HD
BRANCH  25  30
ATOM     29  C   UNL     1      -2.004  14.766  20.737  0.00  0.00    +0.000 C 
ATOM     30  C   UNL     1      -0.805  15.703  20.493  0.00  0.00    +0.000 C 
ATOM     31  C   UNL     1      -1.182  16.765  19.452  0.00  0.00    +0.000 C 
ATOM     32  C   UNL     1      -0.491  16.433  21.809  0.00  0.00    +0.000 C 
ENDBRANCH  25  30
ENDBRANCH   1  26
TORSDOF 4
ENDMDL
MODEL 5
REMARK VINA RESULT:      -6.4      2.777      6.404
REMARK  Name = 
REMARK  7 active torsions:
REMARK  status: ('A' for Active; 'I' for Inactive)
REMARK    1  A    between atoms: C_1  and  C_2
REMARK    2  A    between atoms: C_2  and  C_3
REMARK    3  A    between atoms: C_2  and  C_4
REMARK    4  A    between atoms: C_2  and  N_5
REMARK    5  A    between atoms: C_6  and  C_8
REMARK    6  A    between atoms: C_8  and  C_9
REMARK    7  A    between atoms: C_8  and  N_16
REMARK                            x       y       z     vdW  Elec       q    Type
REMARK                         _______ _______ _______ _____ _____    ______ ____
ROOT
ATOM      1  C   UNL     1       0.253  11.318  19.338  0.00  0.00    +0.000 C 
ENDROOT
BRANCH   1   2
ATOM      2  N   UNL     1      -0.993  11.364  20.135  0.00  0.00    +0.000 N 
ATOM      3  C   UNL     1      -0.976  11.323  21.608  0.00  0.00    +0.000 C 
ATOM      4  C   UNL     1      -0.763  12.641  22.364  0.00  0.00    +0.000 C 
ATOM      5  C   UNL     1      -1.342  13.850  21.705  0.00  0.00    +0.000 A 
ATOM      6  C   UNL     1      -2.347  13.863  20.754  0.00  0.00    +0.000 A 
ATOM      7  N   UNL     1      -2.455  15.147  20.280  0.00  0.00    +0.000 N 
ATOM      8  C   UNL     1      -1.555  15.973  20.919  0.00  0.00    +0.000 A 
ATOM      9  C   UNL     1      -1.266  17.330  20.721  0.00  0.00    +0.000 A 
ATOM     10  C   UNL     1      -0.240  17.897  21.487  0.00  0.00    +0.000 A 
ATOM     11  C   UNL     1       0.464  17.138  22.419  0.00  0.00    +0.000 A 
ATOM     12  C   UNL     1       0.165  15.785  22.601  0.00  0.00    +0.000 A 
ATOM     13  C   UNL     1      -0.859  15.189  21.836  0.00  0.00    +0.000 A 
ATOM     14  C   UNL     1      -3.107  12.706  20.181  0.00  0.00    +0.000 C 
ATOM     15  C   UNL     1      -2.127  11.793  19.440  0.00  0.00    +0.000 C 
ATOM     16  O   UNL     1      -2.307  11.511  18.253  0.00  0.00    +0.000 OA
ATOM     17  H   UNL     1      -3.047  15.442  19.517  0.00  0.00    +0.000 HD
ENDBRANCH   1   2
BRANCH   1  18
ATOM     18  C   UNL     1       0.940   9.952  19.313  0.00  0.00    +0.000 A 
ATOM     19  C   UNL     1       0.990   9.112  20.440  0.00  0.00    +0.000 A 
ATOM     20  C   UNL     1       1.661   7.890  20.406  0.00  0.00    +0.000 A 
ATOM     21  C   UNL     1       2.276   7.480  19.229  0.00  0.00    +0.000 A 
ATOM     22 BR   UNL     1       3.191   5.828  19.186  0.00  0.00    +0.000 Br
ATOM     23  C   UNL     1       2.216   8.277  18.088  0.00  0.00    +0.000 A 
ATOM     24  C   UNL     1       1.551   9.506  18.128  0.00  0.00    +0.000 A 
ENDBRANCH   1  18
BRANCH   1  26
ATOM     25  N   UNL     1       1.320  13.565  18.947  0.00  0.00    +0.000 N 
ATOM     26  C   UNL     1       1.229  12.465  19.786  0.00  0.00    +0.000 C 
ATOM     27  O   UNL     1       1.887  12.386  20.823  0.00  0.00    +0.000 OA
ATOM     28  H   UNL     1       0.737  13.582  18.114  0.00  0.00    +0.000 HD
BRANCH  25  30
ATOM     29  C   UNL     1       3.497  14.531  18.281  0.00  0.00    +0.000 C 
ATOM     30  C   UNL     1       2.252  14.682  19.178  0.00  0.00    +0.000 C 
ATOM     31  C   UNL     1       2.682  14.766  20.648  0.00  0.00    +0.000 C 
ATOM     32  C   UNL     1       1.560  16.007  18.820  0.00  0.00    +0.000 C 
ENDBRANCH  25  30
ENDBRANCH   1  26
TORSDOF 4
ENDMDL
MODEL 6
REMARK VINA RESULT:      -6.4      2.360      5.106
REMARK  Name = 
REMARK  7 active torsions:
REMARK  status: ('A' for Active; 'I' for Inactive)
REMARK    1  A    between atoms: C_1  and  C_2
REMARK    2  A    between atoms: C_2  and  C_3
REMARK    3  A    between atoms: C_2  and  C_4
REMARK    4  A    between atoms: C_2  and  N_5
REMARK    5  A    between atoms: C_6  and  C_8
REMARK    6  A    between atoms: C_8  and  C_9
REMARK    7  A    between atoms: C_8  and  N_16
REMARK                            x       y       z     vdW  Elec       q    Type
REMARK                         _______ _______ _______ _____ _____    ______ ____
ROOT
ATOM      1  C   UNL     1      -1.354  11.479  19.969  0.00  0.00    +0.000 C 
ENDROOT
BRANCH   1   2
ATOM      2  N   UNL     1       0.070  11.880  19.929  0.00  0.00    +0.000 N 
ATOM      3  C   UNL     1       0.716  12.337  18.686  0.00  0.00    +0.000 C 
ATOM      4  C   UNL     1       0.568  13.814  18.297  0.00  0.00    +0.000 C 
ATOM      5  C   UNL     1       0.508  14.768  19.445  0.00  0.00    +0.000 A 
ATOM      6  C   UNL     1       0.958  14.532  20.732  0.00  0.00    +0.000 A 
ATOM      7  N   UNL     1       0.553  15.585  21.514  0.00  0.00    +0.000 N 
ATOM      8  C   UNL     1      -0.132  16.511  20.757  0.00  0.00    +0.000 A 
ATOM      9  C   UNL     1      -0.776  17.698  21.135  0.00  0.00    +0.000 A 
ATOM     10  C   UNL     1      -1.456  18.414  20.142  0.00  0.00    +0.000 A 
ATOM     11  C   UNL     1      -1.484  17.966  18.824  0.00  0.00    +0.000 A 
ATOM     12  C   UNL     1      -0.840  16.778  18.466  0.00  0.00    +0.000 A 
ATOM     13  C   UNL     1      -0.155  16.034  19.448  0.00  0.00    +0.000 A 
ATOM     14  C   UNL     1       1.624  13.306  21.278  0.00  0.00    +0.000 C 
ATOM     15  C   UNL     1       0.651  12.130  21.176  0.00  0.00    +0.000 C 
ATOM     16  O   UNL     1       0.346  11.477  22.177  0.00  0.00    +0.000 OA
ATOM     17  H   UNL     1       0.663  15.647  22.516  0.00  0.00    +0.000 HD
ENDBRANCH   1   2
BRANCH   1  18
ATOM     18  C   UNL     1      -1.941  11.091  18.611  0.00  0.00    +0.000 A 
ATOM     19  C   UNL     1      -1.379  10.085  17.805  0.00  0.00    +0.000 A 
ATOM     20  C   UNL     1      -1.906   9.780  16.551  0.00  0.00    +0.000 A 
ATOM     21  C   UNL     1      -3.024  10.468  16.093  0.00  0.00    +0.000 A 
ATOM     22 BR   UNL     1      -3.732  10.058  14.390  0.00  0.00    +0.000 Br
ATOM     23  C   UNL     1      -3.621  11.447  16.883  0.00  0.00    +0.000 A 
ATOM     24  C   UNL     1      -3.085  11.758  18.136  0.00  0.00    +0.000 A 
ENDBRANCH   1  18
BRANCH   1  26
ATOM     25  N   UNL     1      -2.735  12.244  21.931  0.00  0.00    +0.000 N 
ATOM     26  C   UNL     1      -2.209  12.581  20.693  0.00  0.00    +0.000 C 
ATOM     27  O   UNL     1      -2.412  13.681  20.181  0.00  0.00    +0.000 OA
ATOM     28  H   UNL     1      -2.517  11.326  22.311  0.00  0.00    +0.000 HD
BRANCH  25  30
ATOM     29  C   UNL     1      -5.009  13.213  22.014  0.00  0.00    +0.000 C 
ATOM     30  C   UNL     1      -3.629  13.129  22.697  0.00  0.00    +0.000 C 
ATOM     31  C   UNL     1      -3.040  14.538  22.845  0.00  0.00    +0.000 C 
ATOM     32  C   UNL     1      -3.826  12.557  24.109  0.00  0.00    +0.000 C 
ENDBRANCH  25  30
ENDBRANCH   1  26
TORSDOF 4
ENDMDL
MODEL 7
REMARK VINA RESULT:      -6.4     10.004     12.333
REMARK  Name = 
REMARK  7 active torsions:
REMARK  status: ('A' for Active; 'I' for Inactive)
REMARK    1  A    between atoms: C_1  and  C_2
REMARK    2  A    between atoms: C_2  and  C_3
REMARK    3  A    between atoms: C_2  and  C_4
REMARK    4  A    between atoms: C_2  and  N_5
REMARK    5  A    between atoms: C_6  and  C_8
REMARK    6  A    between atoms: C_8  and  C_9
REMARK    7  A    between atoms: C_8  and  N_16
REMARK                            x       y       z     vdW  Elec       q    Type
REMARK                         _______ _______ _______ _____ _____    ______ ____
ROOT
ATOM      1  C   UNL     1       9.526  17.172  20.309  0.00  0.00    +0.000 C 
ENDROOT
BRANCH   1   2
ATOM      2  N   UNL     1      10.654  16.897  19.391  0.00  0.00    +0.000 N 
ATOM      3  C   UNL     1      11.910  16.288  19.862  0.00  0.00    +0.000 C 
ATOM      4  C   UNL     1      11.975  14.758  19.966  0.00  0.00    +0.000 C 
ATOM      5  C   UNL     1      11.181  14.019  18.938  0.00  0.00    +0.000 A 
ATOM      6  C   UNL     1      10.750  14.517  17.722  0.00  0.00    +0.000 A 
ATOM      7  N   UNL     1       9.907  13.586  17.166  0.00  0.00    +0.000 N 
ATOM      8  C   UNL     1       9.799  12.485  17.988  0.00  0.00    +0.000 A 
ATOM      9  C   UNL     1       9.012  11.330  17.864  0.00  0.00    +0.000 A 
ATOM     10  C   UNL     1       9.061  10.394  18.904  0.00  0.00    +0.000 A 
ATOM     11  C   UNL     1       9.870  10.599  20.019  0.00  0.00    +0.000 A 
ATOM     12  C   UNL     1      10.645  11.757  20.128  0.00  0.00    +0.000 A 
ATOM     13  C   UNL     1      10.607  12.720  19.098  0.00  0.00    +0.000 A 
ATOM     14  C   UNL     1      10.986  15.873  17.130  0.00  0.00    +0.000 C 
ATOM     15  C   UNL     1      10.331  16.923  18.032  0.00  0.00    +0.000 C 
ATOM     16  O   UNL     1       9.500  17.712  17.576  0.00  0.00    +0.000 OA
ATOM     17  H   UNL     1       9.373  13.711  16.318  0.00  0.00    +0.000 HD
ENDBRANCH   1   2
BRANCH   1  18
ATOM     18  C   UNL     1       9.919  17.266  21.785  0.00  0.00    +0.000 A 
ATOM     19  C   UNL     1       9.897  16.154  22.644  0.00  0.00    +0.000 A 
ATOM     20  C   UNL     1      10.217  16.274  23.996  0.00  0.00    +0.000 A 
ATOM     21  C   UNL     1      10.586  17.514  24.504  0.00  0.00    +0.000 A 
ATOM     22 BR   UNL     1      11.012  17.676  26.337  0.00  0.00    +0.000 Br
ATOM     23  C   UNL     1      10.647  18.627  23.669  0.00  0.00    +0.000 A 
ATOM     24  C   UNL     1      10.317  18.506  22.316  0.00  0.00    +0.000 A 
ENDBRANCH   1  18
BRANCH   1  26
ATOM     25  N   UNL     1       7.231  16.622  19.433  0.00  0.00    +0.000 N 
ATOM     26  C   UNL     1       8.365  16.141  20.069  0.00  0.00    +0.000 C 
ATOM     27  O   UNL     1       8.453  14.970  20.436  0.00  0.00    +0.000 OA
ATOM     28  H   UNL     1       7.223  17.594  19.136  0.00  0.00    +0.000 HD
BRANCH  25  30
ATOM     29  C   UNL     1       4.866  16.697  18.712  0.00  0.00    +0.000 C 
ATOM     30  C   UNL     1       6.022  15.809  19.213  0.00  0.00    +0.000 C 
ATOM     31  C   UNL     1       5.593  15.076  20.491  0.00  0.00    +0.000 C 
ATOM     32  C   UNL     1       6.310  14.745  18.142  0.00  0.00    +0.000 C 
ENDBRANCH  25  30
ENDBRANCH   1  26
TORSDOF 4
ENDMDL
MODEL 8
REMARK VINA RESULT:      -6.4      3.567      6.037
REMARK  Name = 
REMARK  7 active torsions:
REMARK  status: ('A' for Active; 'I' for Inactive)
REMARK    1  A    between atoms: C_1  and  C_2
REMARK    2  A    between atoms: C_2  and  C_3
REMARK    3  A    between atoms: C_2  and  C_4
REMARK    4  A    between atoms: C_2  and  N_5
REMARK    5  A    between atoms: C_6  and  C_8
REMARK    6  A    between atoms: C_8  and  C_9
REMARK    7  A    between atoms: C_8  and  N_16
REMARK                            x       y       z     vdW  Elec       q    Type
REMARK                         _______ _______ _______ _____ _____    ______ ____
ROOT
ATOM      1  C   UNL     1       1.599  13.842  18.690  0.00  0.00    +0.000 C 
ENDROOT
BRANCH   1   2
ATOM      2  N   UNL     1       1.569  12.511  19.337  0.00  0.00    +0.000 N 
ATOM      3  C   UNL     1       0.832  12.272  20.590  0.00  0.00    +0.000 C 
ATOM      4  C   UNL     1      -0.667  11.962  20.498  0.00  0.00    +0.000 C 
ATOM      5  C   UNL     1      -1.082  11.193  19.286  0.00  0.00    +0.000 A 
ATOM      6  C   UNL     1      -0.261  10.415  18.488  0.00  0.00    +0.000 A 
ATOM      7  N   UNL     1      -0.989  10.035  17.388  0.00  0.00    +0.000 N 
ATOM      8  C   UNL     1      -2.272  10.533  17.465  0.00  0.00    +0.000 A 
ATOM      9  C   UNL     1      -3.334  10.456  16.552  0.00  0.00    +0.000 A 
ATOM     10  C   UNL     1      -4.522  11.124  16.877  0.00  0.00    +0.000 A 
ATOM     11  C   UNL     1      -4.645  11.833  18.070  0.00  0.00    +0.000 A 
ATOM     12  C   UNL     1      -3.575  11.902  18.966  0.00  0.00    +0.000 A 
ATOM     13  C   UNL     1      -2.365  11.245  18.659  0.00  0.00    +0.000 A 
ATOM     14  C   UNL     1       1.201  10.132  18.648  0.00  0.00    +0.000 C 
ATOM     15  C   UNL     1       1.973  11.448  18.525  0.00  0.00    +0.000 C 
ATOM     16  O   UNL     1       2.870  11.574  17.689  0.00  0.00    +0.000 OA
ATOM     17  H   UNL     1      -0.627   9.532  16.590  0.00  0.00    +0.000 HD
ENDBRANCH   1   2
BRANCH   1  18
ATOM     18  C   UNL     1       2.840  14.676  19.012  0.00  0.00    +0.000 A 
ATOM     19  C   UNL     1       3.619  14.457  20.163  0.00  0.00    +0.000 A 
ATOM     20  C   UNL     1       4.720  15.259  20.458  0.00  0.00    +0.000 A 
ATOM     21  C   UNL     1       5.072  16.285  19.588  0.00  0.00    +0.000 A 
ATOM     22 BR   UNL     1       6.561  17.375  19.994  0.00  0.00    +0.000 Br
ATOM     23  C   UNL     1       4.338  16.505  18.426  0.00  0.00    +0.000 A 
ATOM     24  C   UNL     1       3.228  15.705  18.136  0.00  0.00    +0.000 A 
ENDBRANCH   1  18
BRANCH   1  26
ATOM     25  N   UNL     1       0.292  15.510  20.049  0.00  0.00    +0.000 N 
ATOM     26  C   UNL     1       0.267  14.621  18.985  0.00  0.00    +0.000 C 
ATOM     27  O   UNL     1      -0.749  14.443  18.314  0.00  0.00    +0.000 OA
ATOM     28  H   UNL     1       1.166  15.629  20.555  0.00  0.00    +0.000 HD
BRANCH  25  30
ATOM     29  C   UNL     1      -2.011  15.269  20.918  0.00  0.00    +0.000 C 
ATOM     30  C   UNL     1      -0.895  16.251  20.511  0.00  0.00    +0.000 C 
ATOM     31  C   UNL     1      -1.419  17.209  19.433  0.00  0.00    +0.000 C 
ATOM     32  C   UNL     1      -0.524  17.094  21.741  0.00  0.00    +0.000 C 
ENDBRANCH  25  30
ENDBRANCH   1  26
TORSDOF 4
ENDMDL
MODEL 9
REMARK VINA RESULT:      -6.4      8.977     11.175
REMARK  Name = 
REMARK  7 active torsions:
REMARK  status: ('A' for Active; 'I' for Inactive)
REMARK    1  A    between atoms: C_1  and  C_2
REMARK    2  A    between atoms: C_2  and  C_3
REMARK    3  A    between atoms: C_2  and  C_4
REMARK    4  A    between atoms: C_2  and  N_5
REMARK    5  A    between atoms: C_6  and  C_8
REMARK    6  A    between atoms: C_8  and  C_9
REMARK    7  A    between atoms: C_8  and  N_16
REMARK                            x       y       z     vdW  Elec       q    Type
REMARK                         _______ _______ _______ _____ _____    ______ ____
ROOT
ATOM      1  C   UNL     1       7.833  17.080  20.874  0.00  0.00    +0.000 C 
ENDROOT
BRANCH   1   2
ATOM      2  N   UNL     1       9.133  17.164  20.173  0.00  0.00    +0.000 N 
ATOM      3  C   UNL     1      10.397  16.783  20.828  0.00  0.00    +0.000 C 
ATOM      4  C   UNL     1      10.795  15.301  20.821  0.00  0.00    +0.000 C 
ATOM      5  C   UNL     1      10.382  14.540  19.605  0.00  0.00    +0.000 A 
ATOM      6  C   UNL     1      10.061  15.077  18.371  0.00  0.00    +0.000 A 
ATOM      7  N   UNL     1       9.564  14.062  17.591  0.00  0.00    +0.000 N 
ATOM      8  C   UNL     1       9.575  12.872  18.286  0.00  0.00    +0.000 A 
ATOM      9  C   UNL     1       9.110  11.601  17.921  0.00  0.00    +0.000 A 
ATOM     10  C   UNL     1       9.196  10.578  18.873  0.00  0.00    +0.000 A 
ATOM     11  C   UNL     1       9.732  10.814  20.136  0.00  0.00    +0.000 A 
ATOM     12  C   UNL     1      10.188  12.089  20.485  0.00  0.00    +0.000 A 
ATOM     13  C   UNL     1      10.105  13.139  19.546  0.00  0.00    +0.000 A 
ATOM     14  C   UNL     1      10.075  16.514  17.945  0.00  0.00    +0.000 C 
ATOM     15  C   UNL     1       9.050  17.284  18.783  0.00  0.00    +0.000 C 
ATOM     16  O   UNL     1       8.150  17.927  18.239  0.00  0.00    +0.000 OA
ATOM     17  H   UNL     1       9.169  14.172  16.668  0.00  0.00    +0.000 HD
ENDBRANCH   1   2
BRANCH   1  18
ATOM     18  C   UNL     1       7.940  16.869  22.385  0.00  0.00    +0.000 A 
ATOM     19  C   UNL     1       7.846  15.598  22.979  0.00  0.00    +0.000 A 
ATOM     20  C   UNL     1       7.902  15.436  24.363  0.00  0.00    +0.000 A 
ATOM     21  C   UNL     1       8.076  16.551  25.175  0.00  0.00    +0.000 A 
ATOM     22 BR   UNL     1       8.145  16.331  27.050  0.00  0.00    +0.000 Br
ATOM     23  C   UNL     1       8.204  17.819  24.613  0.00  0.00    +0.000 A 
ATOM     24  C   UNL     1       8.137  17.980  23.226  0.00  0.00    +0.000 A 
ENDBRANCH   1  18
BRANCH   1  26
ATOM     25  N   UNL     1       5.800  16.481  19.514  0.00  0.00    +0.000 N 
ATOM     26  C   UNL     1       6.913  16.005  20.189  0.00  0.00    +0.000 C 
ATOM     27  O   UNL     1       7.163  14.803  20.257  0.00  0.00    +0.000 OA
ATOM     28  H   UNL     1       5.655  17.487  19.476  0.00  0.00    +0.000 HD
BRANCH  25  30
ATOM     29  C   UNL     1       4.076  14.769  19.977  0.00  0.00    +0.000 C 
ATOM     30  C   UNL     1       4.792  15.602  18.896  0.00  0.00    +0.000 C 
ATOM     31  C   UNL     1       5.421  14.666  17.855  0.00  0.00    +0.000 C 
ATOM     32  C   UNL     1       3.740  16.459  18.174  0.00  0.00    +0.000 C 
ENDBRANCH  25  30
ENDBRANCH   1  26
TORSDOF 4
ENDMDL
