MODEL 1
REMARK VINA RESULT:      -8.0      0.000      0.000
REMARK  Name = 
REMARK  12 active torsions:
REMARK  status: ('A' for Active; 'I' for Inactive)
REMARK    1  A    between atoms: C_1  and  C_2
REMARK    2  A    between atoms: C_2  and  C_3
REMARK    3  A    between atoms: C_2  and  C_4
REMARK    4  A    between atoms: C_4  and  O_5
REMARK    5  A    between atoms: O_5  and  C_6
REMARK    6  A    between atoms: C_9  and  C_10
REMARK    7  A    between atoms: C_13  and  C_14
REMARK    8  A    between atoms: N_16  and  S_17
REMARK    9  A    between atoms: S_17  and  C_18
REMARK   10  A    between atoms: C_22  and  C_23
REMARK   11  A    between atoms: N_25  and  C_26
REMARK   12  A    between atoms: N_25  and  C_27
REMARK                            x       y       z     vdW  Elec       q    Type
REMARK                         _______ _______ _______ _____ _____    ______ ____
ROOT
ATOM      1  C   UNL     1       2.963   5.999  18.857  0.00  0.00    +0.000 A 
ATOM      2  C   UNL     1       2.905   7.321  18.312  0.00  0.00    +0.000 A 
ATOM      3  C   UNL     1       2.151   8.348  18.855  0.00  0.00    +0.000 A 
ATOM      4  C   UNL     1       1.416   8.139  20.009  0.00  0.00    +0.000 A 
ATOM      5  C   UNL     1       1.436   6.847  20.568  0.00  0.00    +0.000 A 
ATOM      6  C   UNL     1       2.197   5.758  20.016  0.00  0.00    +0.000 A 
ENDROOT
BRANCH   1  10
ATOM      7  C   UNL     1       5.558   3.964  16.232  0.00  0.00    +0.000 A 
ATOM      8  N   UNL     1       4.224   3.817  16.091  0.00  0.00    +0.000 NA
ATOM      9  C   UNL     1       3.451   4.373  17.041  0.00  0.00    +0.000 A 
ATOM     10  C   UNL     1       3.915   5.121  18.137  0.00  0.00    +0.000 A 
ATOM     11  C   UNL     1       5.300   5.102  18.338  0.00  0.00    +0.000 A 
ATOM     12  C   UNL     1       6.135   4.500  17.382  0.00  0.00    +0.000 A 
ATOM     13 CL   UNL     1       7.838   4.533  17.621  0.00  0.00    +0.000 Cl
BRANCH   7  14
ATOM     14  O   UNL     1       6.336   3.630  15.138  0.00  0.00    +0.000 OA
BRANCH  14  15
ATOM     15  C   UNL     1       5.780   4.233  13.953  0.00  0.00    +0.000 C 
BRANCH  15  17
ATOM     16  C   UNL     1       4.736   3.331  11.867  0.00  0.00    +0.000 C 
ATOM     17  C   UNL     1       6.026   3.391  12.694  0.00  0.00    +0.000 C 
ATOM     18  C   UNL     1       7.172   3.933  11.844  0.00  0.00    +0.000 C 
ENDBRANCH  15  17
ENDBRANCH  14  15
ENDBRANCH   7  14
ENDBRANCH   1  10
BRANCH   6  19
ATOM     19  C   UNL     1       2.141   4.538  20.897  0.00  0.00    +0.000 C 
ATOM     20  O   UNL     1       2.649   4.701  22.015  0.00  0.00    +0.000 OA
ATOM     21  N   UNL     1       1.505   3.329  20.597  0.00  0.00    +0.000 N 
ATOM     22  C   UNL     1       0.853   2.924  19.367  0.00  0.00    +0.000 C 
ATOM     23  C   UNL     1       1.296   2.391  21.702  0.00  0.00    +0.000 C 
ENDBRANCH   6  19
BRANCH   4  24
ATOM     24  C   UNL     1       0.727   9.340  20.564  0.00  0.00    +0.000 C 
ATOM     25  O   UNL     1       0.021   9.230  21.562  0.00  0.00    +0.000 OA
ATOM     26  N   UNL     1       0.856  10.545  19.878  0.00  0.00    +0.000 N 
ATOM     27  H   UNL     1       1.372  10.661  19.014  0.00  0.00    +0.000 HD
BRANCH  26  28
ATOM     28  S   UNL     1       0.193  11.970  20.427  0.00  0.00    +0.000 S 
ATOM     29  C   UNL     1       0.664  13.155  19.165  0.00  0.00    +0.000 C 
ATOM     30  O   UNL     1      -1.239  11.843  20.464  0.00  0.00    +0.000 OA
ATOM     31  O   UNL     1       0.946  12.287  21.620  0.00  0.00    +0.000 OA
ENDBRANCH  26  28
ENDBRANCH   4  24
TORSDOF 7
ENDMDL
MODEL 2
REMARK VINA RESULT:      -7.2      1.136      1.183
REMARK  Name = 
REMARK  12 active torsions:
REMARK  status: ('A' for Active; 'I' for Inactive)
REMARK    1  A    between atoms: C_1  and  C_2
REMARK    2  A    between atoms: C_2  and  C_3
REMARK    3  A    between atoms: C_2  and  C_4
REMARK    4  A    between atoms: C_4  and  O_5
REMARK    5  A    between atoms: O_5  and  C_6
REMARK    6  A    between atoms: C_9  and  C_10
REMARK    7  A    between atoms: C_13  and  C_14
REMARK    8  A    between atoms: N_16  and  S_17
REMARK    9  A    between atoms: S_17  and  C_18
REMARK   10  A    between atoms: C_22  and  C_23
REMARK   11  A    between atoms: N_25  and  C_26
REMARK   12  A    between atoms: N_25  and  C_27
REMARK                            x       y       z     vdW  Elec       q    Type
REMARK                         _______ _______ _______ _____ _____    ______ ____
ROOT
ATOM      1  C   UNL     1       3.019   6.610  18.394  0.00  0.00    +0.000 A 
ATOM      2  C   UNL     1       2.969   7.900  17.779  0.00  0.00    +0.000 A 
ATOM      3  C   UNL     1       2.156   8.934  18.216  0.00  0.00    +0.000 A 
ATOM      4  C   UNL     1       1.349   8.763  19.328  0.00  0.00    +0.000 A 
ATOM      5  C   UNL     1       1.359   7.502  19.952  0.00  0.00    +0.000 A 
ATOM      6  C   UNL     1       2.181   6.407  19.510  0.00  0.00    +0.000 A 
ENDROOT
BRANCH   1  10
ATOM      7  C   UNL     1       5.522   4.173  16.036  0.00  0.00    +0.000 A 
ATOM      8  N   UNL     1       4.333   3.692  16.455  0.00  0.00    +0.000 NA
ATOM      9  C   UNL     1       3.643   4.457  17.319  0.00  0.00    +0.000 A 
ATOM     10  C   UNL     1       4.038   5.722  17.786  0.00  0.00    +0.000 A 
ATOM     11  C   UNL     1       5.346   6.103  17.465  0.00  0.00    +0.000 A 
ATOM     12  C   UNL     1       6.108   5.310  16.591  0.00  0.00    +0.000 A 
ATOM     13 CL   UNL     1       7.695   5.821  16.166  0.00  0.00    +0.000 Cl
BRANCH   7  14
ATOM     14  O   UNL     1       6.106   3.527  14.960  0.00  0.00    +0.000 OA
BRANCH  14  15
ATOM     15  C   UNL     1       5.678   4.155  13.736  0.00  0.00    +0.000 C 
BRANCH  15  17
ATOM     16  C   UNL     1       4.655   3.205  11.661  0.00  0.00    +0.000 C 
ATOM     17  C   UNL     1       5.933   3.276  12.504  0.00  0.00    +0.000 C 
ATOM     18  C   UNL     1       7.097   3.783  11.656  0.00  0.00    +0.000 C 
ENDBRANCH  15  17
ENDBRANCH  14  15
ENDBRANCH   7  14
ENDBRANCH   1  10
BRANCH   6  19
ATOM     19  C   UNL     1       2.092   5.232  20.448  0.00  0.00    +0.000 C 
ATOM     20  O   UNL     1       2.506   5.468  21.591  0.00  0.00    +0.000 OA
ATOM     21  N   UNL     1       1.518   3.988  20.163  0.00  0.00    +0.000 N 
ATOM     22  C   UNL     1       0.977   3.501  18.910  0.00  0.00    +0.000 C 
ATOM     23  C   UNL     1       1.251   3.100  21.297  0.00  0.00    +0.000 C 
ENDBRANCH   6  19
BRANCH   4  24
ATOM     24  C   UNL     1       0.596   9.972  19.772  0.00  0.00    +0.000 C 
ATOM     25  O   UNL     1       0.234  10.802  18.944  0.00  0.00    +0.000 OA
ATOM     26  N   UNL     1       0.393  10.152  21.138  0.00  0.00    +0.000 N 
ATOM     27  H   UNL     1       0.737   9.527  21.856  0.00  0.00    +0.000 HD
BRANCH  26  28
ATOM     28  S   UNL     1      -0.486  11.423  21.759  0.00  0.00    +0.000 S 
ATOM     29  C   UNL     1       0.549  12.847  21.410  0.00  0.00    +0.000 C 
ATOM     30  O   UNL     1      -1.727  11.537  21.042  0.00  0.00    +0.000 OA
ATOM     31  O   UNL     1      -0.466  11.215  23.190  0.00  0.00    +0.000 OA
ENDBRANCH  26  28
ENDBRANCH   4  24
TORSDOF 7
ENDMDL
MODEL 3
REMARK VINA RESULT:      -7.1      1.138      1.600
REMARK  Name = 
REMARK  12 active torsions:
REMARK  status: ('A' for Active; 'I' for Inactive)
REMARK    1  A    between atoms: C_1  and  C_2
REMARK    2  A    between atoms: C_2  and  C_3
REMARK    3  A    between atoms: C_2  and  C_4
REMARK    4  A    between atoms: C_4  and  O_5
REMARK    5  A    between atoms: O_5  and  C_6
REMARK    6  A    between atoms: C_9  and  C_10
REMARK    7  A    between atoms: C_13  and  C_14
REMARK    8  A    between atoms: N_16  and  S_17
REMARK    9  A    between atoms: S_17  and  C_18
REMARK   10  A    between atoms: C_22  and  C_23
REMARK   11  A    between atoms: N_25  and  C_26
REMARK   12  A    between atoms: N_25  and  C_27
REMARK                            x       y       z     vdW  Elec       q    Type
REMARK                         _______ _______ _______ _____ _____    ______ ____
ROOT
ATOM      1  C   UNL     1       3.165   6.342  18.425  0.00  0.00    +0.000 A 
ATOM      2  C   UNL     1       3.190   7.626  17.796  0.00  0.00    +0.000 A 
ATOM      3  C   UNL     1       2.435   8.709  18.219  0.00  0.00    +0.000 A 
ATOM      4  C   UNL     1       1.615   8.596  19.328  0.00  0.00    +0.000 A 
ATOM      5  C   UNL     1       1.552   7.343  19.966  0.00  0.00    +0.000 A 
ATOM      6  C   UNL     1       2.312   6.199  19.539  0.00  0.00    +0.000 A 
ENDROOT
BRANCH   1  10
ATOM      7  C   UNL     1       5.895   4.088  16.137  0.00  0.00    +0.000 A 
ATOM      8  N   UNL     1       4.577   4.008  15.863  0.00  0.00    +0.000 NA
ATOM      9  C   UNL     1       3.744   4.635  16.713  0.00  0.00    +0.000 A 
ATOM     10  C   UNL     1       4.134   5.392  17.831  0.00  0.00    +0.000 A 
ATOM     11  C   UNL     1       5.488   5.305  18.175  0.00  0.00    +0.000 A 
ATOM     12  C   UNL     1       6.381   4.629  17.327  0.00  0.00    +0.000 A 
ATOM     13 CL   UNL     1       8.050   4.578  17.740  0.00  0.00    +0.000 Cl
BRANCH   7  14
ATOM     14  O   UNL     1       6.761   3.678  15.139  0.00  0.00    +0.000 OA
BRANCH  14  15
ATOM     15  C   UNL     1       6.023   3.479  13.918  0.00  0.00    +0.000 C 
BRANCH  15  17
ATOM     16  C   UNL     1       7.801   5.096  13.225  0.00  0.00    +0.000 C 
ATOM     17  C   UNL     1       6.645   4.219  12.727  0.00  0.00    +0.000 C 
ATOM     18  C   UNL     1       7.136   3.268  11.640  0.00  0.00    +0.000 C 
ENDBRANCH  15  17
ENDBRANCH  14  15
ENDBRANCH   7  14
ENDBRANCH   1  10
BRANCH   6  19
ATOM     19  C   UNL     1       2.153   5.040  20.488  0.00  0.00    +0.000 C 
ATOM     20  O   UNL     1       2.473   5.299  21.656  0.00  0.00    +0.000 OA
ATOM     21  N   UNL     1       1.609   3.788  20.182  0.00  0.00    +0.000 N 
ATOM     22  C   UNL     1       1.173   3.275  18.898  0.00  0.00    +0.000 C 
ATOM     23  C   UNL     1       1.256   2.920  21.307  0.00  0.00    +0.000 C 
ENDBRANCH   6  19
BRANCH   4  24
ATOM     24  C   UNL     1       0.930   9.850  19.757  0.00  0.00    +0.000 C 
ATOM     25  O   UNL     1       0.875  10.806  18.989  0.00  0.00    +0.000 OA
ATOM     26  N   UNL     1       0.437   9.915  21.057  0.00  0.00    +0.000 N 
ATOM     27  H   UNL     1       0.525   9.175  21.742  0.00  0.00    +0.000 HD
BRANCH  26  28
ATOM     28  S   UNL     1      -0.404  11.231  21.637  0.00  0.00    +0.000 S 
ATOM     29  C   UNL     1      -1.098  10.628  23.178  0.00  0.00    +0.000 C 
ATOM     30  O   UNL     1       0.518  12.301  21.906  0.00  0.00    +0.000 OA
ATOM     31  O   UNL     1      -1.498  11.403  20.707  0.00  0.00    +0.000 OA
ENDBRANCH  26  28
ENDBRANCH   4  24
TORSDOF 7
ENDMDL
MODEL 4
REMARK VINA RESULT:      -7.1      3.454      8.687
REMARK  Name = 
REMARK  12 active torsions:
REMARK  status: ('A' for Active; 'I' for Inactive)
REMARK    1  A    between atoms: C_1  and  C_2
REMARK    2  A    between atoms: C_2  and  C_3
REMARK    3  A    between atoms: C_2  and  C_4
REMARK    4  A    between atoms: C_4  and  O_5
REMARK    5  A    between atoms: O_5  and  C_6
REMARK    6  A    between atoms: C_9  and  C_10
REMARK    7  A    between atoms: C_13  and  C_14
REMARK    8  A    between atoms: N_16  and  S_17
REMARK    9  A    between atoms: S_17  and  C_18
REMARK   10  A    between atoms: C_22  and  C_23
REMARK   11  A    between atoms: N_25  and  C_26
REMARK   12  A    between atoms: N_25  and  C_27
REMARK                            x       y       z     vdW  Elec       q    Type
REMARK                         _______ _______ _______ _____ _____    ______ ____
ROOT
ATOM      1  C   UNL     1       3.348   6.671  17.754  0.00  0.00    +0.000 A 
ATOM      2  C   UNL     1       4.414   7.196  16.958  0.00  0.00    +0.000 A 
ATOM      3  C   UNL     1       5.182   6.432  16.094  0.00  0.00    +0.000 A 
ATOM      4  C   UNL     1       4.920   5.082  15.938  0.00  0.00    +0.000 A 
ATOM      5  C   UNL     1       3.888   4.524  16.715  0.00  0.00    +0.000 A 
ATOM      6  C   UNL     1       3.086   5.291  17.631  0.00  0.00    +0.000 A 
ENDROOT
BRANCH   1  10
ATOM      7  C   UNL     1       0.720   9.455  19.516  0.00  0.00    +0.000 A 
ATOM      8  N   UNL     1       1.226   9.706  18.291  0.00  0.00    +0.000 NA
ATOM      9  C   UNL     1       2.166   8.856  17.840  0.00  0.00    +0.000 A 
ATOM     10  C   UNL     1       2.632   7.718  18.520  0.00  0.00    +0.000 A 
ATOM     11  C   UNL     1       2.210   7.593  19.848  0.00  0.00    +0.000 A 
ATOM     12  C   UNL     1       1.253   8.484  20.362  0.00  0.00    +0.000 A 
ATOM     13 CL   UNL     1       0.708   8.284  21.982  0.00  0.00    +0.000 Cl
BRANCH   7  14
ATOM     14  O   UNL     1      -0.419  10.158  19.870  0.00  0.00    +0.000 OA
BRANCH  14  15
ATOM     15  C   UNL     1      -0.084  11.547  20.056  0.00  0.00    +0.000 C 
BRANCH  15  17
ATOM     16  C   UNL     1      -0.350  13.295  18.287  0.00  0.00    +0.000 C 
ATOM     17  C   UNL     1      -1.080  12.489  19.368  0.00  0.00    +0.000 C 
ATOM     18  C   UNL     1      -2.264  11.743  18.759  0.00  0.00    +0.000 C 
ENDBRANCH  15  17
ENDBRANCH  14  15
ENDBRANCH   7  14
ENDBRANCH   1  10
BRANCH   6  19
ATOM     19  C   UNL     1       1.971   4.465  18.218  0.00  0.00    +0.000 C 
ATOM     20  O   UNL     1       1.072   4.189  17.412  0.00  0.00    +0.000 OA
ATOM     21  N   UNL     1       1.926   3.935  19.511  0.00  0.00    +0.000 N 
ATOM     22  C   UNL     1       2.858   4.124  20.605  0.00  0.00    +0.000 C 
ATOM     23  C   UNL     1       0.915   2.909  19.779  0.00  0.00    +0.000 C 
ENDBRANCH   6  19
BRANCH   4  24
ATOM     24  C   UNL     1       5.738   4.380  14.905  0.00  0.00    +0.000 C 
ATOM     25  O   UNL     1       6.868   3.991  15.185  0.00  0.00    +0.000 OA
ATOM     26  N   UNL     1       5.207   4.255  13.624  0.00  0.00    +0.000 N 
ATOM     27  H   UNL     1       4.310   4.624  13.336  0.00  0.00    +0.000 HD
BRANCH  26  28
ATOM     28  S   UNL     1       5.989   3.438  12.401  0.00  0.00    +0.000 S 
ATOM     29  C   UNL     1       4.734   3.310  11.125  0.00  0.00    +0.000 C 
ATOM     30  O   UNL     1       7.088   4.234  11.925  0.00  0.00    +0.000 OA
ATOM     31  O   UNL     1       6.204   2.109  12.930  0.00  0.00    +0.000 OA
ENDBRANCH  26  28
ENDBRANCH   4  24
TORSDOF 7
ENDMDL
MODEL 5
REMARK VINA RESULT:      -7.0      3.573      8.917
REMARK  Name = 
REMARK  12 active torsions:
REMARK  status: ('A' for Active; 'I' for Inactive)
REMARK    1  A    between atoms: C_1  and  C_2
REMARK    2  A    between atoms: C_2  and  C_3
REMARK    3  A    between atoms: C_2  and  C_4
REMARK    4  A    between atoms: C_4  and  O_5
REMARK    5  A    between atoms: O_5  and  C_6
REMARK    6  A    between atoms: C_9  and  C_10
REMARK    7  A    between atoms: C_13  and  C_14
REMARK    8  A    between atoms: N_16  and  S_17
REMARK    9  A    between atoms: S_17  and  C_18
REMARK   10  A    between atoms: C_22  and  C_23
REMARK   11  A    between atoms: N_25  and  C_26
REMARK   12  A    between atoms: N_25  and  C_27
REMARK                            x       y       z     vdW  Elec       q    Type
REMARK                         _______ _______ _______ _____ _____    ______ ____
ROOT
ATOM      1  C   UNL     1       3.022   6.611  18.062  0.00  0.00    +0.000 A 
ATOM      2  C   UNL     1       4.064   7.272  17.339  0.00  0.00    +0.000 A 
ATOM      3  C   UNL     1       4.939   6.627  16.480  0.00  0.00    +0.000 A 
ATOM      4  C   UNL     1       4.817   5.267  16.253  0.00  0.00    +0.000 A 
ATOM      5  C   UNL     1       3.812   4.577  16.957  0.00  0.00    +0.000 A 
ATOM      6  C   UNL     1       2.901   5.219  17.867  0.00  0.00    +0.000 A 
ENDROOT
BRANCH   1  10
ATOM      7  C   UNL     1       1.246   9.438  20.634  0.00  0.00    +0.000 A 
ATOM      8  N   UNL     1       1.547   8.211  21.106  0.00  0.00    +0.000 NA
ATOM      9  C   UNL     1       1.978   7.307  20.208  0.00  0.00    +0.000 A 
ATOM     10  C   UNL     1       2.175   7.547  18.837  0.00  0.00    +0.000 A 
ATOM     11  C   UNL     1       1.690   8.772  18.364  0.00  0.00    +0.000 A 
ATOM     12  C   UNL     1       1.201   9.726  19.271  0.00  0.00    +0.000 A 
ATOM     13 CL   UNL     1       0.657  11.246  18.675  0.00  0.00    +0.000 Cl
BRANCH   7  14
ATOM     14  O   UNL     1       1.058  10.434  21.576  0.00  0.00    +0.000 OA
BRANCH  14  15
ATOM     15  C   UNL     1      -0.256  10.305  22.152  0.00  0.00    +0.000 C 
BRANCH  15  17
ATOM     16  C   UNL     1      -2.045  11.709  23.194  0.00  0.00    +0.000 C 
ATOM     17  C   UNL     1      -1.093  11.583  22.000  0.00  0.00    +0.000 C 
ATOM     18  C   UNL     1      -0.229  12.836  21.879  0.00  0.00    +0.000 C 
ENDBRANCH  15  17
ENDBRANCH  14  15
ENDBRANCH   7  14
ENDBRANCH   1  10
BRANCH   6  19
ATOM     19  C   UNL     1       1.848   4.264  18.365  0.00  0.00    +0.000 C 
ATOM     20  O   UNL     1       0.995   3.970  17.517  0.00  0.00    +0.000 OA
ATOM     21  N   UNL     1       1.819   3.644  19.619  0.00  0.00    +0.000 N 
ATOM     22  C   UNL     1       2.707   3.836  20.749  0.00  0.00    +0.000 C 
ATOM     23  C   UNL     1       0.895   2.521  19.788  0.00  0.00    +0.000 C 
ENDBRANCH   6  19
BRANCH   4  24
ATOM     24  C   UNL     1       5.741   4.696  15.231  0.00  0.00    +0.000 C 
ATOM     25  O   UNL     1       6.926   4.534  15.505  0.00  0.00    +0.000 OA
ATOM     26  N   UNL     1       5.232   4.433  13.962  0.00  0.00    +0.000 N 
ATOM     27  H   UNL     1       4.279   4.619  13.676  0.00  0.00    +0.000 HD
BRANCH  26  28
ATOM     28  S   UNL     1       6.142   3.736  12.753  0.00  0.00    +0.000 S 
ATOM     29  C   UNL     1       4.957   3.515  11.424  0.00  0.00    +0.000 C 
ATOM     30  O   UNL     1       7.168   4.656  12.341  0.00  0.00    +0.000 OA
ATOM     31  O   UNL     1       6.475   2.423  13.259  0.00  0.00    +0.000 OA
ENDBRANCH  26  28
ENDBRANCH   4  24
TORSDOF 7
ENDMDL
MODEL 6
REMARK VINA RESULT:      -7.0      1.527      1.645
REMARK  Name = 
REMARK  12 active torsions:
REMARK  status: ('A' for Active; 'I' for Inactive)
REMARK    1  A    between atoms: C_1  and  C_2
REMARK    2  A    between atoms: C_2  and  C_3
REMARK    3  A    between atoms: C_2  and  C_4
REMARK    4  A    between atoms: C_4  and  O_5
REMARK    5  A    between atoms: O_5  and  C_6
REMARK    6  A    between atoms: C_9  and  C_10
REMARK    7  A    between atoms: C_13  and  C_14
REMARK    8  A    between atoms: N_16  and  S_17
REMARK    9  A    between atoms: S_17  and  C_18
REMARK   10  A    between atoms: C_22  and  C_23
REMARK   11  A    between atoms: N_25  and  C_26
REMARK   12  A    between atoms: N_25  and  C_27
REMARK                            x       y       z     vdW  Elec       q    Type
REMARK                         _______ _______ _______ _____ _____    ______ ____
ROOT
ATOM      1  C   UNL     1       2.444   6.631  18.906  0.00  0.00    +0.000 A 
ATOM      2  C   UNL     1       2.269   8.024  18.630  0.00  0.00    +0.000 A 
ATOM      3  C   UNL     1       1.655   8.912  19.499  0.00  0.00    +0.000 A 
ATOM      4  C   UNL     1       1.195   8.478  20.730  0.00  0.00    +0.000 A 
ATOM      5  C   UNL     1       1.336   7.111  21.032  0.00  0.00    +0.000 A 
ATOM      6  C   UNL     1       1.954   6.164  20.143  0.00  0.00    +0.000 A 
ENDROOT
BRANCH   1  10
ATOM      7  C   UNL     1       5.224   4.802  16.319  0.00  0.00    +0.000 A 
ATOM      8  N   UNL     1       5.108   6.146  16.323  0.00  0.00    +0.000 NA
ATOM      9  C   UNL     1       4.110   6.664  17.060  0.00  0.00    +0.000 A 
ATOM     10  C   UNL     1       3.211   5.928  17.851  0.00  0.00    +0.000 A 
ATOM     11  C   UNL     1       3.257   4.539  17.683  0.00  0.00    +0.000 A 
ATOM     12  C   UNL     1       4.266   3.965  16.892  0.00  0.00    +0.000 A 
ATOM     13 CL   UNL     1       4.338   2.253  16.739  0.00  0.00    +0.000 Cl
BRANCH   7  14
ATOM     14  O   UNL     1       6.391   4.282  15.786  0.00  0.00    +0.000 OA
BRANCH  14  15
ATOM     15  C   UNL     1       6.632   4.878  14.496  0.00  0.00    +0.000 C 
BRANCH  15  17
ATOM     16  C   UNL     1       5.046   3.649  13.002  0.00  0.00    +0.000 C 
ATOM     17  C   UNL     1       6.524   3.863  13.350  0.00  0.00    +0.000 C 
ATOM     18  C   UNL     1       7.300   4.298  12.110  0.00  0.00    +0.000 C 
ENDBRANCH  15  17
ENDBRANCH  14  15
ENDBRANCH   7  14
ENDBRANCH   1  10
BRANCH   6  19
ATOM     19  C   UNL     1       2.093   4.808  20.784  0.00  0.00    +0.000 C 
ATOM     20  O   UNL     1       2.812   4.800  21.793  0.00  0.00    +0.000 OA
ATOM     21  N   UNL     1       1.428   3.638  20.400  0.00  0.00    +0.000 N 
ATOM     22  C   UNL     1       0.550   3.421  19.268  0.00  0.00    +0.000 C 
ATOM     23  C   UNL     1       1.458   2.514  21.338  0.00  0.00    +0.000 C 
ENDBRANCH   6  19
BRANCH   4  24
ATOM     24  C   UNL     1       0.649   9.538  21.627  0.00  0.00    +0.000 C 
ATOM     25  O   UNL     1       0.986   9.570  22.806  0.00  0.00    +0.000 OA
ATOM     26  N   UNL     1      -0.292  10.420  21.101  0.00  0.00    +0.000 N 
ATOM     27  H   UNL     1      -0.647  10.382  20.154  0.00  0.00    +0.000 HD
BRANCH  26  28
ATOM     28  S   UNL     1      -0.929  11.685  21.977  0.00  0.00    +0.000 S 
ATOM     29  C   UNL     1      -2.145  12.386  20.860  0.00  0.00    +0.000 C 
ATOM     30  O   UNL     1      -1.585  11.169  23.148  0.00  0.00    +0.000 OA
ATOM     31  O   UNL     1       0.156  12.635  22.086  0.00  0.00    +0.000 OA
ENDBRANCH  26  28
ENDBRANCH   4  24
TORSDOF 7
ENDMDL
MODEL 7
REMARK VINA RESULT:      -7.0      4.310      7.506
REMARK  Name = 
REMARK  12 active torsions:
REMARK  status: ('A' for Active; 'I' for Inactive)
REMARK    1  A    between atoms: C_1  and  C_2
REMARK    2  A    between atoms: C_2  and  C_3
REMARK    3  A    between atoms: C_2  and  C_4
REMARK    4  A    between atoms: C_4  and  O_5
REMARK    5  A    between atoms: O_5  and  C_6
REMARK    6  A    between atoms: C_9  and  C_10
REMARK    7  A    between atoms: C_13  and  C_14
REMARK    8  A    between atoms: N_16  and  S_17
REMARK    9  A    between atoms: S_17  and  C_18
REMARK   10  A    between atoms: C_22  and  C_23
REMARK   11  A    between atoms: N_25  and  C_26
REMARK   12  A    between atoms: N_25  and  C_27
REMARK                            x       y       z     vdW  Elec       q    Type
REMARK                         _______ _______ _______ _____ _____    ______ ____
ROOT
ATOM      1  C   UNL     1      -0.532  10.267  18.812  0.00  0.00    +0.000 A 
ATOM      2  C   UNL     1      -1.623   9.509  18.280  0.00  0.00    +0.000 A 
ATOM      3  C   UNL     1      -2.836  10.062  17.901  0.00  0.00    +0.000 A 
ATOM      4  C   UNL     1      -3.040  11.428  17.999  0.00  0.00    +0.000 A 
ATOM      5  C   UNL     1      -1.995  12.206  18.531  0.00  0.00    +0.000 A 
ATOM      6  C   UNL     1      -0.732  11.656  18.946  0.00  0.00    +0.000 A 
ENDROOT
BRANCH   1  10
ATOM      7  C   UNL     1       2.428   7.363  19.567  0.00  0.00    +0.000 A 
ATOM      8  N   UNL     1       1.699   7.848  20.593  0.00  0.00    +0.000 NA
ATOM      9  C   UNL     1       0.872   8.871  20.316  0.00  0.00    +0.000 A 
ATOM     10  C   UNL     1       0.678   9.445  19.048  0.00  0.00    +0.000 A 
ATOM     11  C   UNL     1       1.574   9.031  18.055  0.00  0.00    +0.000 A 
ATOM     12  C   UNL     1       2.475   7.987  18.321  0.00  0.00    +0.000 A 
ATOM     13 CL   UNL     1       3.533   7.457  17.072  0.00  0.00    +0.000 Cl
BRANCH   7  14
ATOM     14  O   UNL     1       3.074   6.158  19.782  0.00  0.00    +0.000 OA
BRANCH  14  15
ATOM     15  C   UNL     1       2.291   5.089  19.215  0.00  0.00    +0.000 C 
BRANCH  15  17
ATOM     16  C   UNL     1       0.803   3.121  19.626  0.00  0.00    +0.000 C 
ATOM     17  C   UNL     1       1.454   4.351  20.269  0.00  0.00    +0.000 C 
ATOM     18  C   UNL     1       2.279   3.936  21.484  0.00  0.00    +0.000 C 
ENDBRANCH  15  17
ENDBRANCH  14  15
ENDBRANCH   7  14
ENDBRANCH   1  10
BRANCH   6  19
ATOM     19  C   UNL     1       0.241  12.736  19.341  0.00  0.00    +0.000 C 
ATOM     20  O   UNL     1       0.866  13.223  18.389  0.00  0.00    +0.000 OA
ATOM     21  N   UNL     1       0.412  13.267  20.625  0.00  0.00    +0.000 N 
ATOM     22  C   UNL     1      -0.208  12.857  21.869  0.00  0.00    +0.000 C 
ATOM     23  C   UNL     1       1.173  14.513  20.736  0.00  0.00    +0.000 C 
ENDBRANCH   6  19
BRANCH   4  24
ATOM     24  C   UNL     1      -4.341  11.927  17.465  0.00  0.00    +0.000 C 
ATOM     25  O   UNL     1      -4.671  11.655  16.315  0.00  0.00    +0.000 OA
ATOM     26  N   UNL     1      -5.109  12.754  18.281  0.00  0.00    +0.000 N 
ATOM     27  H   UNL     1      -4.838  13.057  19.208  0.00  0.00    +0.000 HD
BRANCH  26  28
ATOM     28  S   UNL     1      -6.608  13.323  17.830  0.00  0.00    +0.000 S 
ATOM     29  C   UNL     1      -7.065  14.398  19.191  0.00  0.00    +0.000 C 
ATOM     30  O   UNL     1      -6.478  14.095  16.623  0.00  0.00    +0.000 OA
ATOM     31  O   UNL     1      -7.470  12.163  17.886  0.00  0.00    +0.000 OA
ENDBRANCH  26  28
ENDBRANCH   4  24
TORSDOF 7
ENDMDL
MODEL 8
REMARK VINA RESULT:      -7.0      4.509      7.626
REMARK  Name = 
REMARK  12 active torsions:
REMARK  status: ('A' for Active; 'I' for Inactive)
REMARK    1  A    between atoms: C_1  and  C_2
REMARK    2  A    between atoms: C_2  and  C_3
REMARK    3  A    between atoms: C_2  and  C_4
REMARK    4  A    between atoms: C_4  and  O_5
REMARK    5  A    between atoms: O_5  and  C_6
REMARK    6  A    between atoms: C_9  and  C_10
REMARK    7  A    between atoms: C_13  and  C_14
REMARK    8  A    between atoms: N_16  and  S_17
REMARK    9  A    between atoms: S_17  and  C_18
REMARK   10  A    between atoms: C_22  and  C_23
REMARK   11  A    between atoms: N_25  and  C_26
REMARK   12  A    between atoms: N_25  and  C_27
REMARK                            x       y       z     vdW  Elec       q    Type
REMARK                         _______ _______ _______ _____ _____    ______ ____
ROOT
ATOM      1  C   UNL     1      -0.723  10.889  20.991  0.00  0.00    +0.000 A 
ATOM      2  C   UNL     1      -0.960  10.949  22.400  0.00  0.00    +0.000 A 
ATOM      3  C   UNL     1      -1.975  11.690  22.983  0.00  0.00    +0.000 A 
ATOM      4  C   UNL     1      -2.855  12.408  22.192  0.00  0.00    +0.000 A 
ATOM      5  C   UNL     1      -2.647  12.386  20.801  0.00  0.00    +0.000 A 
ATOM      6  C   UNL     1      -1.592  11.638  20.171  0.00  0.00    +0.000 A 
ENDROOT
BRANCH   1  10
ATOM      7  C   UNL     1       1.846   7.697  20.004  0.00  0.00    +0.000 A 
ATOM      8  N   UNL     1       1.468   7.871  21.287  0.00  0.00    +0.000 NA
ATOM      9  C   UNL     1       0.767   8.983  21.566  0.00  0.00    +0.000 A 
ATOM     10  C   UNL     1       0.366   9.952  20.630  0.00  0.00    +0.000 A 
ATOM     11  C   UNL     1       0.923   9.823  19.352  0.00  0.00    +0.000 A 
ATOM     12  C   UNL     1       1.689   8.689  19.037  0.00  0.00    +0.000 A 
ATOM     13 CL   UNL     1       2.322   8.522  17.446  0.00  0.00    +0.000 Cl
BRANCH   7  14
ATOM     14  O   UNL     1       2.331   6.446  19.665  0.00  0.00    +0.000 OA
BRANCH  14  15
ATOM     15  C   UNL     1       1.997   5.507  20.706  0.00  0.00    +0.000 C 
BRANCH  15  17
ATOM     16  C   UNL     1       1.538   4.025  18.744  0.00  0.00    +0.000 C 
ATOM     17  C   UNL     1       1.145   4.339  20.192  0.00  0.00    +0.000 C 
ATOM     18  C   UNL     1       1.284   3.089  21.058  0.00  0.00    +0.000 C 
ENDBRANCH  15  17
ENDBRANCH  14  15
ENDBRANCH   7  14
ENDBRANCH   1  10
BRANCH   6  19
ATOM     19  C   UNL     1      -1.697  11.687  18.669  0.00  0.00    +0.000 C 
ATOM     20  O   UNL     1      -0.983  12.552  18.143  0.00  0.00    +0.000 OA
ATOM     21  N   UNL     1      -2.428  10.810  17.861  0.00  0.00    +0.000 N 
ATOM     22  C   UNL     1      -3.318   9.736  18.257  0.00  0.00    +0.000 C 
ATOM     23  C   UNL     1      -2.147  10.833  16.424  0.00  0.00    +0.000 C 
ENDBRANCH   6  19
BRANCH   4  24
ATOM     24  C   UNL     1      -3.972  13.083  22.916  0.00  0.00    +0.000 C 
ATOM     25  O   UNL     1      -3.725  13.809  23.875  0.00  0.00    +0.000 OA
ATOM     26  N   UNL     1      -5.276  12.804  22.516  0.00  0.00    +0.000 N 
ATOM     27  H   UNL     1      -5.523  12.158  21.776  0.00  0.00    +0.000 HD
BRANCH  26  28
ATOM     28  S   UNL     1      -6.605  13.540  23.198  0.00  0.00    +0.000 S 
ATOM     29  C   UNL     1      -7.916  13.187  22.025  0.00  0.00    +0.000 C 
ATOM     30  O   UNL     1      -6.899  12.914  24.459  0.00  0.00    +0.000 OA
ATOM     31  O   UNL     1      -6.320  14.955  23.115  0.00  0.00    +0.000 OA
ENDBRANCH  26  28
ENDBRANCH   4  24
TORSDOF 7
ENDMDL
MODEL 9
REMARK VINA RESULT:      -6.9      3.952      7.412
REMARK  Name = 
REMARK  12 active torsions:
REMARK  status: ('A' for Active; 'I' for Inactive)
REMARK    1  A    between atoms: C_1  and  C_2
REMARK    2  A    between atoms: C_2  and  C_3
REMARK    3  A    between atoms: C_2  and  C_4
REMARK    4  A    between atoms: C_4  and  O_5
REMARK    5  A    between atoms: O_5  and  C_6
REMARK    6  A    between atoms: C_9  and  C_10
REMARK    7  A    between atoms: C_13  and  C_14
REMARK    8  A    between atoms: N_16  and  S_17
REMARK    9  A    between atoms: S_17  and  C_18
REMARK   10  A    between atoms: C_22  and  C_23
REMARK   11  A    between atoms: N_25  and  C_26
REMARK   12  A    between atoms: N_25  and  C_27
REMARK                            x       y       z     vdW  Elec       q    Type
REMARK                         _______ _______ _______ _____ _____    ______ ____
ROOT
ATOM      1  C   UNL     1      -0.747  10.300  19.008  0.00  0.00    +0.000 A 
ATOM      2  C   UNL     1      -1.708   9.638  18.181  0.00  0.00    +0.000 A 
ATOM      3  C   UNL     1      -2.919  10.197  17.804  0.00  0.00    +0.000 A 
ATOM      4  C   UNL     1      -3.249  11.480  18.204  0.00  0.00    +0.000 A 
ATOM      5  C   UNL     1      -2.335  12.159  19.032  0.00  0.00    +0.000 A 
ATOM      6  C   UNL     1      -1.079  11.597  19.451  0.00  0.00    +0.000 A 
ENDROOT
BRANCH   1  10
ATOM      7  C   UNL     1       2.338   7.488  19.588  0.00  0.00    +0.000 A 
ATOM      8  N   UNL     1       1.628   7.920  20.650  0.00  0.00    +0.000 NA
ATOM      9  C   UNL     1       0.756   8.919  20.428  0.00  0.00    +0.000 A 
ATOM     10  C   UNL     1       0.499   9.517  19.182  0.00  0.00    +0.000 A 
ATOM     11  C   UNL     1       1.374   9.161  18.150  0.00  0.00    +0.000 A 
ATOM     12  C   UNL     1       2.321   8.144  18.358  0.00  0.00    +0.000 A 
ATOM     13 CL   UNL     1       3.354   7.684  17.061  0.00  0.00    +0.000 Cl
BRANCH   7  14
ATOM     14  O   UNL     1       3.034   6.302  19.750  0.00  0.00    +0.000 OA
BRANCH  14  15
ATOM     15  C   UNL     1       2.256   5.399  20.560  0.00  0.00    +0.000 C 
BRANCH  15  17
ATOM     16  C   UNL     1       0.772   3.488  19.927  0.00  0.00    +0.000 C 
ATOM     17  C   UNL     1       2.224   3.976  19.987  0.00  0.00    +0.000 C 
ATOM     18  C   UNL     1       2.868   3.886  18.607  0.00  0.00    +0.000 C 
ENDBRANCH  15  17
ENDBRANCH  14  15
ENDBRANCH   7  14
ENDBRANCH   1  10
BRANCH   6  19
ATOM     19  C   UNL     1      -0.249  12.598  20.211  0.00  0.00    +0.000 C 
ATOM     20  O   UNL     1      -0.656  12.820  21.359  0.00  0.00    +0.000 OA
ATOM     21  N   UNL     1       0.940  13.191  19.773  0.00  0.00    +0.000 N 
ATOM     22  C   UNL     1       1.594  13.073  18.484  0.00  0.00    +0.000 C 
ATOM     23  C   UNL     1       1.750  13.885  20.776  0.00  0.00    +0.000 C 
ENDBRANCH   6  19
BRANCH   4  24
ATOM     24  C   UNL     1      -4.526  12.020  17.654  0.00  0.00    +0.000 C 
ATOM     25  O   UNL     1      -4.859  11.745  16.505  0.00  0.00    +0.000 OA
ATOM     26  N   UNL     1      -5.268  12.887  18.453  0.00  0.00    +0.000 N 
ATOM     27  H   UNL     1      -4.993  13.193  19.378  0.00  0.00    +0.000 HD
BRANCH  26  28
ATOM     28  S   UNL     1      -6.741  13.506  17.983  0.00  0.00    +0.000 S 
ATOM     29  C   UNL     1      -7.122  14.687  19.279  0.00  0.00    +0.000 C 
ATOM     30  O   UNL     1      -6.589  14.193  16.729  0.00  0.00    +0.000 OA
ATOM     31  O   UNL     1      -7.662  12.400  18.122  0.00  0.00    +0.000 OA
ENDBRANCH  26  28
ENDBRANCH   4  24
TORSDOF 7
ENDMDL
