MODEL 1
REMARK VINA RESULT:      -6.9      0.000      0.000
REMARK  Name = 
REMARK  7 active torsions:
REMARK  status: ('A' for Active; 'I' for Inactive)
REMARK    1  A    between atoms: C_1  and  O_2
REMARK    2  A    between atoms: O_2  and  C_3
REMARK    3  A    between atoms: C_3  and  C_4
REMARK    4  A    between atoms: C_4  and  N_5
REMARK    5  A    between atoms: C_6  and  C_8
REMARK    6  A    between atoms: C_8  and  C_9
REMARK    7  A    between atoms: C_9  and  C_10
REMARK                            x       y       z     vdW  Elec       q    Type
REMARK                         _______ _______ _______ _____ _____    ______ ____
ROOT
ATOM      1  N   UNL     1       4.778   6.046  17.399  0.00  0.00    +0.000 N 
ATOM      2  C   UNL     1       3.843   5.038  17.544  0.00  0.00    +0.000 C 
ATOM      3  O   UNL     1       4.051   3.859  17.289  0.00  0.00    +0.000 OA
ATOM      4  H   UNL     1       4.426   6.995  17.418  0.00  0.00    +0.000 HD
ENDROOT
BRANCH   1   5
ATOM      5  C   UNL     1       6.104   5.858  16.767  0.00  0.00    +0.000 C 
ATOM      6  C   UNL     1       6.898   4.715  17.421  0.00  0.00    +0.000 C 
ATOM      7  C   UNL     1       7.568   5.321  18.650  0.00  0.00    +0.000 C 
ATOM      8  C   UNL     1       7.743   6.802  18.362  0.00  0.00    +0.000 C 
ATOM      9  C   UNL     1       7.019   7.074  17.045  0.00  0.00    +0.000 C 
BRANCH   5  10
ATOM     10  C   UNL     1       5.976   5.633  15.241  0.00  0.00    +0.000 C 
BRANCH  10  12
ATOM     11  C   UNL     1       6.135   3.749  13.841  0.00  0.00    +0.000 C 
ATOM     12  O   UNL     1       6.794   4.529  14.832  0.00  0.00    +0.000 OA
ENDBRANCH  10  12
ENDBRANCH   5  10
ENDBRANCH   1   5
BRANCH   2  13
ATOM     13  C   UNL     1       2.548   5.477  18.204  0.00  0.00    +0.000 C 
BRANCH  13  14
ATOM     14  C   UNL     1       2.849   6.151  19.540  0.00  0.00    +0.000 C 
BRANCH  14  15
ATOM     15  C   UNL     1       2.117   7.474  19.666  0.00  0.00    +0.000 C 
ATOM     16  O   UNL     1       1.979   8.179  18.676  0.00  0.00    +0.000 OA
ATOM     17  N   UNL     1       1.740   7.762  20.959  0.00  0.00    +0.000 N 
ATOM     18  C   UNL     1       1.079   8.907  21.339  0.00  0.00    +0.000 A 
ATOM     19  N   UNL     1       1.040   9.334  22.586  0.00  0.00    +0.000 NA
ATOM     20  N   UNL     1       0.398  10.553  22.698  0.00  0.00    +0.000 NA
ATOM     21  C   UNL     1      -0.097  10.943  21.543  0.00  0.00    +0.000 A 
ATOM     22  S   UNL     1       0.197   9.873  20.243  0.00  0.00    +0.000 S 
ATOM     23  H   UNL     1       2.155   7.249  21.729  0.00  0.00    +0.000 HD
ENDBRANCH  14  15
ENDBRANCH  13  14
ENDBRANCH   2  13
TORSDOF 6
ENDMDL
MODEL 2
REMARK VINA RESULT:      -6.5      0.954      1.003
REMARK  Name = 
REMARK  7 active torsions:
REMARK  status: ('A' for Active; 'I' for Inactive)
REMARK    1  A    between atoms: C_1  and  O_2
REMARK    2  A    between atoms: O_2  and  C_3
REMARK    3  A    between atoms: C_3  and  C_4
REMARK    4  A    between atoms: C_4  and  N_5
REMARK    5  A    between atoms: C_6  and  C_8
REMARK    6  A    between atoms: C_8  and  C_9
REMARK    7  A    between atoms: C_9  and  C_10
REMARK                            x       y       z     vdW  Elec       q    Type
REMARK                         _______ _______ _______ _____ _____    ______ ____
ROOT
ATOM      1  N   UNL     1       4.839   6.023  17.801  0.00  0.00    +0.000 N 
ATOM      2  C   UNL     1       3.944   5.346  18.610  0.00  0.00    +0.000 C 
ATOM      3  O   UNL     1       4.169   4.263  19.136  0.00  0.00    +0.000 OA
ATOM      4  H   UNL     1       4.462   6.780  17.246  0.00  0.00    +0.000 HD
ENDROOT
BRANCH   1   5
ATOM      5  C   UNL     1       6.126   5.456  17.338  0.00  0.00    +0.000 C 
ATOM      6  C   UNL     1       6.913   4.801  18.484  0.00  0.00    +0.000 C 
ATOM      7  C   UNL     1       7.662   5.934  19.179  0.00  0.00    +0.000 C 
ATOM      8  C   UNL     1       7.869   7.019  18.137  0.00  0.00    +0.000 C 
ATOM      9  C   UNL     1       7.092   6.582  16.898  0.00  0.00    +0.000 C 
BRANCH   5  10
ATOM     10  C   UNL     1       5.917   4.456  16.174  0.00  0.00    +0.000 C 
BRANCH  10  12
ATOM     11  C   UNL     1       6.306   4.069  13.887  0.00  0.00    +0.000 C 
ATOM     12  O   UNL     1       6.539   4.949  14.980  0.00  0.00    +0.000 OA
ENDBRANCH  10  12
ENDBRANCH   5  10
ENDBRANCH   1   5
BRANCH   2  13
ATOM     13  C   UNL     1       2.682   6.125  18.935  0.00  0.00    +0.000 C 
BRANCH  13  14
ATOM     14  C   UNL     1       2.671   7.440  18.159  0.00  0.00    +0.000 C 
BRANCH  14  15
ATOM     15  C   UNL     1       1.831   8.488  18.867  0.00  0.00    +0.000 C 
ATOM     16  O   UNL     1       1.419   9.451  18.236  0.00  0.00    +0.000 OA
ATOM     17  N   UNL     1       1.687   8.244  20.215  0.00  0.00    +0.000 N 
ATOM     18  C   UNL     1       0.987   9.053  21.080  0.00  0.00    +0.000 A 
ATOM     19  N   UNL     1       1.147   9.014  22.388  0.00  0.00    +0.000 NA
ATOM     20  N   UNL     1       0.403   9.986  23.032  0.00  0.00    +0.000 NA
ATOM     21  C   UNL     1      -0.352  10.651  22.185  0.00  0.00    +0.000 A 
ATOM     22  S   UNL     1      -0.199  10.161  20.555  0.00  0.00    +0.000 S 
ATOM     23  H   UNL     1       2.303   7.582  20.674  0.00  0.00    +0.000 HD
ENDBRANCH  14  15
ENDBRANCH  13  14
ENDBRANCH   2  13
TORSDOF 6
ENDMDL
MODEL 3
REMARK VINA RESULT:      -6.5      4.307      7.826
REMARK  Name = 
REMARK  7 active torsions:
REMARK  status: ('A' for Active; 'I' for Inactive)
REMARK    1  A    between atoms: C_1  and  O_2
REMARK    2  A    between atoms: O_2  and  C_3
REMARK    3  A    between atoms: C_3  and  C_4
REMARK    4  A    between atoms: C_4  and  N_5
REMARK    5  A    between atoms: C_6  and  C_8
REMARK    6  A    between atoms: C_8  and  C_9
REMARK    7  A    between atoms: C_9  and  C_10
REMARK                            x       y       z     vdW  Elec       q    Type
REMARK                         _______ _______ _______ _____ _____    ______ ____
ROOT
ATOM      1  N   UNL     1       4.791   4.169  19.442  0.00  0.00    +0.000 N 
ATOM      2  C   UNL     1       5.278   5.387  19.003  0.00  0.00    +0.000 C 
ATOM      3  O   UNL     1       4.576   6.333  18.670  0.00  0.00    +0.000 OA
ATOM      4  H   UNL     1       5.449   3.401  19.467  0.00  0.00    +0.000 HD
ENDROOT
BRANCH   1   5
ATOM      5  C   UNL     1       3.358   3.795  19.417  0.00  0.00    +0.000 C 
ATOM      6  C   UNL     1       3.161   2.275  19.291  0.00  0.00    +0.000 C 
ATOM      7  C   UNL     1       3.270   1.962  17.802  0.00  0.00    +0.000 C 
ATOM      8  C   UNL     1       2.859   3.223  17.063  0.00  0.00    +0.000 C 
ATOM      9  C   UNL     1       2.682   4.307  18.124  0.00  0.00    +0.000 C 
BRANCH   5  10
ATOM     10  C   UNL     1       2.609   4.344  20.656  0.00  0.00    +0.000 C 
BRANCH  10  12
ATOM     11  C   UNL     1       1.282   2.744  21.758  0.00  0.00    +0.000 C 
ATOM     12  O   UNL     1       2.567   3.352  21.690  0.00  0.00    +0.000 OA
ENDBRANCH  10  12
ENDBRANCH   5  10
ENDBRANCH   1   5
BRANCH   2  13
ATOM     13  C   UNL     1       6.786   5.531  19.108  0.00  0.00    +0.000 C 
BRANCH  13  14
ATOM     14  C   UNL     1       7.347   6.075  17.797  0.00  0.00    +0.000 C 
BRANCH  14  15
ATOM     15  C   UNL     1       7.000   5.165  16.632  0.00  0.00    +0.000 C 
ATOM     16  O   UNL     1       6.533   4.058  16.855  0.00  0.00    +0.000 OA
ATOM     17  N   UNL     1       7.336   5.703  15.409  0.00  0.00    +0.000 N 
ATOM     18  C   UNL     1       7.140   5.071  14.203  0.00  0.00    +0.000 A 
ATOM     19  N   UNL     1       7.770   5.421  13.098  0.00  0.00    +0.000 NA
ATOM     20  N   UNL     1       7.477   4.577  12.044  0.00  0.00    +0.000 NA
ATOM     21  C   UNL     1       6.570   3.686  12.380  0.00  0.00    +0.000 A 
ATOM     22  S   UNL     1       6.026   3.796  13.996  0.00  0.00    +0.000 S 
ATOM     23  H   UNL     1       7.971   6.492  15.364  0.00  0.00    +0.000 HD
ENDBRANCH  14  15
ENDBRANCH  13  14
ENDBRANCH   2  13
TORSDOF 6
ENDMDL
MODEL 4
REMARK VINA RESULT:      -6.5      5.332      7.157
REMARK  Name = 
REMARK  7 active torsions:
REMARK  status: ('A' for Active; 'I' for Inactive)
REMARK    1  A    between atoms: C_1  and  O_2
REMARK    2  A    between atoms: O_2  and  C_3
REMARK    3  A    between atoms: C_3  and  C_4
REMARK    4  A    between atoms: C_4  and  N_5
REMARK    5  A    between atoms: C_6  and  C_8
REMARK    6  A    between atoms: C_8  and  C_9
REMARK    7  A    between atoms: C_9  and  C_10
REMARK                            x       y       z     vdW  Elec       q    Type
REMARK                         _______ _______ _______ _____ _____    ______ ____
ROOT
ATOM      1  N   UNL     1       6.617   6.201  18.437  0.00  0.00    +0.000 N 
ATOM      2  C   UNL     1       7.516   6.934  17.683  0.00  0.00    +0.000 C 
ATOM      3  O   UNL     1       7.550   6.938  16.459  0.00  0.00    +0.000 OA
ATOM      4  H   UNL     1       6.832   6.097  19.420  0.00  0.00    +0.000 HD
ENDROOT
BRANCH   1   5
ATOM      5  C   UNL     1       5.681   5.205  17.868  0.00  0.00    +0.000 C 
ATOM      6  C   UNL     1       4.517   5.871  17.116  0.00  0.00    +0.000 C 
ATOM      7  C   UNL     1       3.486   6.234  18.180  0.00  0.00    +0.000 C 
ATOM      8  C   UNL     1       3.683   5.258  19.326  0.00  0.00    +0.000 C 
ATOM      9  C   UNL     1       4.936   4.450  18.994  0.00  0.00    +0.000 C 
BRANCH   5  10
ATOM     10  C   UNL     1       6.417   4.194  16.954  0.00  0.00    +0.000 C 
BRANCH  10  12
ATOM     11  C   UNL     1       6.305   3.889  14.624  0.00  0.00    +0.000 C 
ATOM     12  O   UNL     1       5.582   3.826  15.849  0.00  0.00    +0.000 OA
ENDBRANCH  10  12
ENDBRANCH   5  10
ENDBRANCH   1   5
BRANCH   2  13
ATOM     13  C   UNL     1       8.387   7.878  18.493  0.00  0.00    +0.000 C 
BRANCH  13  14
ATOM     14  C   UNL     1       8.274   9.294  17.935  0.00  0.00    +0.000 C 
BRANCH  14  15
ATOM     15  C   UNL     1       9.144  10.263  18.715  0.00  0.00    +0.000 C 
ATOM     16  O   UNL     1       9.262  10.122  19.923  0.00  0.00    +0.000 OA
ATOM     17  N   UNL     1       9.664  11.271  17.933  0.00  0.00    +0.000 N 
ATOM     18  C   UNL     1      10.469  12.282  18.404  0.00  0.00    +0.000 A 
ATOM     19  N   UNL     1      10.664  13.409  17.748  0.00  0.00    +0.000 NA
ATOM     20  N   UNL     1      11.433  14.304  18.469  0.00  0.00    +0.000 NA
ATOM     21  C   UNL     1      11.858  13.773  19.595  0.00  0.00    +0.000 A 
ATOM     22  S   UNL     1      11.340  12.166  19.866  0.00  0.00    +0.000 S 
ATOM     23  H   UNL     1       9.271  11.448  17.015  0.00  0.00    +0.000 HD
ENDBRANCH  14  15
ENDBRANCH  13  14
ENDBRANCH   2  13
TORSDOF 6
ENDMDL
MODEL 5
REMARK VINA RESULT:      -6.5      5.752      8.818
REMARK  Name = 
REMARK  7 active torsions:
REMARK  status: ('A' for Active; 'I' for Inactive)
REMARK    1  A    between atoms: C_1  and  O_2
REMARK    2  A    between atoms: O_2  and  C_3
REMARK    3  A    between atoms: C_3  and  C_4
REMARK    4  A    between atoms: C_4  and  N_5
REMARK    5  A    between atoms: C_6  and  C_8
REMARK    6  A    between atoms: C_8  and  C_9
REMARK    7  A    between atoms: C_9  and  C_10
REMARK                            x       y       z     vdW  Elec       q    Type
REMARK                         _______ _______ _______ _____ _____    ______ ____
ROOT
ATOM      1  N   UNL     1       8.989  11.349  18.008  0.00  0.00    +0.000 N 
ATOM      2  C   UNL     1       8.906  10.120  18.636  0.00  0.00    +0.000 C 
ATOM      3  O   UNL     1       9.278   9.902  19.782  0.00  0.00    +0.000 OA
ATOM      4  H   UNL     1       8.868  11.352  17.003  0.00  0.00    +0.000 HD
ENDROOT
BRANCH   1   5
ATOM      5  C   UNL     1       9.683  12.525  18.582  0.00  0.00    +0.000 C 
ATOM      6  C   UNL     1       9.955  13.607  17.525  0.00  0.00    +0.000 C 
ATOM      7  C   UNL     1      11.243  13.190  16.822  0.00  0.00    +0.000 C 
ATOM      8  C   UNL     1      12.029  12.355  17.818  0.00  0.00    +0.000 C 
ATOM      9  C   UNL     1      11.116  12.151  19.025  0.00  0.00    +0.000 C 
BRANCH   5  10
ATOM     10  C   UNL     1       8.898  13.114  19.780  0.00  0.00    +0.000 C 
BRANCH  10  12
ATOM     11  C   UNL     1       9.625  14.881  21.152  0.00  0.00    +0.000 C 
ATOM     12  O   UNL     1       9.119  14.528  19.870  0.00  0.00    +0.000 OA
ENDBRANCH  10  12
ENDBRANCH   5  10
ENDBRANCH   1   5
BRANCH   2  13
ATOM     13  C   UNL     1       8.163   9.061  17.841  0.00  0.00    +0.000 C 
BRANCH  13  14
ATOM     14  C   UNL     1       8.295   7.706  18.532  0.00  0.00    +0.000 C 
BRANCH  14  15
ATOM     15  C   UNL     1       7.389   6.671  17.890  0.00  0.00    +0.000 C 
ATOM     16  O   UNL     1       6.616   6.034  18.591  0.00  0.00    +0.000 OA
ATOM     17  N   UNL     1       7.609   6.525  16.538  0.00  0.00    +0.000 N 
ATOM     18  C   UNL     1       6.930   5.642  15.731  0.00  0.00    +0.000 A 
ATOM     19  N   UNL     1       7.376   5.259  14.551  0.00  0.00    +0.000 NA
ATOM     20  N   UNL     1       6.566   4.296  13.977  0.00  0.00    +0.000 NA
ATOM     21  C   UNL     1       5.500   4.066  14.711  0.00  0.00    +0.000 A 
ATOM     22  S   UNL     1       5.414   4.982  16.152  0.00  0.00    +0.000 S 
ATOM     23  H   UNL     1       8.459   6.894  16.125  0.00  0.00    +0.000 HD
ENDBRANCH  14  15
ENDBRANCH  13  14
ENDBRANCH   2  13
TORSDOF 6
ENDMDL
MODEL 6
REMARK VINA RESULT:      -6.5      1.409      2.511
REMARK  Name = 
REMARK  7 active torsions:
REMARK  status: ('A' for Active; 'I' for Inactive)
REMARK    1  A    between atoms: C_1  and  O_2
REMARK    2  A    between atoms: O_2  and  C_3
REMARK    3  A    between atoms: C_3  and  C_4
REMARK    4  A    between atoms: C_4  and  N_5
REMARK    5  A    between atoms: C_6  and  C_8
REMARK    6  A    between atoms: C_8  and  C_9
REMARK    7  A    between atoms: C_9  and  C_10
REMARK                            x       y       z     vdW  Elec       q    Type
REMARK                         _______ _______ _______ _____ _____    ______ ____
ROOT
ATOM      1  N   UNL     1       4.255   5.418  17.285  0.00  0.00    +0.000 N 
ATOM      2  C   UNL     1       4.186   4.953  18.586  0.00  0.00    +0.000 C 
ATOM      3  O   UNL     1       5.130   4.933  19.365  0.00  0.00    +0.000 OA
ATOM      4  H   UNL     1       3.485   5.173  16.676  0.00  0.00    +0.000 HD
ENDROOT
BRANCH   1   5
ATOM      5  C   UNL     1       5.517   5.808  16.613  0.00  0.00    +0.000 C 
ATOM      6  C   UNL     1       5.354   5.893  15.087  0.00  0.00    +0.000 C 
ATOM      7  C   UNL     1       5.517   4.468  14.569  0.00  0.00    +0.000 C 
ATOM      8  C   UNL     1       6.387   3.737  15.577  0.00  0.00    +0.000 C 
ATOM      9  C   UNL     1       6.577   4.691  16.754  0.00  0.00    +0.000 C 
BRANCH   5  10
ATOM     10  C   UNL     1       6.072   7.137  17.181  0.00  0.00    +0.000 C 
BRANCH  10  12
ATOM     11  C   UNL     1       8.054   8.234  17.817  0.00  0.00    +0.000 C 
ATOM     12  O   UNL     1       7.441   6.973  17.576  0.00  0.00    +0.000 OA
ENDBRANCH  10  12
ENDBRANCH   5  10
ENDBRANCH   1   5
BRANCH   2  13
ATOM     13  C   UNL     1       2.784   4.597  19.048  0.00  0.00    +0.000 C 
BRANCH  13  14
ATOM     14  C   UNL     1       2.445   5.370  20.320  0.00  0.00    +0.000 C 
BRANCH  14  15
ATOM     15  C   UNL     1       2.085   6.811  20.007  0.00  0.00    +0.000 C 
ATOM     16  O   UNL     1       2.248   7.237  18.873  0.00  0.00    +0.000 OA
ATOM     17  N   UNL     1       1.662   7.514  21.114  0.00  0.00    +0.000 N 
ATOM     18  C   UNL     1       1.294   8.839  21.098  0.00  0.00    +0.000 A 
ATOM     19  N   UNL     1       1.237   9.582  22.186  0.00  0.00    +0.000 NA
ATOM     20  N   UNL     1       0.936  10.901  21.900  0.00  0.00    +0.000 NA
ATOM     21  C   UNL     1       0.691  11.070  20.619  0.00  0.00    +0.000 A 
ATOM     22  S   UNL     1       0.827   9.653  19.673  0.00  0.00    +0.000 S 
ATOM     23  H   UNL     1       1.839   7.145  22.041  0.00  0.00    +0.000 HD
ENDBRANCH  14  15
ENDBRANCH  13  14
ENDBRANCH   2  13
TORSDOF 6
ENDMDL
MODEL 7
REMARK VINA RESULT:      -6.5      3.656      7.829
REMARK  Name = 
REMARK  7 active torsions:
REMARK  status: ('A' for Active; 'I' for Inactive)
REMARK    1  A    between atoms: C_1  and  O_2
REMARK    2  A    between atoms: O_2  and  C_3
REMARK    3  A    between atoms: C_3  and  C_4
REMARK    4  A    between atoms: C_4  and  N_5
REMARK    5  A    between atoms: C_6  and  C_8
REMARK    6  A    between atoms: C_8  and  C_9
REMARK    7  A    between atoms: C_9  and  C_10
REMARK                            x       y       z     vdW  Elec       q    Type
REMARK                         _______ _______ _______ _____ _____    ______ ____
ROOT
ATOM      1  N   UNL     1       4.188   4.699  19.610  0.00  0.00    +0.000 N 
ATOM      2  C   UNL     1       4.974   5.547  18.852  0.00  0.00    +0.000 C 
ATOM      3  O   UNL     1       4.538   6.433  18.128  0.00  0.00    +0.000 OA
ATOM      4  H   UNL     1       4.640   3.873  19.980  0.00  0.00    +0.000 HD
ENDROOT
BRANCH   1   5
ATOM      5  C   UNL     1       2.710   4.647  19.526  0.00  0.00    +0.000 C 
ATOM      6  C   UNL     1       2.169   3.226  19.751  0.00  0.00    +0.000 C 
ATOM      7  C   UNL     1       2.272   2.521  18.402  0.00  0.00    +0.000 C 
ATOM      8  C   UNL     1       2.202   3.606  17.341  0.00  0.00    +0.000 C 
ATOM      9  C   UNL     1       2.234   4.939  18.083  0.00  0.00    +0.000 C 
BRANCH   5  10
ATOM     10  C   UNL     1       2.052   5.646  20.510  0.00  0.00    +0.000 C 
BRANCH  10  12
ATOM     11  C   UNL     1       1.518   7.909  20.870  0.00  0.00    +0.000 C 
ATOM     12  O   UNL     1       2.039   6.963  19.943  0.00  0.00    +0.000 OA
ENDBRANCH  10  12
ENDBRANCH   5  10
ENDBRANCH   1   5
BRANCH   2  13
ATOM     13  C   UNL     1       6.465   5.403  19.099  0.00  0.00    +0.000 C 
BRANCH  13  14
ATOM     14  C   UNL     1       7.242   5.888  17.877  0.00  0.00    +0.000 C 
BRANCH  14  15
ATOM     15  C   UNL     1       6.949   5.026  16.663  0.00  0.00    +0.000 C 
ATOM     16  O   UNL     1       6.528   3.890  16.822  0.00  0.00    +0.000 OA
ATOM     17  N   UNL     1       7.276   5.640  15.473  0.00  0.00    +0.000 N 
ATOM     18  C   UNL     1       7.123   5.063  14.234  0.00  0.00    +0.000 A 
ATOM     19  N   UNL     1       7.750   5.496  13.158  0.00  0.00    +0.000 NA
ATOM     20  N   UNL     1       7.507   4.695  12.057  0.00  0.00    +0.000 NA
ATOM     21  C   UNL     1       6.635   3.750  12.334  0.00  0.00    +0.000 A 
ATOM     22  S   UNL     1       6.067   3.754  13.947  0.00  0.00    +0.000 S 
ATOM     23  H   UNL     1       7.877   6.457  15.478  0.00  0.00    +0.000 HD
ENDBRANCH  14  15
ENDBRANCH  13  14
ENDBRANCH   2  13
TORSDOF 6
ENDMDL
MODEL 8
REMARK VINA RESULT:      -6.5      5.568      6.944
REMARK  Name = 
REMARK  7 active torsions:
REMARK  status: ('A' for Active; 'I' for Inactive)
REMARK    1  A    between atoms: C_1  and  O_2
REMARK    2  A    between atoms: O_2  and  C_3
REMARK    3  A    between atoms: C_3  and  C_4
REMARK    4  A    between atoms: C_4  and  N_5
REMARK    5  A    between atoms: C_6  and  C_8
REMARK    6  A    between atoms: C_8  and  C_9
REMARK    7  A    between atoms: C_9  and  C_10
REMARK                            x       y       z     vdW  Elec       q    Type
REMARK                         _______ _______ _______ _____ _____    ______ ____
ROOT
ATOM      1  N   UNL     1       6.814   7.405  17.018  0.00  0.00    +0.000 N 
ATOM      2  C   UNL     1       7.777   7.797  17.929  0.00  0.00    +0.000 C 
ATOM      3  O   UNL     1       8.384   7.032  18.668  0.00  0.00    +0.000 OA
ATOM      4  H   UNL     1       6.228   8.136  16.637  0.00  0.00    +0.000 HD
ENDROOT
BRANCH   1   5
ATOM      5  C   UNL     1       6.276   6.027  16.926  0.00  0.00    +0.000 C 
ATOM      6  C   UNL     1       4.796   6.013  16.513  0.00  0.00    +0.000 C 
ATOM      7  C   UNL     1       4.002   6.238  17.796  0.00  0.00    +0.000 C 
ATOM      8  C   UNL     1       4.866   5.726  18.935  0.00  0.00    +0.000 C 
ATOM      9  C   UNL     1       6.219   5.369  18.324  0.00  0.00    +0.000 C 
BRANCH   5  10
ATOM     10  C   UNL     1       7.122   5.154  15.967  0.00  0.00    +0.000 C 
BRANCH  10  12
ATOM     11  C   UNL     1       6.403   4.042  14.022  0.00  0.00    +0.000 C 
ATOM     12  O   UNL     1       6.659   5.308  14.619  0.00  0.00    +0.000 OA
ENDBRANCH  10  12
ENDBRANCH   5  10
ENDBRANCH   1   5
BRANCH   2  13
ATOM     13  C   UNL     1       8.154   9.266  17.846  0.00  0.00    +0.000 C 
BRANCH  13  14
ATOM     14  C   UNL     1       9.059   9.636  19.019  0.00  0.00    +0.000 C 
BRANCH  14  15
ATOM     15  C   UNL     1       9.703  10.994  18.808  0.00  0.00    +0.000 C 
ATOM     16  O   UNL     1      10.876  11.154  19.114  0.00  0.00    +0.000 OA
ATOM     17  N   UNL     1       8.822  11.942  18.338  0.00  0.00    +0.000 N 
ATOM     18  C   UNL     1       9.155  13.252  18.082  0.00  0.00    +0.000 A 
ATOM     19  N   UNL     1       8.259  14.214  17.980  0.00  0.00    +0.000 NA
ATOM     20  N   UNL     1       8.845  15.455  17.815  0.00  0.00    +0.000 NA
ATOM     21  C   UNL     1      10.152  15.358  17.710  0.00  0.00    +0.000 A 
ATOM     22  S   UNL     1      10.761  13.765  17.822  0.00  0.00    +0.000 S 
ATOM     23  H   UNL     1       7.824  11.772  18.394  0.00  0.00    +0.000 HD
ENDBRANCH  14  15
ENDBRANCH  13  14
ENDBRANCH   2  13
TORSDOF 6
ENDMDL
MODEL 9
REMARK VINA RESULT:      -6.4      2.302      3.746
REMARK  Name = 
REMARK  7 active torsions:
REMARK  status: ('A' for Active; 'I' for Inactive)
REMARK    1  A    between atoms: C_1  and  O_2
REMARK    2  A    between atoms: O_2  and  C_3
REMARK    3  A    between atoms: C_3  and  C_4
REMARK    4  A    between atoms: C_4  and  N_5
REMARK    5  A    between atoms: C_6  and  C_8
REMARK    6  A    between atoms: C_8  and  C_9
REMARK    7  A    between atoms: C_9  and  C_10
REMARK                            x       y       z     vdW  Elec       q    Type
REMARK                         _______ _______ _______ _____ _____    ______ ____
ROOT
ATOM      1  N   UNL     1       2.581   4.941  17.886  0.00  0.00    +0.000 N 
ATOM      2  C   UNL     1       2.482   6.138  18.571  0.00  0.00    +0.000 C 
ATOM      3  O   UNL     1       3.068   6.388  19.617  0.00  0.00    +0.000 OA
ATOM      4  H   UNL     1       1.884   4.769  17.173  0.00  0.00    +0.000 HD
ENDROOT
BRANCH   1   5
ATOM      5  C   UNL     1       3.284   3.746  18.408  0.00  0.00    +0.000 C 
ATOM      6  C   UNL     1       2.671   2.439  17.879  0.00  0.00    +0.000 C 
ATOM      7  C   UNL     1       1.482   2.138  18.786  0.00  0.00    +0.000 C 
ATOM      8  C   UNL     1       1.784   2.787  20.126  0.00  0.00    +0.000 C 
ATOM      9  C   UNL     1       3.060   3.603  19.932  0.00  0.00    +0.000 C 
BRANCH   5  10
ATOM     10  C   UNL     1       4.800   3.804  18.102  0.00  0.00    +0.000 C 
BRANCH  10  12
ATOM     11  C   UNL     1       6.322   5.275  19.129  0.00  0.00    +0.000 C 
ATOM     12  O   UNL     1       5.536   4.101  19.296  0.00  0.00    +0.000 OA
ENDBRANCH  10  12
ENDBRANCH   5  10
ENDBRANCH   1   5
BRANCH   2  13
ATOM     13  C   UNL     1       1.694   7.212  17.841  0.00  0.00    +0.000 C 
BRANCH  13  14
ATOM     14  C   UNL     1       2.315   8.581  18.107  0.00  0.00    +0.000 C 
BRANCH  14  15
ATOM     15  C   UNL     1       1.423   9.425  18.998  0.00  0.00    +0.000 C 
ATOM     16  O   UNL     1       0.891  10.425  18.538  0.00  0.00    +0.000 OA
ATOM     17  N   UNL     1       1.375   8.973  20.298  0.00  0.00    +0.000 N 
ATOM     18  C   UNL     1       0.652   9.572  21.303  0.00  0.00    +0.000 A 
ATOM     19  N   UNL     1       0.886   9.358  22.583  0.00  0.00    +0.000 NA
ATOM     20  N   UNL     1       0.093  10.146  23.396  0.00  0.00    +0.000 NA
ATOM     21  C   UNL     1      -0.765  10.851  22.691  0.00  0.00    +0.000 A 
ATOM     22  S   UNL     1      -0.658  10.623  21.000  0.00  0.00    +0.000 S 
ATOM     23  H   UNL     1       2.073   8.314  20.627  0.00  0.00    +0.000 HD
ENDBRANCH  14  15
ENDBRANCH  13  14
ENDBRANCH   2  13
TORSDOF 6
ENDMDL
