MODEL 1
REMARK VINA RESULT:      -8.1      0.000      0.000
REMARK  Name = 
REMARK  5 active torsions:
REMARK  status: ('A' for Active; 'I' for Inactive)
REMARK    1  A    between atoms: C_1  and  C_2
REMARK    2  A    between atoms: C_4  and  C_5
REMARK    3  A    between atoms: C_7  and  C_9
REMARK    4  A    between atoms: C_13  and  S_14
REMARK    5  A    between atoms: S_14  and  N_17
REMARK                            x       y       z     vdW  Elec       q    Type
REMARK                         _______ _______ _______ _____ _____    ______ ____
ROOT
ATOM      1  C   UNL     1       2.633   7.653  18.411  0.00  0.00    +0.000 A 
ATOM      2  C   UNL     1       2.619   6.872  19.577  0.00  0.00    +0.000 A 
ATOM      3  C   UNL     1       3.358   5.690  19.648  0.00  0.00    +0.000 A 
ATOM      4  C   UNL     1       4.148   5.298  18.568  0.00  0.00    +0.000 A 
ATOM      5  C   UNL     1       4.220   6.109  17.431  0.00  0.00    +0.000 A 
ATOM      6  C   UNL     1       3.421   7.256  17.323  0.00  0.00    +0.000 A 
ENDROOT
BRANCH   1  13
ATOM      7  C   UNL     1       0.151   9.095  22.926  0.00  0.00    +0.000 C 
ATOM      8  C   UNL     1       0.372   9.513  21.521  0.00  0.00    +0.000 A 
ATOM      9  C   UNL     1      -0.209  10.606  20.850  0.00  0.00    +0.000 A 
ATOM     10  C   UNL     1       0.299  10.558  19.569  0.00  0.00    +0.000 A 
ATOM     11  C   UNL     1       0.006  11.439  18.411  0.00  0.00    +0.000 C 
ATOM     12  N   UNL     1       1.138   9.447  19.518  0.00  0.00    +0.000 N 
ATOM     13  C   UNL     1       1.910   8.953  18.431  0.00  0.00    +0.000 C 
ATOM     14  O   UNL     1       1.965   9.642  17.410  0.00  0.00    +0.000 OA
ATOM     15  N   UNL     1       1.191   8.821  20.726  0.00  0.00    +0.000 NA
ENDBRANCH   1  13
BRANCH   5  16
ATOM     16  S   UNL     1       5.336   5.674  16.103  0.00  0.00    +0.000 S 
ATOM     17  O   UNL     1       5.123   4.269  15.818  0.00  0.00    +0.000 OA
ATOM     18  O   UNL     1       5.196   6.681  15.075  0.00  0.00    +0.000 OA
BRANCH  16  19
ATOM     19  N   UNL     1       6.885   5.850  16.760  0.00  0.00    +0.000 NA
ATOM     20  C   UNL     1       7.510   4.766  17.530  0.00  0.00    +0.000 C 
ATOM     21  C   UNL     1       7.591   5.322  18.940  0.00  0.00    +0.000 C 
ATOM     22  C   UNL     1       7.868   6.801  18.730  0.00  0.00    +0.000 C 
ATOM     23  C   UNL     1       7.290   7.141  17.357  0.00  0.00    +0.000 C 
ENDBRANCH  16  19
ENDBRANCH   5  16
TORSDOF 3
ENDMDL
MODEL 2
REMARK VINA RESULT:      -8.0      1.837      2.364
REMARK  Name = 
REMARK  5 active torsions:
REMARK  status: ('A' for Active; 'I' for Inactive)
REMARK    1  A    between atoms: C_1  and  C_2
REMARK    2  A    between atoms: C_4  and  C_5
REMARK    3  A    between atoms: C_7  and  C_9
REMARK    4  A    between atoms: C_13  and  S_14
REMARK    5  A    between atoms: S_14  and  N_17
REMARK                            x       y       z     vdW  Elec       q    Type
REMARK                         _______ _______ _______ _____ _____    ______ ____
ROOT
ATOM      1  C   UNL     1       2.254   6.980  19.548  0.00  0.00    +0.000 A 
ATOM      2  C   UNL     1       1.501   6.213  20.451  0.00  0.00    +0.000 A 
ATOM      3  C   UNL     1       1.927   4.936  20.823  0.00  0.00    +0.000 A 
ATOM      4  C   UNL     1       3.127   4.431  20.325  0.00  0.00    +0.000 A 
ATOM      5  C   UNL     1       3.915   5.219  19.480  0.00  0.00    +0.000 A 
ATOM      6  C   UNL     1       3.457   6.470  19.042  0.00  0.00    +0.000 A 
ENDROOT
BRANCH   1  13
ATOM      7  C   UNL     1      -0.253   9.655  23.445  0.00  0.00    +0.000 C 
ATOM      8  C   UNL     1       0.162   9.761  22.026  0.00  0.00    +0.000 A 
ATOM      9  C   UNL     1      -0.131  10.799  21.121  0.00  0.00    +0.000 A 
ATOM     10  C   UNL     1       0.460  10.424  19.934  0.00  0.00    +0.000 A 
ATOM     11  C   UNL     1       0.446  11.116  18.620  0.00  0.00    +0.000 C 
ATOM     12  N   UNL     1       1.061   9.189  20.163  0.00  0.00    +0.000 N 
ATOM     13  C   UNL     1       1.806   8.372  19.270  0.00  0.00    +0.000 C 
ATOM     14  O   UNL     1       2.081   8.839  18.162  0.00  0.00    +0.000 OA
ATOM     15  N   UNL     1       0.889   8.797  21.456  0.00  0.00    +0.000 NA
ENDBRANCH   1  13
BRANCH   5  16
ATOM     16  S   UNL     1       5.516   4.623  18.951  0.00  0.00    +0.000 S 
ATOM     17  O   UNL     1       6.508   5.338  19.729  0.00  0.00    +0.000 OA
ATOM     18  O   UNL     1       5.458   3.179  18.948  0.00  0.00    +0.000 OA
BRANCH  16  19
ATOM     19  N   UNL     1       5.654   5.117  17.339  0.00  0.00    +0.000 NA
ATOM     20  C   UNL     1       4.895   4.449  16.274  0.00  0.00    +0.000 C 
ATOM     21  C   UNL     1       5.964   3.763  15.442  0.00  0.00    +0.000 C 
ATOM     22  C   UNL     1       7.137   4.726  15.496  0.00  0.00    +0.000 C 
ATOM     23  C   UNL     1       6.974   5.508  16.799  0.00  0.00    +0.000 C 
ENDBRANCH  16  19
ENDBRANCH   5  16
TORSDOF 3
ENDMDL
MODEL 3
REMARK VINA RESULT:      -8.0      3.329      4.588
REMARK  Name = 
REMARK  5 active torsions:
REMARK  status: ('A' for Active; 'I' for Inactive)
REMARK    1  A    between atoms: C_1  and  C_2
REMARK    2  A    between atoms: C_4  and  C_5
REMARK    3  A    between atoms: C_7  and  C_9
REMARK    4  A    between atoms: C_13  and  S_14
REMARK    5  A    between atoms: S_14  and  N_17
REMARK                            x       y       z     vdW  Elec       q    Type
REMARK                         _______ _______ _______ _____ _____    ______ ____
ROOT
ATOM      1  C   UNL     1       1.359   9.162  19.882  0.00  0.00    +0.000 A 
ATOM      2  C   UNL     1       1.561   9.551  18.548  0.00  0.00    +0.000 A 
ATOM      3  C   UNL     1       2.207   8.699  17.650  0.00  0.00    +0.000 A 
ATOM      4  C   UNL     1       2.624   7.436  18.069  0.00  0.00    +0.000 A 
ATOM      5  C   UNL     1       2.363   7.017  19.378  0.00  0.00    +0.000 A 
ATOM      6  C   UNL     1       1.784   7.896  20.304  0.00  0.00    +0.000 A 
ENDROOT
BRANCH   1  13
ATOM      7  C   UNL     1      -3.002  11.505  17.852  0.00  0.00    +0.000 C 
ATOM      8  C   UNL     1      -2.156  11.449  19.068  0.00  0.00    +0.000 A 
ATOM      9  C   UNL     1      -2.274  12.232  20.232  0.00  0.00    +0.000 A 
ATOM     10  C   UNL     1      -1.251  11.815  21.056  0.00  0.00    +0.000 A 
ATOM     11  C   UNL     1      -0.865  12.317  22.399  0.00  0.00    +0.000 C 
ATOM     12  N   UNL     1      -0.561  10.826  20.360  0.00  0.00    +0.000 N 
ATOM     13  C   UNL     1       0.573  10.067  20.763  0.00  0.00    +0.000 C 
ATOM     14  O   UNL     1       0.956  10.189  21.928  0.00  0.00    +0.000 OA
ATOM     15  N   UNL     1      -1.133  10.594  19.147  0.00  0.00    +0.000 NA
ENDBRANCH   1  13
BRANCH   5  16
ATOM     16  S   UNL     1       2.777   5.349  19.873  0.00  0.00    +0.000 S 
ATOM     17  O   UNL     1       4.216   5.222  19.759  0.00  0.00    +0.000 OA
ATOM     18  O   UNL     1       2.094   5.087  21.119  0.00  0.00    +0.000 OA
BRANCH  16  19
ATOM     19  N   UNL     1       2.066   4.357  18.701  0.00  0.00    +0.000 NA
ATOM     20  C   UNL     1       0.960   3.454  19.042  0.00  0.00    +0.000 C 
ATOM     21  C   UNL     1       1.556   2.068  18.872  0.00  0.00    +0.000 C 
ATOM     22  C   UNL     1       2.503   2.225  17.695  0.00  0.00    +0.000 C 
ATOM     23  C   UNL     1       2.912   3.697  17.683  0.00  0.00    +0.000 C 
ENDBRANCH  16  19
ENDBRANCH   5  16
TORSDOF 3
ENDMDL
MODEL 4
REMARK VINA RESULT:      -7.9      4.374      7.802
REMARK  Name = 
REMARK  5 active torsions:
REMARK  status: ('A' for Active; 'I' for Inactive)
REMARK    1  A    between atoms: C_1  and  C_2
REMARK    2  A    between atoms: C_4  and  C_5
REMARK    3  A    between atoms: C_7  and  C_9
REMARK    4  A    between atoms: C_13  and  S_14
REMARK    5  A    between atoms: S_14  and  N_17
REMARK                            x       y       z     vdW  Elec       q    Type
REMARK                         _______ _______ _______ _____ _____    ______ ____
ROOT
ATOM      1  C   UNL     1       5.312   5.128  16.466  0.00  0.00    +0.000 A 
ATOM      2  C   UNL     1       4.622   6.251  16.950  0.00  0.00    +0.000 A 
ATOM      3  C   UNL     1       3.709   6.124  17.999  0.00  0.00    +0.000 A 
ATOM      4  C   UNL     1       3.505   4.881  18.597  0.00  0.00    +0.000 A 
ATOM      5  C   UNL     1       4.241   3.774  18.164  0.00  0.00    +0.000 A 
ATOM      6  C   UNL     1       5.102   3.878  17.062  0.00  0.00    +0.000 A 
ENDROOT
BRANCH   1  13
ATOM      7  C   UNL     1       4.560   2.882  11.668  0.00  0.00    +0.000 C 
ATOM      8  C   UNL     1       5.535   3.675  12.456  0.00  0.00    +0.000 A 
ATOM      9  C   UNL     1       6.834   4.059  12.074  0.00  0.00    +0.000 A 
ATOM     10  C   UNL     1       7.336   4.760  13.150  0.00  0.00    +0.000 A 
ATOM     11  C   UNL     1       8.678   5.369  13.329  0.00  0.00    +0.000 C 
ATOM     12  N   UNL     1       6.341   4.755  14.125  0.00  0.00    +0.000 N 
ATOM     13  C   UNL     1       6.348   5.342  15.420  0.00  0.00    +0.000 C 
ATOM     14  O   UNL     1       7.303   6.064  15.714  0.00  0.00    +0.000 OA
ATOM     15  N   UNL     1       5.231   4.101  13.684  0.00  0.00    +0.000 NA
ENDBRANCH   1  13
BRANCH   5  16
ATOM     16  S   UNL     1       4.077   2.212  19.020  0.00  0.00    +0.000 S 
ATOM     17  O   UNL     1       4.183   1.171  18.018  0.00  0.00    +0.000 OA
ATOM     18  O   UNL     1       4.963   2.252  20.162  0.00  0.00    +0.000 OA
BRANCH  16  19
ATOM     19  N   UNL     1       2.495   2.208  19.620  0.00  0.00    +0.000 NA
ATOM     20  C   UNL     1       1.341   2.229  18.712  0.00  0.00    +0.000 C 
ATOM     21  C   UNL     1       0.705   3.585  18.965  0.00  0.00    +0.000 C 
ATOM     22  C   UNL     1       0.920   3.813  20.451  0.00  0.00    +0.000 C 
ATOM     23  C   UNL     1       2.161   3.001  20.822  0.00  0.00    +0.000 C 
ENDBRANCH  16  19
ENDBRANCH   5  16
TORSDOF 3
ENDMDL
MODEL 5
REMARK VINA RESULT:      -7.9      3.206      4.484
REMARK  Name = 
REMARK  5 active torsions:
REMARK  status: ('A' for Active; 'I' for Inactive)
REMARK    1  A    between atoms: C_1  and  C_2
REMARK    2  A    between atoms: C_4  and  C_5
REMARK    3  A    between atoms: C_7  and  C_9
REMARK    4  A    between atoms: C_13  and  S_14
REMARK    5  A    between atoms: S_14  and  N_17
REMARK                            x       y       z     vdW  Elec       q    Type
REMARK                         _______ _______ _______ _____ _____    ______ ____
ROOT
ATOM      1  C   UNL     1       1.165   8.913  19.960  0.00  0.00    +0.000 A 
ATOM      2  C   UNL     1       1.350   9.423  18.665  0.00  0.00    +0.000 A 
ATOM      3  C   UNL     1       2.131   8.733  17.736  0.00  0.00    +0.000 A 
ATOM      4  C   UNL     1       2.703   7.509  18.081  0.00  0.00    +0.000 A 
ATOM      5  C   UNL     1       2.464   6.964  19.347  0.00  0.00    +0.000 A 
ATOM      6  C   UNL     1       1.745   7.687  20.310  0.00  0.00    +0.000 A 
ENDROOT
BRANCH   1  13
ATOM      7  C   UNL     1       1.506  14.248  20.191  0.00  0.00    +0.000 C 
ATOM      8  C   UNL     1       0.805  13.087  20.792  0.00  0.00    +0.000 A 
ATOM      9  C   UNL     1      -0.100  13.097  21.870  0.00  0.00    +0.000 A 
ATOM     10  C   UNL     1      -0.456  11.778  22.057  0.00  0.00    +0.000 A 
ATOM     11  C   UNL     1      -1.354  11.185  23.080  0.00  0.00    +0.000 C 
ATOM     12  N   UNL     1       0.249  11.040  21.110  0.00  0.00    +0.000 N 
ATOM     13  C   UNL     1       0.238   9.638  20.871  0.00  0.00    +0.000 C 
ATOM     14  O   UNL     1      -0.586   8.960  21.490  0.00  0.00    +0.000 OA
ATOM     15  N   UNL     1       1.008  11.853  20.324  0.00  0.00    +0.000 NA
ENDBRANCH   1  13
BRANCH   5  16
ATOM     16  S   UNL     1       3.086   5.334  19.741  0.00  0.00    +0.000 S 
ATOM     17  O   UNL     1       4.524   5.380  19.566  0.00  0.00    +0.000 OA
ATOM     18  O   UNL     1       2.492   4.938  20.997  0.00  0.00    +0.000 OA
BRANCH  16  19
ATOM     19  N   UNL     1       2.442   4.322  18.548  0.00  0.00    +0.000 NA
ATOM     20  C   UNL     1       1.226   3.536  18.795  0.00  0.00    +0.000 C 
ATOM     21  C   UNL     1       1.715   2.099  18.787  0.00  0.00    +0.000 C 
ATOM     22  C   UNL     1       2.811   2.095  17.736  0.00  0.00    +0.000 C 
ATOM     23  C   UNL     1       3.347   3.526  17.690  0.00  0.00    +0.000 C 
ENDBRANCH  16  19
ENDBRANCH   5  16
TORSDOF 3
ENDMDL
MODEL 6
REMARK VINA RESULT:      -7.9      2.342      3.675
REMARK  Name = 
REMARK  5 active torsions:
REMARK  status: ('A' for Active; 'I' for Inactive)
REMARK    1  A    between atoms: C_1  and  C_2
REMARK    2  A    between atoms: C_4  and  C_5
REMARK    3  A    between atoms: C_7  and  C_9
REMARK    4  A    between atoms: C_13  and  S_14
REMARK    5  A    between atoms: S_14  and  N_17
REMARK                            x       y       z     vdW  Elec       q    Type
REMARK                         _______ _______ _______ _____ _____    ______ ____
ROOT
ATOM      1  C   UNL     1       3.027   7.211  18.098  0.00  0.00    +0.000 A 
ATOM      2  C   UNL     1       4.396   7.482  17.949  0.00  0.00    +0.000 A 
ATOM      3  C   UNL     1       5.318   6.439  17.843  0.00  0.00    +0.000 A 
ATOM      4  C   UNL     1       4.876   5.117  17.849  0.00  0.00    +0.000 A 
ATOM      5  C   UNL     1       3.506   4.843  17.927  0.00  0.00    +0.000 A 
ATOM      6  C   UNL     1       2.583   5.883  18.111  0.00  0.00    +0.000 A 
ENDROOT
BRANCH   1  13
ATOM      7  C   UNL     1       1.117   8.908  22.799  0.00  0.00    +0.000 C 
ATOM      8  C   UNL     1       1.013   9.133  21.338  0.00  0.00    +0.000 A 
ATOM      9  C   UNL     1       0.129   9.997  20.664  0.00  0.00    +0.000 A 
ATOM     10  C   UNL     1       0.411   9.834  19.325  0.00  0.00    +0.000 A 
ATOM     11  C   UNL     1      -0.236  10.464  18.147  0.00  0.00    +0.000 C 
ATOM     12  N   UNL     1       1.426   8.884  19.247  0.00  0.00    +0.000 N 
ATOM     13  C   UNL     1       2.083   8.361  18.100  0.00  0.00    +0.000 C 
ATOM     14  O   UNL     1       1.830   8.882  17.011  0.00  0.00    +0.000 OA
ATOM     15  N   UNL     1       1.802   8.471  20.489  0.00  0.00    +0.000 NA
ENDBRANCH   1  13
BRANCH   5  16
ATOM     16  S   UNL     1       2.931   3.155  17.799  0.00  0.00    +0.000 S 
ATOM     17  O   UNL     1       1.810   3.162  16.881  0.00  0.00    +0.000 OA
ATOM     18  O   UNL     1       4.089   2.322  17.566  0.00  0.00    +0.000 OA
BRANCH  16  19
ATOM     19  N   UNL     1       2.349   2.774  19.341  0.00  0.00    +0.000 NA
ATOM     20  C   UNL     1       0.929   2.945  19.678  0.00  0.00    +0.000 C 
ATOM     21  C   UNL     1       0.932   4.066  20.702  0.00  0.00    +0.000 C 
ATOM     22  C   UNL     1       2.212   3.836  21.487  0.00  0.00    +0.000 C 
ATOM     23  C   UNL     1       3.156   3.102  20.535  0.00  0.00    +0.000 C 
ENDBRANCH  16  19
ENDBRANCH   5  16
TORSDOF 3
ENDMDL
MODEL 7
REMARK VINA RESULT:      -7.8      3.756      7.769
REMARK  Name = 
REMARK  5 active torsions:
REMARK  status: ('A' for Active; 'I' for Inactive)
REMARK    1  A    between atoms: C_1  and  C_2
REMARK    2  A    between atoms: C_4  and  C_5
REMARK    3  A    between atoms: C_7  and  C_9
REMARK    4  A    between atoms: C_13  and  S_14
REMARK    5  A    between atoms: S_14  and  N_17
REMARK                            x       y       z     vdW  Elec       q    Type
REMARK                         _______ _______ _______ _____ _____    ______ ____
ROOT
ATOM      1  C   UNL     1       6.223   4.875  16.649  0.00  0.00    +0.000 A 
ATOM      2  C   UNL     1       6.917   4.812  17.868  0.00  0.00    +0.000 A 
ATOM      3  C   UNL     1       6.297   4.304  19.011  0.00  0.00    +0.000 A 
ATOM      4  C   UNL     1       4.991   3.822  18.938  0.00  0.00    +0.000 A 
ATOM      5  C   UNL     1       4.320   3.819  17.711  0.00  0.00    +0.000 A 
ATOM      6  C   UNL     1       4.909   4.397  16.577  0.00  0.00    +0.000 A 
ENDROOT
BRANCH   1  13
ATOM      7  C   UNL     1       5.108   2.541  11.965  0.00  0.00    +0.000 C 
ATOM      8  C   UNL     1       6.009   3.533  12.599  0.00  0.00    +0.000 A 
ATOM      9  C   UNL     1       7.093   4.208  12.007  0.00  0.00    +0.000 A 
ATOM     10  C   UNL     1       7.617   5.000  13.006  0.00  0.00    +0.000 A 
ATOM     11  C   UNL     1       8.796   5.902  12.967  0.00  0.00    +0.000 C 
ATOM     12  N   UNL     1       6.851   4.761  14.144  0.00  0.00    +0.000 N 
ATOM     13  C   UNL     1       6.968   5.327  15.443  0.00  0.00    +0.000 C 
ATOM     14  O   UNL     1       7.774   6.249  15.593  0.00  0.00    +0.000 OA
ATOM     15  N   UNL     1       5.854   3.872  13.882  0.00  0.00    +0.000 NA
ENDBRANCH   1  13
BRANCH   5  16
ATOM     16  S   UNL     1       2.698   3.077  17.590  0.00  0.00    +0.000 S 
ATOM     17  O   UNL     1       2.317   3.125  16.193  0.00  0.00    +0.000 OA
ATOM     18  O   UNL     1       2.739   1.829  18.318  0.00  0.00    +0.000 OA
BRANCH  16  19
ATOM     19  N   UNL     1       1.678   4.118  18.450  0.00  0.00    +0.000 NA
ATOM     20  C   UNL     1       1.888   5.572  18.432  0.00  0.00    +0.000 C 
ATOM     21  C   UNL     1       2.295   5.898  19.858  0.00  0.00    +0.000 C 
ATOM     22  C   UNL     1       1.476   4.932  20.697  0.00  0.00    +0.000 C 
ATOM     23  C   UNL     1       1.194   3.732  19.793  0.00  0.00    +0.000 C 
ENDBRANCH  16  19
ENDBRANCH   5  16
TORSDOF 3
ENDMDL
MODEL 8
REMARK VINA RESULT:      -7.7      1.762      2.309
REMARK  Name = 
REMARK  5 active torsions:
REMARK  status: ('A' for Active; 'I' for Inactive)
REMARK    1  A    between atoms: C_1  and  C_2
REMARK    2  A    between atoms: C_4  and  C_5
REMARK    3  A    between atoms: C_7  and  C_9
REMARK    4  A    between atoms: C_13  and  S_14
REMARK    5  A    between atoms: S_14  and  N_17
REMARK                            x       y       z     vdW  Elec       q    Type
REMARK                         _______ _______ _______ _____ _____    ______ ____
ROOT
ATOM      1  C   UNL     1       2.657   7.040  18.832  0.00  0.00    +0.000 A 
ATOM      2  C   UNL     1       2.075   6.072  19.665  0.00  0.00    +0.000 A 
ATOM      3  C   UNL     1       2.765   4.899  19.980  0.00  0.00    +0.000 A 
ATOM      4  C   UNL     1       4.057   4.702  19.495  0.00  0.00    +0.000 A 
ATOM      5  C   UNL     1       4.668   5.694  18.722  0.00  0.00    +0.000 A 
ATOM      6  C   UNL     1       3.953   6.838  18.339  0.00  0.00    +0.000 A 
ENDROOT
BRANCH   1  13
ATOM      7  C   UNL     1       0.280   9.326  23.045  0.00  0.00    +0.000 C 
ATOM      8  C   UNL     1       0.457   9.460  21.579  0.00  0.00    +0.000 A 
ATOM      9  C   UNL     1      -0.156  10.395  20.723  0.00  0.00    +0.000 A 
ATOM     10  C   UNL     1       0.317  10.098  19.463  0.00  0.00    +0.000 A 
ATOM     11  C   UNL     1      -0.018  10.732  18.163  0.00  0.00    +0.000 C 
ATOM     12  N   UNL     1       1.169   9.006  19.607  0.00  0.00    +0.000 N 
ATOM     13  C   UNL     1       1.918   8.313  18.617  0.00  0.00    +0.000 C 
ATOM     14  O   UNL     1       1.935   8.787  17.478  0.00  0.00    +0.000 OA
ATOM     15  N   UNL     1       1.264   8.631  20.912  0.00  0.00    +0.000 NA
ENDBRANCH   1  13
BRANCH   5  16
ATOM     16  S   UNL     1       6.371   5.499  18.215  0.00  0.00    +0.000 S 
ATOM     17  O   UNL     1       6.816   6.790  17.732  0.00  0.00    +0.000 OA
ATOM     18  O   UNL     1       7.063   4.815  19.284  0.00  0.00    +0.000 OA
BRANCH  16  19
ATOM     19  N   UNL     1       6.315   4.435  16.900  0.00  0.00    +0.000 NA
ATOM     20  C   UNL     1       7.330   4.487  15.840  0.00  0.00    +0.000 C 
ATOM     21  C   UNL     1       6.557   4.955  14.619  0.00  0.00    +0.000 C 
ATOM     22  C   UNL     1       5.194   4.304  14.784  0.00  0.00    +0.000 C 
ATOM     23  C   UNL     1       5.015   4.090  16.287  0.00  0.00    +0.000 C 
ENDBRANCH  16  19
ENDBRANCH   5  16
TORSDOF 3
ENDMDL
MODEL 9
REMARK VINA RESULT:      -7.7      2.574      3.883
REMARK  Name = 
REMARK  5 active torsions:
REMARK  status: ('A' for Active; 'I' for Inactive)
REMARK    1  A    between atoms: C_1  and  C_2
REMARK    2  A    between atoms: C_4  and  C_5
REMARK    3  A    between atoms: C_7  and  C_9
REMARK    4  A    between atoms: C_13  and  S_14
REMARK    5  A    between atoms: S_14  and  N_17
REMARK                            x       y       z     vdW  Elec       q    Type
REMARK                         _______ _______ _______ _____ _____    ______ ____
ROOT
ATOM      1  C   UNL     1       2.654   8.012  18.095  0.00  0.00    +0.000 A 
ATOM      2  C   UNL     1       3.966   8.079  17.601  0.00  0.00    +0.000 A 
ATOM      3  C   UNL     1       4.693   6.912  17.356  0.00  0.00    +0.000 A 
ATOM      4  C   UNL     1       4.100   5.668  17.567  0.00  0.00    +0.000 A 
ATOM      5  C   UNL     1       2.770   5.595  17.992  0.00  0.00    +0.000 A 
ATOM      6  C   UNL     1       2.061   6.762  18.313  0.00  0.00    +0.000 A 
ENDROOT
BRANCH   1  13
ATOM      7  C   UNL     1       0.045   8.900  22.682  0.00  0.00    +0.000 C 
ATOM      8  C   UNL     1       0.282   9.471  21.334  0.00  0.00    +0.000 A 
ATOM      9  C   UNL     1      -0.317  10.614  20.770  0.00  0.00    +0.000 A 
ATOM     10  C   UNL     1       0.216  10.715  19.503  0.00  0.00    +0.000 A 
ATOM     11  C   UNL     1      -0.078  11.707  18.438  0.00  0.00    +0.000 C 
ATOM     12  N   UNL     1       1.087   9.639  19.353  0.00  0.00    +0.000 N 
ATOM     13  C   UNL     1       1.894   9.284  18.237  0.00  0.00    +0.000 C 
ATOM     14  O   UNL     1       1.949  10.078  17.296  0.00  0.00    +0.000 OA
ATOM     15  N   UNL     1       1.135   8.889  20.488  0.00  0.00    +0.000 NA
ENDBRANCH   1  13
BRANCH   5  16
ATOM     16  S   UNL     1       1.971   4.002  18.132  0.00  0.00    +0.000 S 
ATOM     17  O   UNL     1       0.857   4.008  17.205  0.00  0.00    +0.000 OA
ATOM     18  O   UNL     1       3.004   2.994  18.061  0.00  0.00    +0.000 OA
BRANCH  16  19
ATOM     19  N   UNL     1       1.347   3.964  19.704  0.00  0.00    +0.000 NA
ATOM     20  C   UNL     1       1.985   4.717  20.791  0.00  0.00    +0.000 C 
ATOM     21  C   UNL     1       2.528   3.639  21.712  0.00  0.00    +0.000 C 
ATOM     22  C   UNL     1       1.490   2.533  21.623  0.00  0.00    +0.000 C 
ATOM     23  C   UNL     1       0.823   2.697  20.258  0.00  0.00    +0.000 C 
ENDBRANCH  16  19
ENDBRANCH   5  16
TORSDOF 3
ENDMDL
