MODEL 1
REMARK VINA RESULT:      -8.9      0.000      0.000
REMARK  Name = 
REMARK  5 active torsions:
REMARK  status: ('A' for Active; 'I' for Inactive)
REMARK    1  A    between atoms: C_1  and  N_2
REMARK    2  A    between atoms: C_6  and  N_7
REMARK    3  A    between atoms: N_7  and  C_8
REMARK    4  A    between atoms: N_11  and  C_12
REMARK    5  A    between atoms: C_12  and  C_13
REMARK                            x       y       z     vdW  Elec       q    Type
REMARK                         _______ _______ _______ _____ _____    ______ ____
ROOT
ATOM      1  C   UNL     1      -0.447  10.070  20.889  0.00  0.00    +0.000 C 
ATOM      2  C   UNL     1       0.353   8.794  21.165  0.00  0.00    +0.000 C 
ATOM      3  C   UNL     1       1.596   8.596  20.303  0.00  0.00    +0.000 C 
ATOM      4  N   UNL     1       1.329   8.806  18.875  0.00  0.00    +0.000 NA
ATOM      5  C   UNL     1       0.849  10.182  18.661  0.00  0.00    +0.000 C 
ATOM      6  C   UNL     1      -0.447  10.472  19.414  0.00  0.00    +0.000 C 
ENDROOT
BRANCH   1   7
ATOM      7  N   UNL     1      -0.061  11.184  21.784  0.00  0.00    +0.000 N 
ATOM      8  H   UNL     1       0.844  11.596  21.595  0.00  0.00    +0.000 HD
BRANCH   7  14
ATOM      9  C   UNL     1      -3.762  14.723  24.382  0.00  0.00    +0.000 C 
ATOM     10  N   UNL     1      -2.790  13.846  23.747  0.00  0.00    +0.000 N 
ATOM     11  C   UNL     1      -3.061  12.493  23.715  0.00  0.00    +0.000 A 
ATOM     12  O   UNL     1      -4.075  11.973  24.179  0.00  0.00    +0.000 OA
ATOM     13  C   UNL     1      -2.059  11.620  23.073  0.00  0.00    +0.000 A 
ATOM     14  C   UNL     1      -0.967  12.045  22.435  0.00  0.00    +0.000 A 
ATOM     15  C   UNL     1      -0.696  13.516  22.490  0.00  0.00    +0.000 A 
ATOM     16  C   UNL     1       0.474  14.080  21.944  0.00  0.00    +0.000 A 
ATOM     17  C   UNL     1       0.759  15.439  22.105  0.00  0.00    +0.000 A 
ATOM     18 CL   UNL     1       2.217  16.089  21.460  0.00  0.00    +0.000 Cl
ATOM     19  C   UNL     1      -0.108  16.271  22.799  0.00  0.00    +0.000 A 
ATOM     20  C   UNL     1      -1.285  15.746  23.320  0.00  0.00    +0.000 A 
ATOM     21  C   UNL     1      -1.592  14.375  23.182  0.00  0.00    +0.000 A 
ENDBRANCH   7  14
ENDBRANCH   1   7
BRANCH   4  22
ATOM     22  C   UNL     1       2.550   8.579  18.061  0.00  0.00    +0.000 C 
BRANCH  22  23
ATOM     23  C   UNL     1       2.936   7.119  17.895  0.00  0.00    +0.000 A 
ATOM     24  C   UNL     1       4.224   6.764  17.479  0.00  0.00    +0.000 A 
ATOM     25  C   UNL     1       4.568   5.419  17.303  0.00  0.00    +0.000 A 
ATOM     26  C   UNL     1       3.650   4.397  17.586  0.00  0.00    +0.000 A 
ATOM     27  C   UNL     1       3.992   3.042  17.432  0.00  0.00    +0.000 A 
ATOM     28  C   UNL     1       3.094   2.035  17.782  0.00  0.00    +0.000 A 
ATOM     29  C   UNL     1       1.833   2.367  18.270  0.00  0.00    +0.000 A 
ATOM     30  C   UNL     1       1.464   3.709  18.388  0.00  0.00    +0.000 A 
ATOM     31  C   UNL     1       2.362   4.738  18.052  0.00  0.00    +0.000 A 
ATOM     32  C   UNL     1       2.015   6.097  18.182  0.00  0.00    +0.000 A 
ENDBRANCH  22  23
ENDBRANCH   4  22
TORSDOF 4
ENDMDL
MODEL 2
REMARK VINA RESULT:      -8.8      1.271      1.279
REMARK  Name = 
REMARK  5 active torsions:
REMARK  status: ('A' for Active; 'I' for Inactive)
REMARK    1  A    between atoms: C_1  and  N_2
REMARK    2  A    between atoms: C_6  and  N_7
REMARK    3  A    between atoms: N_7  and  C_8
REMARK    4  A    between atoms: N_11  and  C_12
REMARK    5  A    between atoms: C_12  and  C_13
REMARK                            x       y       z     vdW  Elec       q    Type
REMARK                         _______ _______ _______ _____ _____    ______ ____
ROOT
ATOM      1  C   UNL     1      -0.717  10.209  20.494  0.00  0.00    +0.000 C 
ATOM      2  C   UNL     1       0.197   9.097  21.016  0.00  0.00    +0.000 C 
ATOM      3  C   UNL     1       1.495   8.893  20.240  0.00  0.00    +0.000 C 
ATOM      4  N   UNL     1       1.279   8.820  18.790  0.00  0.00    +0.000 NA
ATOM      5  C   UNL     1       0.669  10.076  18.321  0.00  0.00    +0.000 C 
ATOM      6  C   UNL     1      -0.686  10.347  18.971  0.00  0.00    +0.000 C 
ENDROOT
BRANCH   1   7
ATOM      7  N   UNL     1      -0.494  11.496  21.188  0.00  0.00    +0.000 N 
ATOM      8  H   UNL     1       0.291  12.039  20.850  0.00  0.00    +0.000 HD
BRANCH   7  14
ATOM      9  C   UNL     1      -4.624  14.605  23.687  0.00  0.00    +0.000 C 
ATOM     10  N   UNL     1      -3.549  13.853  23.058  0.00  0.00    +0.000 N 
ATOM     11  C   UNL     1      -3.315  12.566  23.498  0.00  0.00    +0.000 A 
ATOM     12  O   UNL     1      -3.960  12.002  24.382  0.00  0.00    +0.000 OA
ATOM     13  C   UNL     1      -2.215  11.822  22.854  0.00  0.00    +0.000 A 
ATOM     14  C   UNL     1      -1.500  12.259  21.814  0.00  0.00    +0.000 A 
ATOM     15  C   UNL     1      -1.772  13.659  21.362  0.00  0.00    +0.000 A 
ATOM     16  C   UNL     1      -1.017  14.273  20.343  0.00  0.00    +0.000 A 
ATOM     17  C   UNL     1      -1.215  15.618  20.014  0.00  0.00    +0.000 A 
ATOM     18 CL   UNL     1      -0.249  16.350  18.792  0.00  0.00    +0.000 Cl
ATOM     19  C   UNL     1      -2.167  16.380  20.677  0.00  0.00    +0.000 A 
ATOM     20  C   UNL     1      -2.947  15.789  21.664  0.00  0.00    +0.000 A 
ATOM     21  C   UNL     1      -2.761  14.437  22.023  0.00  0.00    +0.000 A 
ENDBRANCH   7  14
ENDBRANCH   1   7
BRANCH   4  22
ATOM     22  C   UNL     1       2.555   8.593  18.067  0.00  0.00    +0.000 C 
BRANCH  22  23
ATOM     23  C   UNL     1       2.935   7.132  17.899  0.00  0.00    +0.000 A 
ATOM     24  C   UNL     1       4.216   6.772  17.465  0.00  0.00    +0.000 A 
ATOM     25  C   UNL     1       4.554   5.426  17.288  0.00  0.00    +0.000 A 
ATOM     26  C   UNL     1       3.637   4.408  17.588  0.00  0.00    +0.000 A 
ATOM     27  C   UNL     1       3.973   3.051  17.433  0.00  0.00    +0.000 A 
ATOM     28  C   UNL     1       3.077   2.047  17.799  0.00  0.00    +0.000 A 
ATOM     29  C   UNL     1       1.825   2.384  18.305  0.00  0.00    +0.000 A 
ATOM     30  C   UNL     1       1.461   3.728  18.425  0.00  0.00    +0.000 A 
ATOM     31  C   UNL     1       2.357   4.753  18.072  0.00  0.00    +0.000 A 
ATOM     32  C   UNL     1       2.016   6.113  18.204  0.00  0.00    +0.000 A 
ENDBRANCH  22  23
ENDBRANCH   4  22
TORSDOF 4
ENDMDL
MODEL 3
REMARK VINA RESULT:      -8.7      3.211      4.382
REMARK  Name = 
REMARK  5 active torsions:
REMARK  status: ('A' for Active; 'I' for Inactive)
REMARK    1  A    between atoms: C_1  and  N_2
REMARK    2  A    between atoms: C_6  and  N_7
REMARK    3  A    between atoms: N_7  and  C_8
REMARK    4  A    between atoms: N_11  and  C_12
REMARK    5  A    between atoms: C_12  and  C_13
REMARK                            x       y       z     vdW  Elec       q    Type
REMARK                         _______ _______ _______ _____ _____    ______ ____
ROOT
ATOM      1  C   UNL     1      -0.332  12.072  20.812  0.00  0.00    +0.000 C 
ATOM      2  C   UNL     1       1.045  12.393  20.224  0.00  0.00    +0.000 C 
ATOM      3  C   UNL     1       1.448  11.573  19.004  0.00  0.00    +0.000 C 
ATOM      4  N   UNL     1       1.231  10.134  19.195  0.00  0.00    +0.000 NA
ATOM      5  C   UNL     1      -0.197   9.882  19.453  0.00  0.00    +0.000 C 
ATOM      6  C   UNL     1      -0.698  10.590  20.709  0.00  0.00    +0.000 C 
ENDROOT
BRANCH   1   7
ATOM      7  N   UNL     1      -1.393  12.959  20.285  0.00  0.00    +0.000 N 
ATOM      8  H   UNL     1      -1.137  13.502  19.469  0.00  0.00    +0.000 HD
BRANCH   7  14
ATOM      9  C   UNL     1      -7.021  11.948  20.810  0.00  0.00    +0.000 C 
ATOM     10  N   UNL     1      -5.603  12.224  20.636  0.00  0.00    +0.000 N 
ATOM     11  C   UNL     1      -4.919  12.789  21.693  0.00  0.00    +0.000 A 
ATOM     12  O   UNL     1      -5.421  13.068  22.782  0.00  0.00    +0.000 OA
ATOM     13  C   UNL     1      -3.483  13.068  21.495  0.00  0.00    +0.000 A 
ATOM     14  C   UNL     1      -2.777  12.726  20.415  0.00  0.00    +0.000 A 
ATOM     15  C   UNL     1      -3.546  12.119  19.284  0.00  0.00    +0.000 A 
ATOM     16  C   UNL     1      -2.938  11.807  18.052  0.00  0.00    +0.000 A 
ATOM     17  C   UNL     1      -3.698  11.346  16.972  0.00  0.00    +0.000 A 
ATOM     18 CL   UNL     1      -2.930  11.011  15.468  0.00  0.00    +0.000 Cl
ATOM     19  C   UNL     1      -5.070  11.176  17.089  0.00  0.00    +0.000 A 
ATOM     20  C   UNL     1      -5.689  11.447  18.303  0.00  0.00    +0.000 A 
ATOM     21  C   UNL     1      -4.948  11.924  19.406  0.00  0.00    +0.000 A 
ENDBRANCH   7  14
ENDBRANCH   1   7
BRANCH   4  22
ATOM     22  C   UNL     1       1.659   9.362  18.002  0.00  0.00    +0.000 C 
BRANCH  22  23
ATOM     23  C   UNL     1       2.426   8.088  18.315  0.00  0.00    +0.000 A 
ATOM     24  C   UNL     1       2.143   7.349  19.469  0.00  0.00    +0.000 A 
ATOM     25  C   UNL     1       2.870   6.191  19.767  0.00  0.00    +0.000 A 
ATOM     26  C   UNL     1       3.861   5.718  18.894  0.00  0.00    +0.000 A 
ATOM     27  C   UNL     1       4.582   4.544  19.174  0.00  0.00    +0.000 A 
ATOM     28  C   UNL     1       5.518   4.048  18.266  0.00  0.00    +0.000 A 
ATOM     29  C   UNL     1       5.760   4.728  17.076  0.00  0.00    +0.000 A 
ATOM     30  C   UNL     1       5.081   5.918  16.804  0.00  0.00    +0.000 A 
ATOM     31  C   UNL     1       4.126   6.427  17.702  0.00  0.00    +0.000 A 
ATOM     32  C   UNL     1       3.417   7.615  17.438  0.00  0.00    +0.000 A 
ENDBRANCH  22  23
ENDBRANCH   4  22
TORSDOF 4
ENDMDL
MODEL 4
REMARK VINA RESULT:      -8.6      4.155     10.825
REMARK  Name = 
REMARK  5 active torsions:
REMARK  status: ('A' for Active; 'I' for Inactive)
REMARK    1  A    between atoms: C_1  and  N_2
REMARK    2  A    between atoms: C_6  and  N_7
REMARK    3  A    between atoms: N_7  and  C_8
REMARK    4  A    between atoms: N_11  and  C_12
REMARK    5  A    between atoms: C_12  and  C_13
REMARK                            x       y       z     vdW  Elec       q    Type
REMARK                         _______ _______ _______ _____ _____    ______ ____
ROOT
ATOM      1  C   UNL     1       1.679   7.757  18.927  0.00  0.00    +0.000 C 
ATOM      2  C   UNL     1       1.285   8.960  18.065  0.00  0.00    +0.000 C 
ATOM      3  C   UNL     1       1.200  10.295  18.797  0.00  0.00    +0.000 C 
ATOM      4  N   UNL     1       0.426  10.207  20.041  0.00  0.00    +0.000 NA
ATOM      5  C   UNL     1       1.064   9.238  20.949  0.00  0.00    +0.000 C 
ATOM      6  C   UNL     1       1.130   7.834  20.352  0.00  0.00    +0.000 C 
ENDROOT
BRANCH   1   7
ATOM      7  N   UNL     1       3.133   7.487  18.889  0.00  0.00    +0.000 N 
ATOM      8  H   UNL     1       3.630   7.676  19.751  0.00  0.00    +0.000 HD
BRANCH   7  14
ATOM      9  C   UNL     1       5.609   3.586  15.481  0.00  0.00    +0.000 C 
ATOM     10  N   UNL     1       4.992   4.548  16.381  0.00  0.00    +0.000 N 
ATOM     11  C   UNL     1       5.312   5.881  16.221  0.00  0.00    +0.000 A 
ATOM     12  O   UNL     1       6.077   6.318  15.362  0.00  0.00    +0.000 OA
ATOM     13  C   UNL     1       4.682   6.841  17.149  0.00  0.00    +0.000 A 
ATOM     14  C   UNL     1       3.755   6.533  18.058  0.00  0.00    +0.000 A 
ATOM     15  C   UNL     1       3.432   5.080  18.212  0.00  0.00    +0.000 A 
ATOM     16  C   UNL     1       2.547   4.614  19.204  0.00  0.00    +0.000 A 
ATOM     17  C   UNL     1       2.346   3.243  19.401  0.00  0.00    +0.000 A 
ATOM     18 CL   UNL     1       1.288   2.705  20.648  0.00  0.00    +0.000 Cl
ATOM     19  C   UNL     1       3.007   2.308  18.618  0.00  0.00    +0.000 A 
ATOM     20  C   UNL     1       3.861   2.742  17.612  0.00  0.00    +0.000 A 
ATOM     21  C   UNL     1       4.091   4.119  17.398  0.00  0.00    +0.000 A 
ENDBRANCH   7  14
ENDBRANCH   1   7
BRANCH   4  22
ATOM     22  C   UNL     1       0.338  11.527  20.715  0.00  0.00    +0.000 C 
BRANCH  22  23
ATOM     23  C   UNL     1      -1.076  11.979  21.037  0.00  0.00    +0.000 A 
ATOM     24  C   UNL     1      -1.946  12.382  20.019  0.00  0.00    +0.000 A 
ATOM     25  C   UNL     1      -3.239  12.823  20.322  0.00  0.00    +0.000 A 
ATOM     26  C   UNL     1      -3.709  12.822  21.644  0.00  0.00    +0.000 A 
ATOM     27  C   UNL     1      -5.013  13.243  21.958  0.00  0.00    +0.000 A 
ATOM     28  C   UNL     1      -5.491  13.173  23.266  0.00  0.00    +0.000 A 
ATOM     29  C   UNL     1      -4.664  12.702  24.283  0.00  0.00    +0.000 A 
ATOM     30  C   UNL     1      -3.352  12.320  23.993  0.00  0.00    +0.000 A 
ATOM     31  C   UNL     1      -2.858  12.372  22.678  0.00  0.00    +0.000 A 
ATOM     32  C   UNL     1      -1.545  11.974  22.362  0.00  0.00    +0.000 A 
ENDBRANCH  22  23
ENDBRANCH   4  22
TORSDOF 4
ENDMDL
MODEL 5
REMARK VINA RESULT:      -8.5      3.216      4.709
REMARK  Name = 
REMARK  5 active torsions:
REMARK  status: ('A' for Active; 'I' for Inactive)
REMARK    1  A    between atoms: C_1  and  N_2
REMARK    2  A    between atoms: C_6  and  N_7
REMARK    3  A    between atoms: N_7  and  C_8
REMARK    4  A    between atoms: N_11  and  C_12
REMARK    5  A    between atoms: C_12  and  C_13
REMARK                            x       y       z     vdW  Elec       q    Type
REMARK                         _______ _______ _______ _____ _____    ______ ____
ROOT
ATOM      1  C   UNL     1       1.175  10.797  19.052  0.00  0.00    +0.000 C 
ATOM      2  C   UNL     1       2.159   9.994  18.197  0.00  0.00    +0.000 C 
ATOM      3  C   UNL     1       2.074   8.478  18.344  0.00  0.00    +0.000 C 
ATOM      4  N   UNL     1       2.054   8.048  19.747  0.00  0.00    +0.000 NA
ATOM      5  C   UNL     1       0.882   8.631  20.423  0.00  0.00    +0.000 C 
ATOM      6  C   UNL     1       0.900  10.158  20.414  0.00  0.00    +0.000 C 
ENDROOT
BRANCH   1   7
ATOM      7  N   UNL     1      -0.065  11.134  18.319  0.00  0.00    +0.000 N 
ATOM      8  H   UNL     1      -0.206  10.630  17.452  0.00  0.00    +0.000 HD
BRANCH   7  14
ATOM      9  C   UNL     1      -4.924  12.983  20.757  0.00  0.00    +0.000 C 
ATOM     10  N   UNL     1      -3.705  12.536  20.100  0.00  0.00    +0.000 N 
ATOM     11  C   UNL     1      -2.511  12.694  20.774  0.00  0.00    +0.000 A 
ATOM     12  O   UNL     1      -2.403  13.179  21.900  0.00  0.00    +0.000 OA
ATOM     13  C   UNL     1      -1.285  12.242  20.089  0.00  0.00    +0.000 A 
ATOM     14  C   UNL     1      -1.253  11.602  18.917  0.00  0.00    +0.000 A 
ATOM     15  C   UNL     1      -2.561  11.449  18.208  0.00  0.00    +0.000 A 
ATOM     16  C   UNL     1      -2.650  10.884  16.920  0.00  0.00    +0.000 A 
ATOM     17  C   UNL     1      -3.867  10.853  16.231  0.00  0.00    +0.000 A 
ATOM     18 CL   UNL     1      -3.933  10.192  14.643  0.00  0.00    +0.000 Cl
ATOM     19  C   UNL     1      -5.021  11.370  16.803  0.00  0.00    +0.000 A 
ATOM     20  C   UNL     1      -4.967  11.904  18.085  0.00  0.00    +0.000 A 
ATOM     21  C   UNL     1      -3.750  11.958  18.798  0.00  0.00    +0.000 A 
ENDBRANCH   7  14
ENDBRANCH   1   7
BRANCH   4  22
ATOM     22  C   UNL     1       1.999   6.569  19.856  0.00  0.00    +0.000 C 
BRANCH  22  23
ATOM     23  C   UNL     1       2.861   5.829  18.848  0.00  0.00    +0.000 A 
ATOM     24  C   UNL     1       2.332   4.777  18.092  0.00  0.00    +0.000 A 
ATOM     25  C   UNL     1       3.137   4.081  17.183  0.00  0.00    +0.000 A 
ATOM     26  C   UNL     1       4.474   4.452  16.973  0.00  0.00    +0.000 A 
ATOM     27  C   UNL     1       5.285   3.772  16.047  0.00  0.00    +0.000 A 
ATOM     28  C   UNL     1       6.591   4.193  15.798  0.00  0.00    +0.000 A 
ATOM     29  C   UNL     1       7.111   5.286  16.486  0.00  0.00    +0.000 A 
ATOM     30  C   UNL     1       6.331   5.945  17.439  0.00  0.00    +0.000 A 
ATOM     31  C   UNL     1       5.008   5.542  17.694  0.00  0.00    +0.000 A 
ATOM     32  C   UNL     1       4.199   6.204  18.637  0.00  0.00    +0.000 A 
ENDBRANCH  22  23
ENDBRANCH   4  22
TORSDOF 4
ENDMDL
MODEL 6
REMARK VINA RESULT:      -8.5      2.457      2.989
REMARK  Name = 
REMARK  5 active torsions:
REMARK  status: ('A' for Active; 'I' for Inactive)
REMARK    1  A    between atoms: C_1  and  N_2
REMARK    2  A    between atoms: C_6  and  N_7
REMARK    3  A    between atoms: N_7  and  C_8
REMARK    4  A    between atoms: N_11  and  C_12
REMARK    5  A    between atoms: C_12  and  C_13
REMARK                            x       y       z     vdW  Elec       q    Type
REMARK                         _______ _______ _______ _____ _____    ______ ____
ROOT
ATOM      1  C   UNL     1      -0.839  10.511  19.793  0.00  0.00    +0.000 C 
ATOM      2  C   UNL     1       0.157   9.705  20.630  0.00  0.00    +0.000 C 
ATOM      3  C   UNL     1       1.494   9.407  19.958  0.00  0.00    +0.000 C 
ATOM      4  N   UNL     1       1.335   8.881  18.597  0.00  0.00    +0.000 NA
ATOM      5  C   UNL     1       0.626   9.870  17.767  0.00  0.00    +0.000 C 
ATOM      6  C   UNL     1      -0.770  10.187  18.299  0.00  0.00    +0.000 C 
ENDROOT
BRANCH   1   7
ATOM      7  N   UNL     1      -0.762  11.964  20.065  0.00  0.00    +0.000 N 
ATOM      8  H   UNL     1      -0.548  12.543  19.263  0.00  0.00    +0.000 HD
BRANCH   7  14
ATOM      9  C   UNL     1      -3.642  14.623  24.261  0.00  0.00    +0.000 C 
ATOM     10  N   UNL     1      -2.934  13.975  23.167  0.00  0.00    +0.000 N 
ATOM     11  C   UNL     1      -1.567  13.819  23.282  0.00  0.00    +0.000 A 
ATOM     12  O   UNL     1      -0.902  14.181  24.253  0.00  0.00    +0.000 OA
ATOM     13  C   UNL     1      -0.866  13.167  22.159  0.00  0.00    +0.000 A 
ATOM     14  C   UNL     1      -1.461  12.629  21.092  0.00  0.00    +0.000 A 
ATOM     15  C   UNL     1      -2.942  12.817  20.992  0.00  0.00    +0.000 A 
ATOM     16  C   UNL     1      -3.674  12.387  19.868  0.00  0.00    +0.000 A 
ATOM     17  C   UNL     1      -5.038  12.672  19.746  0.00  0.00    +0.000 A 
ATOM     18 CL   UNL     1      -5.895  12.167  18.342  0.00  0.00    +0.000 Cl
ATOM     19  C   UNL     1      -5.707  13.381  20.734  0.00  0.00    +0.000 A 
ATOM     20  C   UNL     1      -5.015  13.790  21.868  0.00  0.00    +0.000 A 
ATOM     21  C   UNL     1      -3.636  13.524  22.011  0.00  0.00    +0.000 A 
ENDBRANCH   7  14
ENDBRANCH   1   7
BRANCH   4  22
ATOM     22  C   UNL     1       2.650   8.575  17.982  0.00  0.00    +0.000 C 
BRANCH  22  23
ATOM     23  C   UNL     1       2.964   7.094  17.865  0.00  0.00    +0.000 A 
ATOM     24  C   UNL     1       4.222   6.662  17.429  0.00  0.00    +0.000 A 
ATOM     25  C   UNL     1       4.498   5.297  17.298  0.00  0.00    +0.000 A 
ATOM     26  C   UNL     1       3.542   4.331  17.647  0.00  0.00    +0.000 A 
ATOM     27  C   UNL     1       3.817   2.957  17.539  0.00  0.00    +0.000 A 
ATOM     28  C   UNL     1       2.883   2.007  17.953  0.00  0.00    +0.000 A 
ATOM     29  C   UNL     1       1.654   2.418  18.462  0.00  0.00    +0.000 A 
ATOM     30  C   UNL     1       1.351   3.779  18.535  0.00  0.00    +0.000 A 
ATOM     31  C   UNL     1       2.285   4.751  18.134  0.00  0.00    +0.000 A 
ATOM     32  C   UNL     1       2.006   6.128  18.218  0.00  0.00    +0.000 A 
ENDBRANCH  22  23
ENDBRANCH   4  22
TORSDOF 4
ENDMDL
MODEL 7
REMARK VINA RESULT:      -8.5      3.079      4.016
REMARK  Name = 
REMARK  5 active torsions:
REMARK  status: ('A' for Active; 'I' for Inactive)
REMARK    1  A    between atoms: C_1  and  N_2
REMARK    2  A    between atoms: C_6  and  N_7
REMARK    3  A    between atoms: N_7  and  C_8
REMARK    4  A    between atoms: N_11  and  C_12
REMARK    5  A    between atoms: C_12  and  C_13
REMARK                            x       y       z     vdW  Elec       q    Type
REMARK                         _______ _______ _______ _____ _____    ______ ____
ROOT
ATOM      1  C   UNL     1       0.381  12.057  20.342  0.00  0.00    +0.000 C 
ATOM      2  C   UNL     1       1.680  12.196  19.545  0.00  0.00    +0.000 C 
ATOM      3  C   UNL     1       1.852  11.215  18.389  0.00  0.00    +0.000 C 
ATOM      4  N   UNL     1       1.568   9.829  18.780  0.00  0.00    +0.000 NA
ATOM      5  C   UNL     1       0.176   9.727  19.252  0.00  0.00    +0.000 C 
ATOM      6  C   UNL     1      -0.095  10.609  20.469  0.00  0.00    +0.000 C 
ENDROOT
BRANCH   1   7
ATOM      7  N   UNL     1      -0.681  12.966  19.856  0.00  0.00    +0.000 N 
ATOM      8  H   UNL     1      -0.477  13.443  18.987  0.00  0.00    +0.000 HD
BRANCH   7  14
ATOM      9  C   UNL     1      -6.276  12.296  20.960  0.00  0.00    +0.000 C 
ATOM     10  N   UNL     1      -4.869  12.483  20.639  0.00  0.00    +0.000 N 
ATOM     11  C   UNL     1      -4.065  13.087  21.583  0.00  0.00    +0.000 A 
ATOM     12  O   UNL     1      -4.450  13.473  22.686  0.00  0.00    +0.000 OA
ATOM     13  C   UNL     1      -2.642  13.275  21.236  0.00  0.00    +0.000 A 
ATOM     14  C   UNL     1      -2.056  12.816  20.128  0.00  0.00    +0.000 A 
ATOM     15  C   UNL     1      -2.954  12.169  19.121  0.00  0.00    +0.000 A 
ATOM     16  C   UNL     1      -2.478  11.735  17.868  0.00  0.00    +0.000 A 
ATOM     17  C   UNL     1      -3.355  11.235  16.900  0.00  0.00    +0.000 A 
ATOM     18 CL   UNL     1      -2.747  10.750  15.364  0.00  0.00    +0.000 Cl
ATOM     19  C   UNL     1      -4.717  11.147  17.152  0.00  0.00    +0.000 A 
ATOM     20  C   UNL     1      -5.208  11.539  18.392  0.00  0.00    +0.000 A 
ATOM     21  C   UNL     1      -4.346  12.057  19.383  0.00  0.00    +0.000 A 
ENDBRANCH   7  14
ENDBRANCH   1   7
BRANCH   4  22
ATOM     22  C   UNL     1       1.771   8.897  17.643  0.00  0.00    +0.000 C 
BRANCH  22  23
ATOM     23  C   UNL     1       2.549   7.639  17.988  0.00  0.00    +0.000 A 
ATOM     24  C   UNL     1       3.848   7.446  17.505  0.00  0.00    +0.000 A 
ATOM     25  C   UNL     1       4.551   6.274  17.804  0.00  0.00    +0.000 A 
ATOM     26  C   UNL     1       3.992   5.291  18.634  0.00  0.00    +0.000 A 
ATOM     27  C   UNL     1       4.698   4.119  18.958  0.00  0.00    +0.000 A 
ATOM     28  C   UNL     1       4.159   3.181  19.838  0.00  0.00    +0.000 A 
ATOM     29  C   UNL     1       2.899   3.391  20.391  0.00  0.00    +0.000 A 
ATOM     30  C   UNL     1       2.168   4.531  20.045  0.00  0.00    +0.000 A 
ATOM     31  C   UNL     1       2.701   5.493  19.169  0.00  0.00    +0.000 A 
ATOM     32  C   UNL     1       1.988   6.657  18.823  0.00  0.00    +0.000 A 
ENDBRANCH  22  23
ENDBRANCH   4  22
TORSDOF 4
ENDMDL
MODEL 8
REMARK VINA RESULT:      -8.4      3.924     10.981
REMARK  Name = 
REMARK  5 active torsions:
REMARK  status: ('A' for Active; 'I' for Inactive)
REMARK    1  A    between atoms: C_1  and  N_2
REMARK    2  A    between atoms: C_6  and  N_7
REMARK    3  A    between atoms: N_7  and  C_8
REMARK    4  A    between atoms: N_11  and  C_12
REMARK    5  A    between atoms: C_12  and  C_13
REMARK                            x       y       z     vdW  Elec       q    Type
REMARK                         _______ _______ _______ _____ _____    ______ ____
ROOT
ATOM      1  C   UNL     1       2.210   8.570  19.101  0.00  0.00    +0.000 C 
ATOM      2  C   UNL     1       1.496   8.596  20.455  0.00  0.00    +0.000 C 
ATOM      3  C   UNL     1       0.108   9.228  20.456  0.00  0.00    +0.000 C 
ATOM      4  N   UNL     1       0.079  10.525  19.770  0.00  0.00    +0.000 NA
ATOM      5  C   UNL     1       0.490  10.349  18.367  0.00  0.00    +0.000 C 
ATOM      6  C   UNL     1       1.908   9.796  18.238  0.00  0.00    +0.000 C 
ENDROOT
BRANCH   1   7
ATOM      7  N   UNL     1       1.999   7.297  18.376  0.00  0.00    +0.000 N 
ATOM      8  H   UNL     1       1.099   7.203  17.921  0.00  0.00    +0.000 HD
BRANCH   7  14
ATOM      9  C   UNL     1       6.133   4.099  15.999  0.00  0.00    +0.000 C 
ATOM     10  N   UNL     1       5.085   4.881  16.637  0.00  0.00    +0.000 N 
ATOM     11  C   UNL     1       5.230   6.253  16.669  0.00  0.00    +0.000 A 
ATOM     12  O   UNL     1       6.181   6.867  16.186  0.00  0.00    +0.000 OA
ATOM     13  C   UNL     1       4.161   7.029  17.328  0.00  0.00    +0.000 A 
ATOM     14  C   UNL     1       3.023   6.517  17.803  0.00  0.00    +0.000 A 
ATOM     15  C   UNL     1       2.896   5.027  17.759  0.00  0.00    +0.000 A 
ATOM     16  C   UNL     1       1.791   4.356  18.318  0.00  0.00    +0.000 A 
ATOM     17  C   UNL     1       1.746   2.959  18.365  0.00  0.00    +0.000 A 
ATOM     18 CL   UNL     1       0.400   2.170  19.091  0.00  0.00    +0.000 Cl
ATOM     19  C   UNL     1       2.787   2.197  17.852  0.00  0.00    +0.000 A 
ATOM     20  C   UNL     1       3.874   2.834  17.266  0.00  0.00    +0.000 A 
ATOM     21  C   UNL     1       3.950   4.242  17.216  0.00  0.00    +0.000 A 
ENDBRANCH   7  14
ENDBRANCH   1   7
BRANCH   4  22
ATOM     22  C   UNL     1      -1.278  11.126  19.813  0.00  0.00    +0.000 C 
BRANCH  22  23
ATOM     23  C   UNL     1      -1.518  12.061  20.986  0.00  0.00    +0.000 A 
ATOM     24  C   UNL     1      -0.445  12.671  21.645  0.00  0.00    +0.000 A 
ATOM     25  C   UNL     1      -0.669  13.511  22.741  0.00  0.00    +0.000 A 
ATOM     26  C   UNL     1      -1.972  13.801  23.172  0.00  0.00    +0.000 A 
ATOM     27  C   UNL     1      -2.209  14.661  24.259  0.00  0.00    +0.000 A 
ATOM     28  C   UNL     1      -3.510  14.994  24.635  0.00  0.00    +0.000 A 
ATOM     29  C   UNL     1      -4.592  14.458  23.943  0.00  0.00    +0.000 A 
ATOM     30  C   UNL     1      -4.372  13.569  22.888  0.00  0.00    +0.000 A 
ATOM     31  C   UNL     1      -3.067  13.231  22.488  0.00  0.00    +0.000 A 
ATOM     32  C   UNL     1      -2.825  12.353  21.414  0.00  0.00    +0.000 A 
ENDBRANCH  22  23
ENDBRANCH   4  22
TORSDOF 4
ENDMDL
MODEL 9
REMARK VINA RESULT:      -8.4      3.440     10.451
REMARK  Name = 
REMARK  5 active torsions:
REMARK  status: ('A' for Active; 'I' for Inactive)
REMARK    1  A    between atoms: C_1  and  N_2
REMARK    2  A    between atoms: C_6  and  N_7
REMARK    3  A    between atoms: N_7  and  C_8
REMARK    4  A    between atoms: N_11  and  C_12
REMARK    5  A    between atoms: C_12  and  C_13
REMARK                            x       y       z     vdW  Elec       q    Type
REMARK                         _______ _______ _______ _____ _____    ______ ____
ROOT
ATOM      1  C   UNL     1       1.930   8.006  20.090  0.00  0.00    +0.000 C 
ATOM      2  C   UNL     1       1.322   8.491  21.409  0.00  0.00    +0.000 C 
ATOM      3  C   UNL     1       0.075   9.360  21.279  0.00  0.00    +0.000 C 
ATOM      4  N   UNL     1       0.240  10.437  20.295  0.00  0.00    +0.000 NA
ATOM      5  C   UNL     1       0.521   9.856  18.972  0.00  0.00    +0.000 C 
ATOM      6  C   UNL     1       1.803   9.026  18.958  0.00  0.00    +0.000 C 
ENDROOT
BRANCH   1   7
ATOM      7  N   UNL     1       1.445   6.663  19.704  0.00  0.00    +0.000 N 
ATOM      8  H   UNL     1       0.777   6.647  18.943  0.00  0.00    +0.000 HD
BRANCH   7  14
ATOM      9  C   UNL     1       4.463   1.822  20.360  0.00  0.00    +0.000 C 
ATOM     10  N   UNL     1       3.694   3.039  20.149  0.00  0.00    +0.000 N 
ATOM     11  C   UNL     1       2.661   3.311  21.021  0.00  0.00    +0.000 A 
ATOM     12  O   UNL     1       2.346   2.601  21.976  0.00  0.00    +0.000 OA
ATOM     13  C   UNL     1       1.887   4.546  20.787  0.00  0.00    +0.000 A 
ATOM     14  C   UNL     1       2.173   5.466  19.863  0.00  0.00    +0.000 A 
ATOM     15  C   UNL     1       3.296   5.142  18.928  0.00  0.00    +0.000 A 
ATOM     16  C   UNL     1       3.632   5.981  17.847  0.00  0.00    +0.000 A 
ATOM     17  C   UNL     1       4.611   5.604  16.922  0.00  0.00    +0.000 A 
ATOM     18 CL   UNL     1       4.970   6.633  15.590  0.00  0.00    +0.000 Cl
ATOM     19  C   UNL     1       5.282   4.396  17.050  0.00  0.00    +0.000 A 
ATOM     20  C   UNL     1       4.992   3.565  18.125  0.00  0.00    +0.000 A 
ATOM     21  C   UNL     1       4.001   3.916  19.068  0.00  0.00    +0.000 A 
ENDBRANCH   7  14
ENDBRANCH   1   7
BRANCH   4  22
ATOM     22  C   UNL     1      -0.979  11.281  20.213  0.00  0.00    +0.000 C 
BRANCH  22  23
ATOM     23  C   UNL     1      -1.120  12.300  21.331  0.00  0.00    +0.000 A 
ATOM     24  C   UNL     1      -0.181  13.326  21.485  0.00  0.00    +0.000 A 
ATOM     25  C   UNL     1      -0.300  14.246  22.533  0.00  0.00    +0.000 A 
ATOM     26  C   UNL     1      -1.386  14.193  23.419  0.00  0.00    +0.000 A 
ATOM     27  C   UNL     1      -1.526  15.125  24.462  0.00  0.00    +0.000 A 
ATOM     28  C   UNL     1      -2.645  15.102  25.294  0.00  0.00    +0.000 A 
ATOM     29  C   UNL     1      -3.629  14.135  25.109  0.00  0.00    +0.000 A 
ATOM     30  C   UNL     1      -3.482  13.177  24.103  0.00  0.00    +0.000 A 
ATOM     31  C   UNL     1      -2.367  13.192  23.247  0.00  0.00    +0.000 A 
ATOM     32  C   UNL     1      -2.210  12.246  22.216  0.00  0.00    +0.000 A 
ENDBRANCH  22  23
ENDBRANCH   4  22
TORSDOF 4
ENDMDL
