MODEL 1
REMARK VINA RESULT:      -7.1      0.000      0.000
REMARK  Name = 
REMARK  3 active torsions:
REMARK  status: ('A' for Active; 'I' for Inactive)
REMARK    1  A    between atoms: C_1  and  C_2
REMARK    2  A    between atoms: C_3  and  N_4
REMARK    3  A    between atoms: C_13  and  C_14
REMARK                            x       y       z     vdW  Elec       q    Type
REMARK                         _______ _______ _______ _____ _____    ______ ____
ROOT
ATOM      1  C   UNL     1       5.228   3.762  18.413  0.00  0.00    +0.000 C 
ATOM      2  C   UNL     1       4.501   5.036  18.070  0.00  0.00    +0.000 A 
ATOM      3  C   UNL     1       5.120   5.994  17.214  0.00  0.00    +0.000 A 
ATOM      4  C   UNL     1       4.513   7.253  17.058  0.00  0.00    +0.000 A 
ATOM      5  C   UNL     1       3.276   7.539  17.605  0.00  0.00    +0.000 A 
ATOM      6  C   UNL     1       2.609   6.559  18.320  0.00  0.00    +0.000 A 
ATOM      7  C   UNL     1       3.188   5.300  18.569  0.00  0.00    +0.000 A 
ENDROOT
BRANCH   3   8
ATOM      8  N   UNL     1       6.375   5.755  16.583  0.00  0.00    +0.000 N 
ATOM      9  C   UNL     1       6.490   5.087  15.400  0.00  0.00    +0.000 C 
ATOM     10  N   UNL     1       5.650   4.252  14.850  0.00  0.00    +0.000 NA
ATOM     11  C   UNL     1       6.278   3.896  13.554  0.00  0.00    +0.000 C 
ATOM     12  C   UNL     1       7.362   4.949  13.325  0.00  0.00    +0.000 C 
ATOM     13  N   UNL     1       7.606   5.399  14.679  0.00  0.00    +0.000 N 
ATOM     14  H   UNL     1       7.121   5.527  17.218  0.00  0.00    +0.000 HD
ATOM     15  H   UNL     1       7.877   6.373  14.763  0.00  0.00    +0.000 HD
ENDBRANCH   3   8
BRANCH   7  16
ATOM     16  C   UNL     1       2.373   4.302  19.292  0.00  0.00    +0.000 A 
ATOM     17  C   UNL     1       1.332   3.458  18.775  0.00  0.00    +0.000 A 
ATOM     18  C   UNL     1       0.728   2.681  19.742  0.00  0.00    +0.000 A 
ATOM     19  S   UNL     1       1.367   2.986  21.292  0.00  0.00    +0.000 S 
ATOM     20  C   UNL     1       2.475   4.128  20.666  0.00  0.00    +0.000 A 
ENDBRANCH   7  16
TORSDOF 2
ENDMDL
MODEL 2
REMARK VINA RESULT:      -6.9      4.759      6.842
REMARK  Name = 
REMARK  3 active torsions:
REMARK  status: ('A' for Active; 'I' for Inactive)
REMARK    1  A    between atoms: C_1  and  C_2
REMARK    2  A    between atoms: C_3  and  N_4
REMARK    3  A    between atoms: C_13  and  C_14
REMARK                            x       y       z     vdW  Elec       q    Type
REMARK                         _______ _______ _______ _____ _____    ______ ____
ROOT
ATOM      1  C   UNL     1       0.788   8.618  21.275  0.00  0.00    +0.000 C 
ATOM      2  C   UNL     1       1.491   8.254  19.993  0.00  0.00    +0.000 A 
ATOM      3  C   UNL     1       2.204   7.023  19.904  0.00  0.00    +0.000 A 
ATOM      4  C   UNL     1       3.007   6.787  18.773  0.00  0.00    +0.000 A 
ATOM      5  C   UNL     1       3.023   7.655  17.697  0.00  0.00    +0.000 A 
ATOM      6  C   UNL     1       2.221   8.782  17.724  0.00  0.00    +0.000 A 
ATOM      7  C   UNL     1       1.443   9.111  18.851  0.00  0.00    +0.000 A 
ENDROOT
BRANCH   3   8
ATOM      8  N   UNL     1       2.203   6.061  20.956  0.00  0.00    +0.000 N 
ATOM      9  C   UNL     1       1.799   4.771  20.775  0.00  0.00    +0.000 C 
ATOM     10  N   UNL     1       1.025   4.282  19.844  0.00  0.00    +0.000 NA
ATOM     11  C   UNL     1       0.990   2.825  20.120  0.00  0.00    +0.000 C 
ATOM     12  C   UNL     1       2.154   2.565  21.076  0.00  0.00    +0.000 C 
ATOM     13  N   UNL     1       2.342   3.880  21.653  0.00  0.00    +0.000 N 
ATOM     14  H   UNL     1       1.914   6.424  21.847  0.00  0.00    +0.000 HD
ATOM     15  H   UNL     1       3.298   4.101  21.909  0.00  0.00    +0.000 HD
ENDBRANCH   3   8
BRANCH   7  16
ATOM     16  C   UNL     1       0.577  10.304  18.760  0.00  0.00    +0.000 A 
ATOM     17  C   UNL     1      -0.816  10.371  18.413  0.00  0.00    +0.000 A 
ATOM     18  C   UNL     1      -1.305  11.659  18.362  0.00  0.00    +0.000 A 
ATOM     19  S   UNL     1      -0.092  12.813  18.683  0.00  0.00    +0.000 S 
ATOM     20  C   UNL     1       1.078  11.589  18.926  0.00  0.00    +0.000 A 
ENDBRANCH   7  16
TORSDOF 2
ENDMDL
MODEL 3
REMARK VINA RESULT:      -6.6      1.928      3.218
REMARK  Name = 
REMARK  3 active torsions:
REMARK  status: ('A' for Active; 'I' for Inactive)
REMARK    1  A    between atoms: C_1  and  C_2
REMARK    2  A    between atoms: C_3  and  N_4
REMARK    3  A    between atoms: C_13  and  C_14
REMARK                            x       y       z     vdW  Elec       q    Type
REMARK                         _______ _______ _______ _____ _____    ______ ____
ROOT
ATOM      1  C   UNL     1       4.853   6.989  17.269  0.00  0.00    +0.000 C 
ATOM      2  C   UNL     1       4.012   5.773  17.559  0.00  0.00    +0.000 A 
ATOM      3  C   UNL     1       4.531   4.474  17.285  0.00  0.00    +0.000 A 
ATOM      4  C   UNL     1       3.668   3.367  17.382  0.00  0.00    +0.000 A 
ATOM      5  C   UNL     1       2.375   3.490  17.855  0.00  0.00    +0.000 A 
ATOM      6  C   UNL     1       1.915   4.733  18.255  0.00  0.00    +0.000 A 
ATOM      7  C   UNL     1       2.705   5.892  18.123  0.00  0.00    +0.000 A 
ENDROOT
BRANCH   3   8
ATOM      8  N   UNL     1       5.866   4.264  16.832  0.00  0.00    +0.000 N 
ATOM      9  C   UNL     1       6.200   4.239  15.510  0.00  0.00    +0.000 C 
ATOM     10  N   UNL     1       5.433   4.007  14.479  0.00  0.00    +0.000 NA
ATOM     11  C   UNL     1       6.328   4.172  13.307  0.00  0.00    +0.000 C 
ATOM     12  C   UNL     1       7.563   4.899  13.839  0.00  0.00    +0.000 C 
ATOM     13  N   UNL     1       7.497   4.570  15.248  0.00  0.00    +0.000 N 
ATOM     14  H   UNL     1       6.381   3.583  17.363  0.00  0.00    +0.000 HD
ATOM     15  H   UNL     1       7.862   5.283  15.870  0.00  0.00    +0.000 HD
ENDBRANCH   3   8
BRANCH   7  16
ATOM     16  C   UNL     1       2.146   7.162  18.631  0.00  0.00    +0.000 A 
ATOM     17  C   UNL     1       1.840   8.358  17.897  0.00  0.00    +0.000 A 
ATOM     18  C   UNL     1       1.386   9.387  18.694  0.00  0.00    +0.000 A 
ATOM     19  S   UNL     1       1.363   8.952  20.342  0.00  0.00    +0.000 S 
ATOM     20  C   UNL     1       1.926   7.377  19.985  0.00  0.00    +0.000 A 
ENDBRANCH   7  16
TORSDOF 2
ENDMDL
MODEL 4
REMARK VINA RESULT:      -6.6      2.016      3.356
REMARK  Name = 
REMARK  3 active torsions:
REMARK  status: ('A' for Active; 'I' for Inactive)
REMARK    1  A    between atoms: C_1  and  C_2
REMARK    2  A    between atoms: C_3  and  N_4
REMARK    3  A    between atoms: C_13  and  C_14
REMARK                            x       y       z     vdW  Elec       q    Type
REMARK                         _______ _______ _______ _____ _____    ______ ____
ROOT
ATOM      1  C   UNL     1       4.679   6.987  17.217  0.00  0.00    +0.000 C 
ATOM      2  C   UNL     1       4.229   5.923  18.185  0.00  0.00    +0.000 A 
ATOM      3  C   UNL     1       4.998   4.732  18.333  0.00  0.00    +0.000 A 
ATOM      4  C   UNL     1       4.467   3.675  19.094  0.00  0.00    +0.000 A 
ATOM      5  C   UNL     1       3.287   3.807  19.801  0.00  0.00    +0.000 A 
ATOM      6  C   UNL     1       2.610   5.014  19.771  0.00  0.00    +0.000 A 
ATOM      7  C   UNL     1       3.053   6.091  18.978  0.00  0.00    +0.000 A 
ENDROOT
BRANCH   3   8
ATOM      8  N   UNL     1       6.243   4.539  17.666  0.00  0.00    +0.000 N 
ATOM      9  C   UNL     1       6.334   4.329  16.322  0.00  0.00    +0.000 C 
ATOM     10  N   UNL     1       5.419   3.891  15.501  0.00  0.00    +0.000 NA
ATOM     11  C   UNL     1       6.070   3.926  14.168  0.00  0.00    +0.000 C 
ATOM     12  C   UNL     1       7.308   4.804  14.345  0.00  0.00    +0.000 C 
ATOM     13  N   UNL     1       7.528   4.696  15.772  0.00  0.00    +0.000 N 
ATOM     14  H   UNL     1       6.905   3.983  18.180  0.00  0.00    +0.000 HD
ATOM     15  H   UNL     1       7.932   5.519  16.205  0.00  0.00    +0.000 HD
ENDBRANCH   3   8
BRANCH   7  16
ATOM     16  C   UNL     1       2.293   7.356  19.058  0.00  0.00    +0.000 A 
ATOM     17  C   UNL     1       2.024   8.302  18.011  0.00  0.00    +0.000 A 
ATOM     18  C   UNL     1       1.334   9.414  18.444  0.00  0.00    +0.000 A 
ATOM     19  S   UNL     1       1.041   9.367  20.122  0.00  0.00    +0.000 S 
ATOM     20  C   UNL     1       1.802   7.842  20.263  0.00  0.00    +0.000 A 
ENDBRANCH   7  16
TORSDOF 2
ENDMDL
MODEL 5
REMARK VINA RESULT:      -6.4      2.460      3.788
REMARK  Name = 
REMARK  3 active torsions:
REMARK  status: ('A' for Active; 'I' for Inactive)
REMARK    1  A    between atoms: C_1  and  C_2
REMARK    2  A    between atoms: C_3  and  N_4
REMARK    3  A    between atoms: C_13  and  C_14
REMARK                            x       y       z     vdW  Elec       q    Type
REMARK                         _______ _______ _______ _____ _____    ______ ____
ROOT
ATOM      1  C   UNL     1       5.243   5.365  19.285  0.00  0.00    +0.000 C 
ATOM      2  C   UNL     1       5.519   4.920  17.872  0.00  0.00    +0.000 A 
ATOM      3  C   UNL     1       6.775   5.220  17.270  0.00  0.00    +0.000 A 
ATOM      4  C   UNL     1       6.944   4.967  15.896  0.00  0.00    +0.000 A 
ATOM      5  C   UNL     1       5.977   4.321  15.150  0.00  0.00    +0.000 A 
ATOM      6  C   UNL     1       4.812   3.902  15.768  0.00  0.00    +0.000 A 
ATOM      7  C   UNL     1       4.551   4.181  17.125  0.00  0.00    +0.000 A 
ENDROOT
BRANCH   3   8
ATOM      8  N   UNL     1       7.835   5.850  17.986  0.00  0.00    +0.000 N 
ATOM      9  C   UNL     1       8.051   7.196  17.950  0.00  0.00    +0.000 C 
ATOM     10  N   UNL     1       7.667   8.060  17.050  0.00  0.00    +0.000 NA
ATOM     11  C   UNL     1       8.135   9.368  17.569  0.00  0.00    +0.000 C 
ATOM     12  C   UNL     1       8.470   9.125  19.040  0.00  0.00    +0.000 C 
ATOM     13  N   UNL     1       8.698   7.694  19.043  0.00  0.00    +0.000 N 
ATOM     14  H   UNL     1       8.696   5.331  17.991  0.00  0.00    +0.000 HD
ATOM     15  H   UNL     1       8.446   7.224  19.906  0.00  0.00    +0.000 HD
ENDBRANCH   3   8
BRANCH   7  16
ATOM     16  C   UNL     1       3.305   3.642  17.707  0.00  0.00    +0.000 A 
ATOM     17  C   UNL     1       2.021   4.278  17.810  0.00  0.00    +0.000 A 
ATOM     18  C   UNL     1       1.083   3.512  18.469  0.00  0.00    +0.000 A 
ATOM     19  S   UNL     1       1.740   2.038  19.020  0.00  0.00    +0.000 S 
ATOM     20  C   UNL     1       3.266   2.408  18.343  0.00  0.00    +0.000 A 
ENDBRANCH   7  16
TORSDOF 2
ENDMDL
MODEL 6
REMARK VINA RESULT:      -6.4      3.546      6.123
REMARK  Name = 
REMARK  3 active torsions:
REMARK  status: ('A' for Active; 'I' for Inactive)
REMARK    1  A    between atoms: C_1  and  C_2
REMARK    2  A    between atoms: C_3  and  N_4
REMARK    3  A    between atoms: C_13  and  C_14
REMARK                            x       y       z     vdW  Elec       q    Type
REMARK                         _______ _______ _______ _____ _____    ______ ____
ROOT
ATOM      1  C   UNL     1       4.548   3.918  18.725  0.00  0.00    +0.000 C 
ATOM      2  C   UNL     1       4.084   5.315  18.405  0.00  0.00    +0.000 A 
ATOM      3  C   UNL     1       3.264   6.017  19.336  0.00  0.00    +0.000 A 
ATOM      4  C   UNL     1       2.687   7.239  18.942  0.00  0.00    +0.000 A 
ATOM      5  C   UNL     1       2.994   7.833  17.733  0.00  0.00    +0.000 A 
ATOM      6  C   UNL     1       3.901   7.219  16.887  0.00  0.00    +0.000 A 
ATOM      7  C   UNL     1       4.466   5.965  17.191  0.00  0.00    +0.000 A 
ENDROOT
BRANCH   3   8
ATOM      8  N   UNL     1       2.936   5.486  20.617  0.00  0.00    +0.000 N 
ATOM      9  C   UNL     1       2.091   4.428  20.782  0.00  0.00    +0.000 C 
ATOM     10  N   UNL     1       1.177   3.980  19.965  0.00  0.00    +0.000 NA
ATOM     11  C   UNL     1       0.625   2.784  20.649  0.00  0.00    +0.000 C 
ATOM     12  C   UNL     1       1.634   2.441  21.744  0.00  0.00    +0.000 C 
ATOM     13  N   UNL     1       2.292   3.717  21.929  0.00  0.00    +0.000 N 
ATOM     14  H   UNL     1       2.813   6.181  21.333  0.00  0.00    +0.000 HD
ATOM     15  H   UNL     1       3.269   3.659  22.198  0.00  0.00    +0.000 HD
ENDBRANCH   3   8
BRANCH   7  16
ATOM     16  C   UNL     1       5.467   5.419  16.251  0.00  0.00    +0.000 A 
ATOM     17  C   UNL     1       6.892   5.605  16.259  0.00  0.00    +0.000 A 
ATOM     18  C   UNL     1       7.527   5.003  15.195  0.00  0.00    +0.000 A 
ATOM     19  S   UNL     1       6.422   4.244  14.142  0.00  0.00    +0.000 S 
ATOM     20  C   UNL     1       5.099   4.689  15.128  0.00  0.00    +0.000 A 
ENDBRANCH   7  16
TORSDOF 2
ENDMDL
MODEL 7
REMARK VINA RESULT:      -6.2      3.740      6.345
REMARK  Name = 
REMARK  3 active torsions:
REMARK  status: ('A' for Active; 'I' for Inactive)
REMARK    1  A    between atoms: C_1  and  C_2
REMARK    2  A    between atoms: C_3  and  N_4
REMARK    3  A    between atoms: C_13  and  C_14
REMARK                            x       y       z     vdW  Elec       q    Type
REMARK                         _______ _______ _______ _____ _____    ______ ____
ROOT
ATOM      1  C   UNL     1       5.165   6.072  18.987  0.00  0.00    +0.000 C 
ATOM      2  C   UNL     1       3.973   5.257  18.555  0.00  0.00    +0.000 A 
ATOM      3  C   UNL     1       2.753   5.348  19.287  0.00  0.00    +0.000 A 
ATOM      4  C   UNL     1       1.717   4.445  18.987  0.00  0.00    +0.000 A 
ATOM      5  C   UNL     1       1.802   3.564  17.925  0.00  0.00    +0.000 A 
ATOM      6  C   UNL     1       2.932   3.574  17.125  0.00  0.00    +0.000 A 
ATOM      7  C   UNL     1       4.032   4.407  17.409  0.00  0.00    +0.000 A 
ENDROOT
BRANCH   3   8
ATOM      8  N   UNL     1       2.577   6.258  20.369  0.00  0.00    +0.000 N 
ATOM      9  C   UNL     1       2.006   7.487  20.212  0.00  0.00    +0.000 C 
ATOM     10  N   UNL     1       1.888   8.199  19.125  0.00  0.00    +0.000 NA
ATOM     11  C   UNL     1       1.136   9.404  19.551  0.00  0.00    +0.000 C 
ATOM     12  C   UNL     1       0.538   9.049  20.912  0.00  0.00    +0.000 C 
ATOM     13  N   UNL     1       1.428   7.990  21.341  0.00  0.00    +0.000 N 
ATOM     14  H   UNL     1       3.342   6.279  21.020  0.00  0.00    +0.000 HD
ATOM     15  H   UNL     1       0.996   7.277  21.921  0.00  0.00    +0.000 HD
ENDBRANCH   3   8
BRANCH   7  16
ATOM     16  C   UNL     1       5.168   4.385  16.463  0.00  0.00    +0.000 A 
ATOM     17  C   UNL     1       6.571   4.485  16.753  0.00  0.00    +0.000 A 
ATOM     18  C   UNL     1       7.363   4.493  15.625  0.00  0.00    +0.000 A 
ATOM     19  S   UNL     1       6.434   4.431  14.196  0.00  0.00    +0.000 S 
ATOM     20  C   UNL     1       4.977   4.355  15.088  0.00  0.00    +0.000 A 
ENDBRANCH   7  16
TORSDOF 2
ENDMDL
MODEL 8
REMARK VINA RESULT:      -6.2      4.759      6.731
REMARK  Name = 
REMARK  3 active torsions:
REMARK  status: ('A' for Active; 'I' for Inactive)
REMARK    1  A    between atoms: C_1  and  C_2
REMARK    2  A    between atoms: C_3  and  N_4
REMARK    3  A    between atoms: C_13  and  C_14
REMARK                            x       y       z     vdW  Elec       q    Type
REMARK                         _______ _______ _______ _____ _____    ______ ____
ROOT
ATOM      1  C   UNL     1       2.715   8.519  17.564  0.00  0.00    +0.000 C 
ATOM      2  C   UNL     1       2.050   8.223  18.883  0.00  0.00    +0.000 A 
ATOM      3  C   UNL     1       1.195   9.197  19.477  0.00  0.00    +0.000 A 
ATOM      4  C   UNL     1       0.737   8.984  20.790  0.00  0.00    +0.000 A 
ATOM      5  C   UNL     1       0.988   7.806  21.467  0.00  0.00    +0.000 A 
ATOM      6  C   UNL     1       1.700   6.800  20.836  0.00  0.00    +0.000 A 
ATOM      7  C   UNL     1       2.242   6.974  19.548  0.00  0.00    +0.000 A 
ENDROOT
BRANCH   3   8
ATOM      8  N   UNL     1       0.860  10.419  18.824  0.00  0.00    +0.000 N 
ATOM      9  C   UNL     1      -0.300  10.588  18.127  0.00  0.00    +0.000 C 
ATOM     10  N   UNL     1      -1.075   9.678  17.601  0.00  0.00    +0.000 NA
ATOM     11  C   UNL     1      -2.208  10.445  17.027  0.00  0.00    +0.000 C 
ATOM     12  C   UNL     1      -2.120  11.834  17.659  0.00  0.00    +0.000 C 
ATOM     13  N   UNL     1      -0.723  11.882  18.037  0.00  0.00    +0.000 N 
ATOM     14  H   UNL     1       1.636  10.877  18.379  0.00  0.00    +0.000 HD
ATOM     15  H   UNL     1      -0.525  12.426  18.870  0.00  0.00    +0.000 HD
ENDBRANCH   3   8
BRANCH   7  16
ATOM     16  C   UNL     1       2.937   5.821  18.937  0.00  0.00    +0.000 A 
ATOM     17  C   UNL     1       2.436   4.890  17.965  0.00  0.00    +0.000 A 
ATOM     18  C   UNL     1       3.332   3.890  17.654  0.00  0.00    +0.000 A 
ATOM     19  S   UNL     1       4.771   4.022  18.557  0.00  0.00    +0.000 S 
ATOM     20  C   UNL     1       4.211   5.437  19.336  0.00  0.00    +0.000 A 
ENDBRANCH   7  16
TORSDOF 2
ENDMDL
MODEL 9
REMARK VINA RESULT:      -6.1      4.994      7.380
REMARK  Name = 
REMARK  3 active torsions:
REMARK  status: ('A' for Active; 'I' for Inactive)
REMARK    1  A    between atoms: C_1  and  C_2
REMARK    2  A    between atoms: C_3  and  N_4
REMARK    3  A    between atoms: C_13  and  C_14
REMARK                            x       y       z     vdW  Elec       q    Type
REMARK                         _______ _______ _______ _____ _____    ______ ____
ROOT
ATOM      1  C   UNL     1       2.205   5.867  20.709  0.00  0.00    +0.000 C 
ATOM      2  C   UNL     1       2.143   7.066  19.799  0.00  0.00    +0.000 A 
ATOM      3  C   UNL     1       1.554   8.277  20.268  0.00  0.00    +0.000 A 
ATOM      4  C   UNL     1       1.334   9.320  19.350  0.00  0.00    +0.000 A 
ATOM      5  C   UNL     1       1.785   9.251  18.045  0.00  0.00    +0.000 A 
ATOM      6  C   UNL     1       2.482   8.130  17.628  0.00  0.00    +0.000 A 
ATOM      7  C   UNL     1       2.681   7.023  18.477  0.00  0.00    +0.000 A 
ENDROOT
BRANCH   3   8
ATOM      8  N   UNL     1       1.101   8.438  21.609  0.00  0.00    +0.000 N 
ATOM      9  C   UNL     1       0.479   9.570  22.046  0.00  0.00    +0.000 C 
ATOM     10  N   UNL     1       0.522  10.772  21.538  0.00  0.00    +0.000 NA
ATOM     11  C   UNL     1      -0.390  11.569  22.395  0.00  0.00    +0.000 C 
ATOM     12  C   UNL     1      -1.213  10.544  23.175  0.00  0.00    +0.000 C 
ATOM     13  N   UNL     1      -0.346   9.385  23.117  0.00  0.00    +0.000 N 
ATOM     14  H   UNL     1       1.720   8.057  22.303  0.00  0.00    +0.000 HD
ATOM     15  H   UNL     1      -0.826   8.492  23.103  0.00  0.00    +0.000 HD
ENDBRANCH   3   8
BRANCH   7  16
ATOM     16  C   UNL     1       3.486   5.899  17.957  0.00  0.00    +0.000 A 
ATOM     17  C   UNL     1       3.038   4.601  17.535  0.00  0.00    +0.000 A 
ATOM     18  C   UNL     1       4.066   3.763  17.161  0.00  0.00    +0.000 A 
ATOM     19  S   UNL     1       5.591   4.501  17.355  0.00  0.00    +0.000 S 
ATOM     20  C   UNL     1       4.873   5.953  17.904  0.00  0.00    +0.000 A 
ENDBRANCH   7  16
TORSDOF 2
ENDMDL
