MODEL 1
REMARK VINA RESULT:      -7.1      0.000      0.000
REMARK  Name = 
REMARK  6 active torsions:
REMARK  status: ('A' for Active; 'I' for Inactive)
REMARK    1  A    between atoms: C_1  and  O_2
REMARK    2  A    between atoms: O_2  and  C_3
REMARK    3  A    between atoms: C_3  and  C_5
REMARK    4  A    between atoms: C_11  and  C_12
REMARK    5  A    between atoms: C_15  and  O_16
REMARK    6  A    between atoms: O_16  and  C_17
REMARK                            x       y       z     vdW  Elec       q    Type
REMARK                         _______ _______ _______ _____ _____    ______ ____
ROOT
ATOM      1  C   UNL     1       5.828   4.522  15.521  0.00  0.00    +0.000 A 
ATOM      2  N   UNL     1       5.671   3.352  16.182  0.00  0.00    +0.000 NA
ATOM      3  N   UNL     1       4.894   3.706  17.214  0.00  0.00    +0.000 N 
ATOM      4  C   UNL     1       4.587   5.026  17.161  0.00  0.00    +0.000 A 
ATOM      5  N   UNL     1       3.792   5.640  18.102  0.00  0.00    +0.000 N 
ATOM      6  C   UNL     1       3.349   6.929  18.177  0.00  0.00    +0.000 A 
ATOM      7  C   UNL     1       2.536   6.940  19.289  0.00  0.00    +0.000 A 
ATOM      8  N   UNL     1       2.555   5.697  19.870  0.00  0.00    +0.000 NA
ATOM      9  N   UNL     1       3.325   4.906  19.135  0.00  0.00    +0.000 NA
ATOM     10  N   UNL     1       5.141   5.580  16.109  0.00  0.00    +0.000 NA
ATOM     11  H   UNL     1       4.610   3.018  17.905  0.00  0.00    +0.000 HD
ENDROOT
BRANCH   7  12
ATOM     12  C   UNL     1       1.738   8.050  19.776  0.00  0.00    +0.000 A 
ATOM     13  C   UNL     1       1.291   8.104  21.102  0.00  0.00    +0.000 A 
ATOM     14  C   UNL     1       0.560   9.202  21.559  0.00  0.00    +0.000 A 
ATOM     15  C   UNL     1       0.279  10.271  20.709  0.00  0.00    +0.000 A 
ATOM     16  C   UNL     1       0.702  10.222  19.383  0.00  0.00    +0.000 A 
ATOM     17  C   UNL     1       1.429   9.117  18.920  0.00  0.00    +0.000 A 
BRANCH  15  18
ATOM     18  O   UNL     1      -0.454  11.277  21.272  0.00  0.00    +0.000 OA
ATOM     19  C   UNL     1      -0.960  11.015  22.575  0.00  0.00    +0.000 C 
ENDBRANCH  15  18
ENDBRANCH   7  12
BRANCH   1  20
ATOM     20  C   UNL     1       6.658   4.669  14.308  0.00  0.00    +0.000 C 
ATOM     21  O   UNL     1       7.607   5.440  14.217  0.00  0.00    +0.000 OA
BRANCH  20  23
ATOM     22  C   UNL     1       7.014   3.934  12.098  0.00  0.00    +0.000 C 
ATOM     23  O   UNL     1       6.252   3.837  13.297  0.00  0.00    +0.000 OA
ENDBRANCH  20  23
ENDBRANCH   1  20
TORSDOF 4
ENDMDL
MODEL 2
REMARK VINA RESULT:      -7.1      0.320      1.075
REMARK  Name = 
REMARK  6 active torsions:
REMARK  status: ('A' for Active; 'I' for Inactive)
REMARK    1  A    between atoms: C_1  and  O_2
REMARK    2  A    between atoms: O_2  and  C_3
REMARK    3  A    between atoms: C_3  and  C_5
REMARK    4  A    between atoms: C_11  and  C_12
REMARK    5  A    between atoms: C_15  and  O_16
REMARK    6  A    between atoms: O_16  and  C_17
REMARK                            x       y       z     vdW  Elec       q    Type
REMARK                         _______ _______ _______ _____ _____    ______ ____
ROOT
ATOM      1  C   UNL     1       5.989   4.593  15.361  0.00  0.00    +0.000 A 
ATOM      2  N   UNL     1       5.888   3.431  16.047  0.00  0.00    +0.000 NA
ATOM      3  N   UNL     1       5.103   3.771  17.078  0.00  0.00    +0.000 N 
ATOM      4  C   UNL     1       4.738   5.074  17.000  0.00  0.00    +0.000 A 
ATOM      5  N   UNL     1       3.922   5.672  17.934  0.00  0.00    +0.000 N 
ATOM      6  C   UNL     1       3.423   6.942  17.987  0.00  0.00    +0.000 A 
ATOM      7  C   UNL     1       2.618   6.939  19.105  0.00  0.00    +0.000 A 
ATOM      8  N   UNL     1       2.695   5.710  19.710  0.00  0.00    +0.000 NA
ATOM      9  N   UNL     1       3.495   4.939  18.985  0.00  0.00    +0.000 NA
ATOM     10  N   UNL     1       5.260   5.631  15.933  0.00  0.00    +0.000 NA
ATOM     11  H   UNL     1       4.854   3.085  17.784  0.00  0.00    +0.000 HD
ENDROOT
BRANCH   7  12
ATOM     12  C   UNL     1       1.775   8.023  19.575  0.00  0.00    +0.000 A 
ATOM     13  C   UNL     1       1.389   9.069  18.728  0.00  0.00    +0.000 A 
ATOM     14  C   UNL     1       0.543  10.079  19.191  0.00  0.00    +0.000 A 
ATOM     15  C   UNL     1       0.056  10.054  20.497  0.00  0.00    +0.000 A 
ATOM     16  C   UNL     1       0.447   9.029  21.355  0.00  0.00    +0.000 A 
ATOM     17  C   UNL     1       1.302   8.019  20.895  0.00  0.00    +0.000 A 
BRANCH  15  18
ATOM     18  O   UNL     1      -0.751  11.105  20.832  0.00  0.00    +0.000 OA
ATOM     19  C   UNL     1      -0.560  11.635  22.138  0.00  0.00    +0.000 C 
ENDBRANCH  15  18
ENDBRANCH   7  12
BRANCH   1  20
ATOM     20  C   UNL     1       6.803   4.751  14.140  0.00  0.00    +0.000 C 
ATOM     21  O   UNL     1       7.730   5.547  14.034  0.00  0.00    +0.000 OA
BRANCH  20  23
ATOM     22  C   UNL     1       7.089   4.078  11.900  0.00  0.00    +0.000 C 
ATOM     23  O   UNL     1       6.412   3.899  13.139  0.00  0.00    +0.000 OA
ENDBRANCH  20  23
ENDBRANCH   1  20
TORSDOF 4
ENDMDL
MODEL 3
REMARK VINA RESULT:      -6.9      3.237      4.034
REMARK  Name = 
REMARK  6 active torsions:
REMARK  status: ('A' for Active; 'I' for Inactive)
REMARK    1  A    between atoms: C_1  and  O_2
REMARK    2  A    between atoms: O_2  and  C_3
REMARK    3  A    between atoms: C_3  and  C_5
REMARK    4  A    between atoms: C_11  and  C_12
REMARK    5  A    between atoms: C_15  and  O_16
REMARK    6  A    between atoms: O_16  and  C_17
REMARK                            x       y       z     vdW  Elec       q    Type
REMARK                         _______ _______ _______ _____ _____    ______ ____
ROOT
ATOM      1  C   UNL     1       3.925   3.905  18.963  0.00  0.00    +0.000 A 
ATOM      2  N   UNL     1       4.345   4.450  17.798  0.00  0.00    +0.000 NA
ATOM      3  N   UNL     1       3.790   5.669  17.833  0.00  0.00    +0.000 N 
ATOM      4  C   UNL     1       3.085   5.850  18.977  0.00  0.00    +0.000 A 
ATOM      5  N   UNL     1       2.425   7.023  19.263  0.00  0.00    +0.000 N 
ATOM      6  C   UNL     1       1.716   7.389  20.371  0.00  0.00    +0.000 A 
ATOM      7  C   UNL     1       1.352   8.694  20.120  0.00  0.00    +0.000 A 
ATOM      8  N   UNL     1       1.798   9.051  18.872  0.00  0.00    +0.000 NA
ATOM      9  N   UNL     1       2.455   8.022  18.355  0.00  0.00    +0.000 NA
ATOM     10  N   UNL     1       3.148   4.774  19.725  0.00  0.00    +0.000 NA
ATOM     11  H   UNL     1       3.929   6.320  17.066  0.00  0.00    +0.000 HD
ENDROOT
BRANCH   7  12
ATOM     12  C   UNL     1       0.652   9.592  21.019  0.00  0.00    +0.000 A 
ATOM     13  C   UNL     1       0.504  10.953  20.724  0.00  0.00    +0.000 A 
ATOM     14  C   UNL     1      -0.210  11.790  21.583  0.00  0.00    +0.000 A 
ATOM     15  C   UNL     1      -0.802  11.283  22.739  0.00  0.00    +0.000 A 
ATOM     16  C   UNL     1      -0.646   9.935  23.054  0.00  0.00    +0.000 A 
ATOM     17  C   UNL     1       0.076   9.095  22.196  0.00  0.00    +0.000 A 
BRANCH  15  18
ATOM     18  O   UNL     1      -1.460  12.206  23.502  0.00  0.00    +0.000 OA
ATOM     19  C   UNL     1      -2.878  12.203  23.385  0.00  0.00    +0.000 C 
ENDBRANCH  15  18
ENDBRANCH   7  12
BRANCH   1  20
ATOM     20  C   UNL     1       4.241   2.524  19.379  0.00  0.00    +0.000 C 
ATOM     21  O   UNL     1       5.047   2.242  20.259  0.00  0.00    +0.000 OA
BRANCH  20  23
ATOM     22  C   UNL     1       2.189   1.975  18.361  0.00  0.00    +0.000 C 
ATOM     23  O   UNL     1       3.523   1.592  18.676  0.00  0.00    +0.000 OA
ENDBRANCH  20  23
ENDBRANCH   1  20
TORSDOF 4
ENDMDL
MODEL 4
REMARK VINA RESULT:      -6.9      0.895      1.578
REMARK  Name = 
REMARK  6 active torsions:
REMARK  status: ('A' for Active; 'I' for Inactive)
REMARK    1  A    between atoms: C_1  and  O_2
REMARK    2  A    between atoms: O_2  and  C_3
REMARK    3  A    between atoms: C_3  and  C_5
REMARK    4  A    between atoms: C_11  and  C_12
REMARK    5  A    between atoms: C_15  and  O_16
REMARK    6  A    between atoms: O_16  and  C_17
REMARK                            x       y       z     vdW  Elec       q    Type
REMARK                         _______ _______ _______ _____ _____    ______ ____
ROOT
ATOM      1  C   UNL     1       5.953   4.417  15.192  0.00  0.00    +0.000 A 
ATOM      2  N   UNL     1       5.847   3.305  15.956  0.00  0.00    +0.000 NA
ATOM      3  N   UNL     1       5.094   3.729  16.979  0.00  0.00    +0.000 N 
ATOM      4  C   UNL     1       4.750   5.031  16.823  0.00  0.00    +0.000 A 
ATOM      5  N   UNL     1       3.969   5.706  17.733  0.00  0.00    +0.000 N 
ATOM      6  C   UNL     1       3.495   6.986  17.713  0.00  0.00    +0.000 A 
ATOM      7  C   UNL     1       2.717   7.074  18.846  0.00  0.00    +0.000 A 
ATOM      8  N   UNL     1       2.787   5.887  19.530  0.00  0.00    +0.000 NA
ATOM      9  N   UNL     1       3.554   5.053  18.841  0.00  0.00    +0.000 NA
ATOM     10  N   UNL     1       5.257   5.505  15.710  0.00  0.00    +0.000 NA
ATOM     11  H   UNL     1       4.850   3.096  17.735  0.00  0.00    +0.000 HD
ENDROOT
BRANCH   7  12
ATOM     12  C   UNL     1       1.906   8.203  19.262  0.00  0.00    +0.000 A 
ATOM     13  C   UNL     1       1.570   9.229  18.371  0.00  0.00    +0.000 A 
ATOM     14  C   UNL     1       0.754  10.285  18.782  0.00  0.00    +0.000 A 
ATOM     15  C   UNL     1       0.246  10.326  20.080  0.00  0.00    +0.000 A 
ATOM     16  C   UNL     1       0.588   9.321  20.982  0.00  0.00    +0.000 A 
ATOM     17  C   UNL     1       1.413   8.265  20.573  0.00  0.00    +0.000 A 
BRANCH  15  18
ATOM     18  O   UNL     1      -0.528  11.416  20.362  0.00  0.00    +0.000 OA
ATOM     19  C   UNL     1      -1.612  11.648  19.471  0.00  0.00    +0.000 C 
ENDBRANCH  15  18
ENDBRANCH   7  12
BRANCH   1  20
ATOM     20  C   UNL     1       6.740   4.477  13.944  0.00  0.00    +0.000 C 
ATOM     21  O   UNL     1       6.482   3.823  12.940  0.00  0.00    +0.000 OA
BRANCH  20  23
ATOM     22  C   UNL     1       8.314   5.790  12.782  0.00  0.00    +0.000 C 
ATOM     23  O   UNL     1       7.788   5.357  14.032  0.00  0.00    +0.000 OA
ENDBRANCH  20  23
ENDBRANCH   1  20
TORSDOF 4
ENDMDL
MODEL 5
REMARK VINA RESULT:      -6.9      2.728      8.644
REMARK  Name = 
REMARK  6 active torsions:
REMARK  status: ('A' for Active; 'I' for Inactive)
REMARK    1  A    between atoms: C_1  and  O_2
REMARK    2  A    between atoms: O_2  and  C_3
REMARK    3  A    between atoms: C_3  and  C_5
REMARK    4  A    between atoms: C_11  and  C_12
REMARK    5  A    between atoms: C_15  and  O_16
REMARK    6  A    between atoms: O_16  and  C_17
REMARK                            x       y       z     vdW  Elec       q    Type
REMARK                         _______ _______ _______ _____ _____    ______ ____
ROOT
ATOM      1  C   UNL     1      -0.001  11.395  19.366  0.00  0.00    +0.000 A 
ATOM      2  N   UNL     1      -0.077  11.016  20.663  0.00  0.00    +0.000 NA
ATOM      3  N   UNL     1       0.579   9.849  20.662  0.00  0.00    +0.000 N 
ATOM      4  C   UNL     1       1.043   9.553  19.423  0.00  0.00    +0.000 A 
ATOM      5  N   UNL     1       1.762   8.411  19.155  0.00  0.00    +0.000 N 
ATOM      6  C   UNL     1       2.337   7.982  17.993  0.00  0.00    +0.000 A 
ATOM      7  C   UNL     1       2.979   6.815  18.346  0.00  0.00    +0.000 A 
ATOM      8  N   UNL     1       2.731   6.553  19.670  0.00  0.00    +0.000 NA
ATOM      9  N   UNL     1       1.987   7.535  20.158  0.00  0.00    +0.000 NA
ATOM     10  N   UNL     1       0.714  10.499  18.576  0.00  0.00    +0.000 NA
ATOM     11  H   UNL     1       0.679   9.315  21.520  0.00  0.00    +0.000 HD
ENDROOT
BRANCH   7  12
ATOM     12  C   UNL     1       3.823   5.993  17.500  0.00  0.00    +0.000 A 
ATOM     13  C   UNL     1       4.737   6.562  16.605  0.00  0.00    +0.000 A 
ATOM     14  C   UNL     1       5.569   5.751  15.831  0.00  0.00    +0.000 A 
ATOM     15  C   UNL     1       5.515   4.363  15.948  0.00  0.00    +0.000 A 
ATOM     16  C   UNL     1       4.596   3.783  16.820  0.00  0.00    +0.000 A 
ATOM     17  C   UNL     1       3.756   4.596  17.592  0.00  0.00    +0.000 A 
BRANCH  15  18
ATOM     18  O   UNL     1       6.369   3.682  15.126  0.00  0.00    +0.000 OA
ATOM     19  C   UNL     1       6.234   3.954  13.737  0.00  0.00    +0.000 C 
ENDBRANCH  15  18
ENDBRANCH   7  12
BRANCH   1  20
ATOM     20  C   UNL     1      -0.625  12.624  18.836  0.00  0.00    +0.000 C 
ATOM     21  O   UNL     1      -0.373  13.751  19.247  0.00  0.00    +0.000 OA
BRANCH  20  23
ATOM     22  C   UNL     1      -2.644  11.586  18.205  0.00  0.00    +0.000 C 
ATOM     23  O   UNL     1      -1.513  12.361  17.824  0.00  0.00    +0.000 OA
ENDBRANCH  20  23
ENDBRANCH   1  20
TORSDOF 4
ENDMDL
MODEL 6
REMARK VINA RESULT:      -6.8      0.792      1.066
REMARK  Name = 
REMARK  6 active torsions:
REMARK  status: ('A' for Active; 'I' for Inactive)
REMARK    1  A    between atoms: C_1  and  O_2
REMARK    2  A    between atoms: O_2  and  C_3
REMARK    3  A    between atoms: C_3  and  C_5
REMARK    4  A    between atoms: C_11  and  C_12
REMARK    5  A    between atoms: C_15  and  O_16
REMARK    6  A    between atoms: O_16  and  C_17
REMARK                            x       y       z     vdW  Elec       q    Type
REMARK                         _______ _______ _______ _____ _____    ______ ____
ROOT
ATOM      1  C   UNL     1       5.964   4.429  15.209  0.00  0.00    +0.000 A 
ATOM      2  N   UNL     1       5.898   3.307  15.963  0.00  0.00    +0.000 NA
ATOM      3  N   UNL     1       5.154   3.702  17.005  0.00  0.00    +0.000 N 
ATOM      4  C   UNL     1       4.778   4.998  16.870  0.00  0.00    +0.000 A 
ATOM      5  N   UNL     1       3.999   5.644  17.802  0.00  0.00    +0.000 N 
ATOM      6  C   UNL     1       3.495   6.913  17.804  0.00  0.00    +0.000 A 
ATOM      7  C   UNL     1       2.737   6.971  18.953  0.00  0.00    +0.000 A 
ATOM      8  N   UNL     1       2.846   5.778  19.622  0.00  0.00    +0.000 NA
ATOM      9  N   UNL     1       3.620   4.970  18.909  0.00  0.00    +0.000 NA
ATOM     10  N   UNL     1       5.253   5.495  15.752  0.00  0.00    +0.000 NA
ATOM     11  H   UNL     1       4.939   3.056  17.758  0.00  0.00    +0.000 HD
ENDROOT
BRANCH   7  12
ATOM     12  C   UNL     1       1.908   8.076  19.396  0.00  0.00    +0.000 A 
ATOM     13  C   UNL     1       1.400   8.132  20.700  0.00  0.00    +0.000 A 
ATOM     14  C   UNL     1       0.639   9.226  21.117  0.00  0.00    +0.000 A 
ATOM     15  C   UNL     1       0.387  10.288  20.249  0.00  0.00    +0.000 A 
ATOM     16  C   UNL     1       0.871  10.236  18.944  0.00  0.00    +0.000 A 
ATOM     17  C   UNL     1       1.629   9.136  18.521  0.00  0.00    +0.000 A 
BRANCH  15  18
ATOM     18  O   UNL     1      -0.380  11.290  20.772  0.00  0.00    +0.000 OA
ATOM     19  C   UNL     1       0.324  12.462  21.165  0.00  0.00    +0.000 C 
ENDBRANCH  15  18
ENDBRANCH   7  12
BRANCH   1  20
ATOM     20  C   UNL     1       6.726   4.521  13.948  0.00  0.00    +0.000 C 
ATOM     21  O   UNL     1       6.453   3.885  12.936  0.00  0.00    +0.000 OA
BRANCH  20  23
ATOM     22  C   UNL     1       8.366   5.752  12.788  0.00  0.00    +0.000 C 
ATOM     23  O   UNL     1       7.768   5.408  14.033  0.00  0.00    +0.000 OA
ENDBRANCH  20  23
ENDBRANCH   1  20
TORSDOF 4
ENDMDL
MODEL 7
REMARK VINA RESULT:      -6.8      7.297      7.855
REMARK  Name = 
REMARK  6 active torsions:
REMARK  status: ('A' for Active; 'I' for Inactive)
REMARK    1  A    between atoms: C_1  and  O_2
REMARK    2  A    between atoms: O_2  and  C_3
REMARK    3  A    between atoms: C_3  and  C_5
REMARK    4  A    between atoms: C_11  and  C_12
REMARK    5  A    between atoms: C_15  and  O_16
REMARK    6  A    between atoms: O_16  and  C_17
REMARK                            x       y       z     vdW  Elec       q    Type
REMARK                         _______ _______ _______ _____ _____    ______ ____
ROOT
ATOM      1  C   UNL     1       7.406   6.502  17.311  0.00  0.00    +0.000 A 
ATOM      2  N   UNL     1       7.806   6.102  18.541  0.00  0.00    +0.000 NA
ATOM      3  N   UNL     1       8.347   7.218  19.046  0.00  0.00    +0.000 N 
ATOM      4  C   UNL     1       8.256   8.244  18.164  0.00  0.00    +0.000 A 
ATOM      5  N   UNL     1       8.729   9.505  18.444  0.00  0.00    +0.000 N 
ATOM      6  C   UNL     1       8.681  10.651  17.703  0.00  0.00    +0.000 A 
ATOM      7  C   UNL     1       9.245  11.605  18.522  0.00  0.00    +0.000 A 
ATOM      8  N   UNL     1       9.656  11.007  19.687  0.00  0.00    +0.000 NA
ATOM      9  N   UNL     1       9.335   9.722  19.632  0.00  0.00    +0.000 NA
ATOM     10  N   UNL     1       7.663   7.847  17.064  0.00  0.00    +0.000 NA
ATOM     11  H   UNL     1       8.749   7.218  19.978  0.00  0.00    +0.000 HD
ENDROOT
BRANCH   7  12
ATOM     12  C   UNL     1       9.363  13.026  18.253  0.00  0.00    +0.000 A 
ATOM     13  C   UNL     1       8.422  13.942  18.737  0.00  0.00    +0.000 A 
ATOM     14  C   UNL     1       8.579  15.309  18.501  0.00  0.00    +0.000 A 
ATOM     15  C   UNL     1       9.684  15.786  17.796  0.00  0.00    +0.000 A 
ATOM     16  C   UNL     1      10.618  14.883  17.294  0.00  0.00    +0.000 A 
ATOM     17  C   UNL     1      10.458  13.510  17.523  0.00  0.00    +0.000 A 
BRANCH  15  18
ATOM     18  O   UNL     1       9.715  17.141  17.621  0.00  0.00    +0.000 OA
ATOM     19  C   UNL     1       8.714  17.874  18.317  0.00  0.00    +0.000 C 
ENDBRANCH  15  18
ENDBRANCH   7  12
BRANCH   1  20
ATOM     20  C   UNL     1       6.775   5.602  16.325  0.00  0.00    +0.000 C 
ATOM     21  O   UNL     1       5.746   4.970  16.536  0.00  0.00    +0.000 OA
BRANCH  20  23
ATOM     22  C   UNL     1       6.881   4.745  14.133  0.00  0.00    +0.000 C 
ATOM     23  O   UNL     1       7.467   5.560  15.142  0.00  0.00    +0.000 OA
ENDBRANCH  20  23
ENDBRANCH   1  20
TORSDOF 4
ENDMDL
MODEL 8
REMARK VINA RESULT:      -6.8      2.754      8.618
REMARK  Name = 
REMARK  6 active torsions:
REMARK  status: ('A' for Active; 'I' for Inactive)
REMARK    1  A    between atoms: C_1  and  O_2
REMARK    2  A    between atoms: O_2  and  C_3
REMARK    3  A    between atoms: C_3  and  C_5
REMARK    4  A    between atoms: C_11  and  C_12
REMARK    5  A    between atoms: C_15  and  O_16
REMARK    6  A    between atoms: O_16  and  C_17
REMARK                            x       y       z     vdW  Elec       q    Type
REMARK                         _______ _______ _______ _____ _____    ______ ____
ROOT
ATOM      1  C   UNL     1      -0.139  11.366  19.408  0.00  0.00    +0.000 A 
ATOM      2  N   UNL     1      -0.196  11.004  20.711  0.00  0.00    +0.000 NA
ATOM      3  N   UNL     1       0.487   9.852  20.721  0.00  0.00    +0.000 N 
ATOM      4  C   UNL     1       0.946   9.549  19.482  0.00  0.00    +0.000 A 
ATOM      5  N   UNL     1       1.688   8.419  19.222  0.00  0.00    +0.000 N 
ATOM      6  C   UNL     1       2.262   7.987  18.062  0.00  0.00    +0.000 A 
ATOM      7  C   UNL     1       2.932   6.840  18.425  0.00  0.00    +0.000 A 
ATOM      8  N   UNL     1       2.703   6.590  19.755  0.00  0.00    +0.000 NA
ATOM      9  N   UNL     1       1.941   7.563  20.236  0.00  0.00    +0.000 NA
ATOM     10  N   UNL     1       0.588  10.475  18.624  0.00  0.00    +0.000 NA
ATOM     11  H   UNL     1       0.606   9.332  21.585  0.00  0.00    +0.000 HD
ENDROOT
BRANCH   7  12
ATOM     12  C   UNL     1       3.787   6.024  17.582  0.00  0.00    +0.000 A 
ATOM     13  C   UNL     1       3.726   4.626  17.615  0.00  0.00    +0.000 A 
ATOM     14  C   UNL     1       4.528   3.862  16.765  0.00  0.00    +0.000 A 
ATOM     15  C   UNL     1       5.390   4.479  15.858  0.00  0.00    +0.000 A 
ATOM     16  C   UNL     1       5.474   5.869  15.829  0.00  0.00    +0.000 A 
ATOM     17  C   UNL     1       4.675   6.636  16.687  0.00  0.00    +0.000 A 
BRANCH  15  18
ATOM     18  O   UNL     1       6.130   3.622  15.093  0.00  0.00    +0.000 OA
ATOM     19  C   UNL     1       6.443   4.081  13.784  0.00  0.00    +0.000 C 
ENDBRANCH  15  18
ENDBRANCH   7  12
BRANCH   1  20
ATOM     20  C   UNL     1      -0.796  12.573  18.867  0.00  0.00    +0.000 C 
ATOM     21  O   UNL     1      -0.662  13.696  19.341  0.00  0.00    +0.000 OA
BRANCH  20  23
ATOM     22  C   UNL     1      -2.800  11.646  18.045  0.00  0.00    +0.000 C 
ATOM     23  O   UNL     1      -1.565  12.297  17.766  0.00  0.00    +0.000 OA
ENDBRANCH  20  23
ENDBRANCH   1  20
TORSDOF 4
ENDMDL
MODEL 9
REMARK VINA RESULT:      -6.8      7.463      8.093
REMARK  Name = 
REMARK  6 active torsions:
REMARK  status: ('A' for Active; 'I' for Inactive)
REMARK    1  A    between atoms: C_1  and  O_2
REMARK    2  A    between atoms: O_2  and  C_3
REMARK    3  A    between atoms: C_3  and  C_5
REMARK    4  A    between atoms: C_11  and  C_12
REMARK    5  A    between atoms: C_15  and  O_16
REMARK    6  A    between atoms: O_16  and  C_17
REMARK                            x       y       z     vdW  Elec       q    Type
REMARK                         _______ _______ _______ _____ _____    ______ ____
ROOT
ATOM      1  C   UNL     1       7.477   6.721  17.336  0.00  0.00    +0.000 A 
ATOM      2  N   UNL     1       7.878   6.337  18.570  0.00  0.00    +0.000 NA
ATOM      3  N   UNL     1       8.412   7.461  19.064  0.00  0.00    +0.000 N 
ATOM      4  C   UNL     1       8.317   8.477  18.171  0.00  0.00    +0.000 A 
ATOM      5  N   UNL     1       8.783   9.744  18.438  0.00  0.00    +0.000 N 
ATOM      6  C   UNL     1       8.730  10.881  17.684  0.00  0.00    +0.000 A 
ATOM      7  C   UNL     1       9.287  11.847  18.493  0.00  0.00    +0.000 A 
ATOM      8  N   UNL     1       9.700  11.264  19.665  0.00  0.00    +0.000 NA
ATOM      9  N   UNL     1       9.386   9.977  19.623  0.00  0.00    +0.000 NA
ATOM     10  N   UNL     1       7.727   8.065  17.074  0.00  0.00    +0.000 NA
ATOM     11  H   UNL     1       8.813   7.474  19.997  0.00  0.00    +0.000 HD
ENDROOT
BRANCH   7  12
ATOM     12  C   UNL     1       9.399  13.265  18.209  0.00  0.00    +0.000 A 
ATOM     13  C   UNL     1       8.362  14.155  18.513  0.00  0.00    +0.000 A 
ATOM     14  C   UNL     1       8.507  15.522  18.269  0.00  0.00    +0.000 A 
ATOM     15  C   UNL     1       9.694  16.026  17.736  0.00  0.00    +0.000 A 
ATOM     16  C   UNL     1      10.726  15.148  17.412  0.00  0.00    +0.000 A 
ATOM     17  C   UNL     1      10.578  13.776  17.649  0.00  0.00    +0.000 A 
BRANCH  15  18
ATOM     18  O   UNL     1       9.706  17.377  17.532  0.00  0.00    +0.000 OA
ATOM     19  C   UNL     1       8.885  18.139  18.409  0.00  0.00    +0.000 C 
ENDBRANCH  15  18
ENDBRANCH   7  12
BRANCH   1  20
ATOM     20  C   UNL     1       6.852   5.807  16.359  0.00  0.00    +0.000 C 
ATOM     21  O   UNL     1       7.374   4.771  15.961  0.00  0.00    +0.000 OA
BRANCH  20  23
ATOM     22  C   UNL     1       4.609   6.204  16.958  0.00  0.00    +0.000 C 
ATOM     23  O   UNL     1       5.617   6.243  15.954  0.00  0.00    +0.000 OA
ENDBRANCH  20  23
ENDBRANCH   1  20
TORSDOF 4
ENDMDL
