MODEL 1
REMARK VINA RESULT:      -6.9      0.000      0.000
REMARK  Name = 
REMARK  13 active torsions:
REMARK  status: ('A' for Active; 'I' for Inactive)
REMARK    1  A    between atoms: C_1  and  C_2
REMARK    2  A    between atoms: C_2  and  C_3
REMARK    3  A    between atoms: C_3  and  C_4
REMARK    4  A    between atoms: C_4  and  S_5
REMARK    5  A    between atoms: S_5  and  C_6
REMARK    6  A    between atoms: C_6  and  C_7
REMARK    7  A    between atoms: C_7  and  C_8
REMARK    8  A    between atoms: C_8  and  N_9
REMARK    9  A    between atoms: C_10  and  C_12
REMARK   10  A    between atoms: C_15  and  C_16
REMARK   11  A    between atoms: C_16  and  N_17
REMARK   12  A    between atoms: N_17  and  S_18
REMARK   13  A    between atoms: S_18  and  C_21
REMARK                            x       y       z     vdW  Elec       q    Type
REMARK                         _______ _______ _______ _____ _____    ______ ____
ROOT
ATOM      1  C   UNL     1       2.243   4.481  17.761  0.00  0.00    +0.000 C 
ATOM      2  C   UNL     1       1.512   3.895  18.975  0.00  0.00    +0.000 C 
ATOM      3  C   UNL     1       2.284   4.126  20.273  0.00  0.00    +0.000 C 
ATOM      4  C   UNL     1       2.553   5.617  20.533  0.00  0.00    +0.000 C 
ATOM      5  C   UNL     1       3.321   6.209  19.340  0.00  0.00    +0.000 C 
ATOM      6  C   UNL     1       2.641   5.949  17.990  0.00  0.00    +0.000 C 
ENDROOT
BRANCH   1   8
ATOM      7  N   UNL     1       4.392   4.271  16.632  0.00  0.00    +0.000 N 
ATOM      8  C   UNL     1       3.431   3.598  17.362  0.00  0.00    +0.000 C 
ATOM      9  O   UNL     1       3.522   2.411  17.657  0.00  0.00    +0.000 OA
ATOM     10  H   UNL     1       4.288   5.266  16.483  0.00  0.00    +0.000 HD
BRANCH   7  11
ATOM     11  C   UNL     1       5.568   3.613  16.103  0.00  0.00    +0.000 C 
BRANCH  11  12
ATOM     12  C   UNL     1       6.851   4.418  16.317  0.00  0.00    +0.000 C 
BRANCH  12  13
ATOM     13  C   UNL     1       6.613   5.928  16.413  0.00  0.00    +0.000 C 
BRANCH  13  14
ATOM     14  S   UNL     1       7.330   6.521  17.982  0.00  0.00    +0.000 S 
BRANCH  14  15
ATOM     15  C   UNL     1       7.600   8.280  17.584  0.00  0.00    +0.000 C 
BRANCH  15  16
ATOM     16  C   UNL     1       8.650   8.828  18.554  0.00  0.00    +0.000 C 
BRANCH  16  18
ATOM     17  C   UNL     1       9.789  10.882  19.448  0.00  0.00    +0.000 C 
ATOM     18  C   UNL     1       8.965  10.304  18.305  0.00  0.00    +0.000 C 
ENDBRANCH  16  18
ENDBRANCH  15  16
ENDBRANCH  14  15
ENDBRANCH  13  14
ENDBRANCH  12  13
ENDBRANCH  11  12
ENDBRANCH   7  11
ENDBRANCH   1   8
BRANCH   4  19
ATOM     19  C   UNL     1       1.277   6.435  20.819  0.00  0.00    +0.000 C 
BRANCH  19  20
ATOM     20  N   UNL     1       1.594   7.868  20.898  0.00  0.00    +0.000 NA
ATOM     21  H   UNL     1       1.857   8.328  20.026  0.00  0.00    +0.000 HD
BRANCH  20  22
ATOM     22  S   UNL     1       0.542   8.852  21.778  0.00  0.00    +0.000 S 
ATOM     23  O   UNL     1      -0.641   8.067  22.033  0.00  0.00    +0.000 OA
ATOM     24  O   UNL     1       1.311   9.442  22.854  0.00  0.00    +0.000 OA
BRANCH  22  25
ATOM     25  C   UNL     1       0.115  10.121  20.613  0.00  0.00    +0.000 A 
ATOM     26  C   UNL     1       0.352   9.920  19.252  0.00  0.00    +0.000 A 
ATOM     27  C   UNL     1       0.023  10.928  18.345  0.00  0.00    +0.000 A 
ATOM     28  C   UNL     1      -0.542  12.123  18.799  0.00  0.00    +0.000 A 
ATOM     29  C   UNL     1      -0.783  12.314  20.160  0.00  0.00    +0.000 A 
ATOM     30  C   UNL     1      -0.457  11.312  21.073  0.00  0.00    +0.000 A 
ENDBRANCH  22  25
ENDBRANCH  20  22
ENDBRANCH  19  20
ENDBRANCH   4  19
TORSDOF 12
ENDMDL
MODEL 2
REMARK VINA RESULT:      -6.6      3.000      8.809
REMARK  Name = 
REMARK  13 active torsions:
REMARK  status: ('A' for Active; 'I' for Inactive)
REMARK    1  A    between atoms: C_1  and  C_2
REMARK    2  A    between atoms: C_2  and  C_3
REMARK    3  A    between atoms: C_3  and  C_4
REMARK    4  A    between atoms: C_4  and  S_5
REMARK    5  A    between atoms: S_5  and  C_6
REMARK    6  A    between atoms: C_6  and  C_7
REMARK    7  A    between atoms: C_7  and  C_8
REMARK    8  A    between atoms: C_8  and  N_9
REMARK    9  A    between atoms: C_10  and  C_12
REMARK   10  A    between atoms: C_15  and  C_16
REMARK   11  A    between atoms: C_16  and  N_17
REMARK   12  A    between atoms: N_17  and  S_18
REMARK   13  A    between atoms: S_18  and  C_21
REMARK                            x       y       z     vdW  Elec       q    Type
REMARK                         _______ _______ _______ _____ _____    ______ ____
ROOT
ATOM      1  C   UNL     1       2.342   6.050  18.658  0.00  0.00    +0.000 C 
ATOM      2  C   UNL     1       3.821   6.362  18.400  0.00  0.00    +0.000 C 
ATOM      3  C   UNL     1       4.742   5.302  18.998  0.00  0.00    +0.000 C 
ATOM      4  C   UNL     1       4.436   3.894  18.462  0.00  0.00    +0.000 C 
ATOM      5  C   UNL     1       2.966   3.551  18.751  0.00  0.00    +0.000 C 
ATOM      6  C   UNL     1       1.983   4.613  18.243  0.00  0.00    +0.000 C 
ENDROOT
BRANCH   1   8
ATOM      7  N   UNL     1       1.767   7.706  20.350  0.00  0.00    +0.000 N 
ATOM      8  C   UNL     1       1.965   6.360  20.112  0.00  0.00    +0.000 C 
ATOM      9  O   UNL     1       1.853   5.501  20.981  0.00  0.00    +0.000 OA
ATOM     10  H   UNL     1       1.807   8.354  19.575  0.00  0.00    +0.000 HD
BRANCH   7  11
ATOM     11  C   UNL     1       1.463   8.225  21.667  0.00  0.00    +0.000 C 
BRANCH  11  12
ATOM     12  C   UNL     1       0.294   9.212  21.666  0.00  0.00    +0.000 C 
BRANCH  12  13
ATOM     13  C   UNL     1       0.526  10.428  20.764  0.00  0.00    +0.000 C 
BRANCH  13  14
ATOM     14  S   UNL     1      -0.544  11.785  21.349  0.00  0.00    +0.000 S 
BRANCH  14  15
ATOM     15  C   UNL     1      -1.287  12.328  19.774  0.00  0.00    +0.000 C 
BRANCH  15  16
ATOM     16  C   UNL     1      -1.083  11.213  18.746  0.00  0.00    +0.000 C 
BRANCH  16  18
ATOM     17  C   UNL     1      -2.802   9.785  17.597  0.00  0.00    +0.000 C 
ATOM     18  C   UNL     1      -2.190  11.177  17.692  0.00  0.00    +0.000 C 
ENDBRANCH  16  18
ENDBRANCH  15  16
ENDBRANCH  14  15
ENDBRANCH  13  14
ENDBRANCH  12  13
ENDBRANCH  11  12
ENDBRANCH   7  11
ENDBRANCH   1   8
BRANCH   4  19
ATOM     19  C   UNL     1       4.752   3.721  16.963  0.00  0.00    +0.000 C 
BRANCH  19  20
ATOM     20  N   UNL     1       6.136   4.125  16.680  0.00  0.00    +0.000 NA
ATOM     21  H   UNL     1       6.790   3.381  16.434  0.00  0.00    +0.000 HD
BRANCH  20  22
ATOM     22  S   UNL     1       6.370   5.459  15.673  0.00  0.00    +0.000 S 
ATOM     23  O   UNL     1       5.137   6.209  15.689  0.00  0.00    +0.000 OA
ATOM     24  O   UNL     1       7.632   6.061  16.048  0.00  0.00    +0.000 OA
BRANCH  22  25
ATOM     25  C   UNL     1       6.539   4.721  14.068  0.00  0.00    +0.000 A 
ATOM     26  C   UNL     1       7.592   5.105  13.236  0.00  0.00    +0.000 A 
ATOM     27  C   UNL     1       7.710   4.526  11.971  0.00  0.00    +0.000 A 
ATOM     28  C   UNL     1       6.784   3.569  11.549  0.00  0.00    +0.000 A 
ATOM     29  C   UNL     1       5.739   3.184  12.389  0.00  0.00    +0.000 A 
ATOM     30  C   UNL     1       5.613   3.757  13.653  0.00  0.00    +0.000 A 
ENDBRANCH  22  25
ENDBRANCH  20  22
ENDBRANCH  19  20
ENDBRANCH   4  19
TORSDOF 12
ENDMDL
MODEL 3
REMARK VINA RESULT:      -6.5      4.801      6.871
REMARK  Name = 
REMARK  13 active torsions:
REMARK  status: ('A' for Active; 'I' for Inactive)
REMARK    1  A    between atoms: C_1  and  C_2
REMARK    2  A    between atoms: C_2  and  C_3
REMARK    3  A    between atoms: C_3  and  C_4
REMARK    4  A    between atoms: C_4  and  S_5
REMARK    5  A    between atoms: S_5  and  C_6
REMARK    6  A    between atoms: C_6  and  C_7
REMARK    7  A    between atoms: C_7  and  C_8
REMARK    8  A    between atoms: C_8  and  N_9
REMARK    9  A    between atoms: C_10  and  C_12
REMARK   10  A    between atoms: C_15  and  C_16
REMARK   11  A    between atoms: C_16  and  N_17
REMARK   12  A    between atoms: N_17  and  S_18
REMARK   13  A    between atoms: S_18  and  C_21
REMARK                            x       y       z     vdW  Elec       q    Type
REMARK                         _______ _______ _______ _____ _____    ______ ____
ROOT
ATOM      1  C   UNL     1       7.445   6.552  17.313  0.00  0.00    +0.000 C 
ATOM      2  C   UNL     1       7.457   5.662  18.561  0.00  0.00    +0.000 C 
ATOM      3  C   UNL     1       6.155   5.768  19.352  0.00  0.00    +0.000 C 
ATOM      4  C   UNL     1       4.926   5.406  18.503  0.00  0.00    +0.000 C 
ATOM      5  C   UNL     1       4.878   6.320  17.267  0.00  0.00    +0.000 C 
ATOM      6  C   UNL     1       6.183   6.322  16.462  0.00  0.00    +0.000 C 
ENDROOT
BRANCH   1   8
ATOM      7  N   UNL     1       8.617   8.214  18.655  0.00  0.00    +0.000 N 
ATOM      8  C   UNL     1       7.645   8.025  17.692  0.00  0.00    +0.000 C 
ATOM      9  O   UNL     1       7.007   8.946  17.193  0.00  0.00    +0.000 OA
ATOM     10  H   UNL     1       9.155   7.418  18.973  0.00  0.00    +0.000 HD
BRANCH   7  11
ATOM     11  C   UNL     1       8.926   9.518  19.201  0.00  0.00    +0.000 C 
BRANCH  11  12
ATOM     12  C   UNL     1       9.497  10.483  18.161  0.00  0.00    +0.000 C 
BRANCH  12  13
ATOM     13  C   UNL     1      10.018  11.790  18.765  0.00  0.00    +0.000 C 
BRANCH  13  14
ATOM     14  S   UNL     1      11.598  12.205  17.952  0.00  0.00    +0.000 S 
BRANCH  14  15
ATOM     15  C   UNL     1      12.185  13.555  19.029  0.00  0.00    +0.000 C 
BRANCH  15  16
ATOM     16  C   UNL     1      11.343  14.798  18.730  0.00  0.00    +0.000 C 
BRANCH  16  18
ATOM     17  C   UNL     1      11.051  16.431  16.842  0.00  0.00    +0.000 C 
ATOM     18  C   UNL     1      11.046  14.961  17.238  0.00  0.00    +0.000 C 
ENDBRANCH  16  18
ENDBRANCH  15  16
ENDBRANCH  14  15
ENDBRANCH  13  14
ENDBRANCH  12  13
ENDBRANCH  11  12
ENDBRANCH   7  11
ENDBRANCH   1   8
BRANCH   4  19
ATOM     19  C   UNL     1       4.877   3.923  18.086  0.00  0.00    +0.000 C 
BRANCH  19  20
ATOM     20  N   UNL     1       5.482   3.078  19.125  0.00  0.00    +0.000 NA
ATOM     21  H   UNL     1       6.007   3.557  19.858  0.00  0.00    +0.000 HD
BRANCH  20  22
ATOM     22  S   UNL     1       4.523   1.863  19.799  0.00  0.00    +0.000 S 
ATOM     23  O   UNL     1       4.438   0.812  18.814  0.00  0.00    +0.000 OA
ATOM     24  O   UNL     1       5.024   1.616  21.134  0.00  0.00    +0.000 OA
BRANCH  22  25
ATOM     25  C   UNL     1       2.929   2.633  19.916  0.00  0.00    +0.000 A 
ATOM     26  C   UNL     1       1.900   2.228  19.065  0.00  0.00    +0.000 A 
ATOM     27  C   UNL     1       0.652   2.847  19.157  0.00  0.00    +0.000 A 
ATOM     28  C   UNL     1       0.440   3.859  20.098  0.00  0.00    +0.000 A 
ATOM     29  C   UNL     1       1.471   4.253  20.951  0.00  0.00    +0.000 A 
ATOM     30  C   UNL     1       2.719   3.641  20.864  0.00  0.00    +0.000 A 
ENDBRANCH  22  25
ENDBRANCH  20  22
ENDBRANCH  19  20
ENDBRANCH   4  19
TORSDOF 12
ENDMDL
MODEL 4
REMARK VINA RESULT:      -6.5      2.320      7.595
REMARK  Name = 
REMARK  13 active torsions:
REMARK  status: ('A' for Active; 'I' for Inactive)
REMARK    1  A    between atoms: C_1  and  C_2
REMARK    2  A    between atoms: C_2  and  C_3
REMARK    3  A    between atoms: C_3  and  C_4
REMARK    4  A    between atoms: C_4  and  S_5
REMARK    5  A    between atoms: S_5  and  C_6
REMARK    6  A    between atoms: C_6  and  C_7
REMARK    7  A    between atoms: C_7  and  C_8
REMARK    8  A    between atoms: C_8  and  N_9
REMARK    9  A    between atoms: C_10  and  C_12
REMARK   10  A    between atoms: C_15  and  C_16
REMARK   11  A    between atoms: C_16  and  N_17
REMARK   12  A    between atoms: N_17  and  S_18
REMARK   13  A    between atoms: S_18  and  C_21
REMARK                            x       y       z     vdW  Elec       q    Type
REMARK                         _______ _______ _______ _____ _____    ______ ____
ROOT
ATOM      1  C   UNL     1       1.886   3.286  18.865  0.00  0.00    +0.000 C 
ATOM      2  C   UNL     1       1.895   4.228  17.655  0.00  0.00    +0.000 C 
ATOM      3  C   UNL     1       3.116   5.145  17.653  0.00  0.00    +0.000 C 
ATOM      4  C   UNL     1       4.436   4.358  17.672  0.00  0.00    +0.000 C 
ATOM      5  C   UNL     1       4.459   3.437  18.904  0.00  0.00    +0.000 C 
ATOM      6  C   UNL     1       3.222   2.537  19.013  0.00  0.00    +0.000 C 
ENDROOT
BRANCH   1   8
ATOM      7  N   UNL     1       1.600   5.410  20.024  0.00  0.00    +0.000 N 
ATOM      8  C   UNL     1       1.483   4.039  20.139  0.00  0.00    +0.000 C 
ATOM      9  O   UNL     1       1.096   3.482  21.161  0.00  0.00    +0.000 OA
ATOM     10  H   UNL     1       1.858   5.808  19.131  0.00  0.00    +0.000 HD
BRANCH   7  11
ATOM     11  C   UNL     1       1.328   6.308  21.126  0.00  0.00    +0.000 C 
BRANCH  11  12
ATOM     12  C   UNL     1       1.776   7.745  20.851  0.00  0.00    +0.000 C 
BRANCH  12  13
ATOM     13  C   UNL     1       1.358   8.732  21.945  0.00  0.00    +0.000 C 
BRANCH  13  14
ATOM     14  S   UNL     1      -0.439   9.014  21.805  0.00  0.00    +0.000 S 
BRANCH  14  15
ATOM     15  C   UNL     1      -0.461  10.532  20.794  0.00  0.00    +0.000 C 
BRANCH  15  16
ATOM     16  C   UNL     1      -0.249  10.130  19.332  0.00  0.00    +0.000 C 
BRANCH  16  18
ATOM     17  C   UNL     1       1.705   9.679  17.816  0.00  0.00    +0.000 C 
ATOM     18  C   UNL     1       1.053  10.687  18.754  0.00  0.00    +0.000 C 
ENDBRANCH  16  18
ENDBRANCH  15  16
ENDBRANCH  14  15
ENDBRANCH  13  14
ENDBRANCH  12  13
ENDBRANCH  11  12
ENDBRANCH   7  11
ENDBRANCH   1   8
BRANCH   4  19
ATOM     19  C   UNL     1       4.693   3.550  16.384  0.00  0.00    +0.000 C 
BRANCH  19  20
ATOM     20  N   UNL     1       6.083   3.722  15.940  0.00  0.00    +0.000 NA
ATOM     21  H   UNL     1       6.459   3.005  15.318  0.00  0.00    +0.000 HD
BRANCH  20  22
ATOM     22  S   UNL     1       6.547   5.254  15.404  0.00  0.00    +0.000 S 
ATOM     23  O   UNL     1       7.615   5.053  14.454  0.00  0.00    +0.000 OA
ATOM     24  O   UNL     1       5.337   5.966  15.050  0.00  0.00    +0.000 OA
BRANCH  22  25
ATOM     25  C   UNL     1       7.243   5.991  16.860  0.00  0.00    +0.000 A 
ATOM     26  C   UNL     1       7.524   5.196  17.973  0.00  0.00    +0.000 A 
ATOM     27  C   UNL     1       8.062   5.788  19.117  0.00  0.00    +0.000 A 
ATOM     28  C   UNL     1       8.318   7.162  19.142  0.00  0.00    +0.000 A 
ATOM     29  C   UNL     1       8.043   7.948  18.024  0.00  0.00    +0.000 A 
ATOM     30  C   UNL     1       7.505   7.366  16.877  0.00  0.00    +0.000 A 
ENDBRANCH  22  25
ENDBRANCH  20  22
ENDBRANCH  19  20
ENDBRANCH   4  19
TORSDOF 12
ENDMDL
MODEL 5
REMARK VINA RESULT:      -6.4      3.858      6.251
REMARK  Name = 
REMARK  13 active torsions:
REMARK  status: ('A' for Active; 'I' for Inactive)
REMARK    1  A    between atoms: C_1  and  C_2
REMARK    2  A    between atoms: C_2  and  C_3
REMARK    3  A    between atoms: C_3  and  C_4
REMARK    4  A    between atoms: C_4  and  S_5
REMARK    5  A    between atoms: S_5  and  C_6
REMARK    6  A    between atoms: C_6  and  C_7
REMARK    7  A    between atoms: C_7  and  C_8
REMARK    8  A    between atoms: C_8  and  N_9
REMARK    9  A    between atoms: C_10  and  C_12
REMARK   10  A    between atoms: C_15  and  C_16
REMARK   11  A    between atoms: C_16  and  N_17
REMARK   12  A    between atoms: N_17  and  S_18
REMARK   13  A    between atoms: S_18  and  C_21
REMARK                            x       y       z     vdW  Elec       q    Type
REMARK                         _______ _______ _______ _____ _____    ______ ____
ROOT
ATOM      1  C   UNL     1       6.137   7.033  17.802  0.00  0.00    +0.000 C 
ATOM      2  C   UNL     1       5.985   6.674  16.318  0.00  0.00    +0.000 C 
ATOM      3  C   UNL     1       6.769   5.416  15.951  0.00  0.00    +0.000 C 
ATOM      4  C   UNL     1       6.352   4.202  16.795  0.00  0.00    +0.000 C 
ATOM      5  C   UNL     1       6.538   4.533  18.285  0.00  0.00    +0.000 C 
ATOM      6  C   UNL     1       5.837   5.829  18.711  0.00  0.00    +0.000 C 
ENDROOT
BRANCH   1   8
ATOM      7  N   UNL     1       7.579   8.996  17.747  0.00  0.00    +0.000 N 
ATOM      8  C   UNL     1       7.512   7.656  18.073  0.00  0.00    +0.000 C 
ATOM      9  O   UNL     1       8.461   7.029  18.532  0.00  0.00    +0.000 OA
ATOM     10  H   UNL     1       6.740   9.469  17.438  0.00  0.00    +0.000 HD
BRANCH   7  11
ATOM     11  C   UNL     1       8.799   9.765  17.867  0.00  0.00    +0.000 C 
BRANCH  11  12
ATOM     12  C   UNL     1       9.141  10.123  19.314  0.00  0.00    +0.000 C 
BRANCH  12  13
ATOM     13  C   UNL     1      10.003  11.383  19.442  0.00  0.00    +0.000 C 
BRANCH  13  14
ATOM     14  S   UNL     1      10.174  12.129  17.786  0.00  0.00    +0.000 S 
BRANCH  14  15
ATOM     15  C   UNL     1      11.932  12.615  17.817  0.00  0.00    +0.000 C 
BRANCH  15  16
ATOM     16  C   UNL     1      12.062  13.961  17.100  0.00  0.00    +0.000 C 
BRANCH  16  18
ATOM     17  C   UNL     1      10.975  16.200  16.745  0.00  0.00    +0.000 C 
ATOM     18  C   UNL     1      11.174  15.043  17.717  0.00  0.00    +0.000 C 
ENDBRANCH  16  18
ENDBRANCH  15  16
ENDBRANCH  14  15
ENDBRANCH  13  14
ENDBRANCH  12  13
ENDBRANCH  11  12
ENDBRANCH   7  11
ENDBRANCH   1   8
BRANCH   4  19
ATOM     19  C   UNL     1       4.913   3.722  16.520  0.00  0.00    +0.000 C 
BRANCH  19  20
ATOM     20  N   UNL     1       4.397   2.962  17.668  0.00  0.00    +0.000 NA
ATOM     21  H   UNL     1       4.909   3.053  18.546  0.00  0.00    +0.000 HD
BRANCH  20  22
ATOM     22  S   UNL     1       2.735   3.017  17.957  0.00  0.00    +0.000 S 
ATOM     23  O   UNL     1       2.091   3.021  16.666  0.00  0.00    +0.000 OA
ATOM     24  O   UNL     1       2.442   2.006  18.951  0.00  0.00    +0.000 OA
BRANCH  22  25
ATOM     25  C   UNL     1       2.511   4.620  18.685  0.00  0.00    +0.000 A 
ATOM     26  C   UNL     1       2.339   4.736  20.065  0.00  0.00    +0.000 A 
ATOM     27  C   UNL     1       2.153   6.001  20.627  0.00  0.00    +0.000 A 
ATOM     28  C   UNL     1       2.144   7.136  19.811  0.00  0.00    +0.000 A 
ATOM     29  C   UNL     1       2.325   7.013  18.434  0.00  0.00    +0.000 A 
ATOM     30  C   UNL     1       2.510   5.754  17.865  0.00  0.00    +0.000 A 
ENDBRANCH  22  25
ENDBRANCH  20  22
ENDBRANCH  19  20
ENDBRANCH   4  19
TORSDOF 12
ENDMDL
MODEL 6
REMARK VINA RESULT:      -6.4      3.917      6.196
REMARK  Name = 
REMARK  13 active torsions:
REMARK  status: ('A' for Active; 'I' for Inactive)
REMARK    1  A    between atoms: C_1  and  C_2
REMARK    2  A    between atoms: C_2  and  C_3
REMARK    3  A    between atoms: C_3  and  C_4
REMARK    4  A    between atoms: C_4  and  S_5
REMARK    5  A    between atoms: S_5  and  C_6
REMARK    6  A    between atoms: C_6  and  C_7
REMARK    7  A    between atoms: C_7  and  C_8
REMARK    8  A    between atoms: C_8  and  N_9
REMARK    9  A    between atoms: C_10  and  C_12
REMARK   10  A    between atoms: C_15  and  C_16
REMARK   11  A    between atoms: C_16  and  N_17
REMARK   12  A    between atoms: N_17  and  S_18
REMARK   13  A    between atoms: S_18  and  C_21
REMARK                            x       y       z     vdW  Elec       q    Type
REMARK                         _______ _______ _______ _____ _____    ______ ____
ROOT
ATOM      1  C   UNL     1       6.723   7.092  17.262  0.00  0.00    +0.000 C 
ATOM      2  C   UNL     1       7.214   5.867  16.480  0.00  0.00    +0.000 C 
ATOM      3  C   UNL     1       7.407   4.652  17.384  0.00  0.00    +0.000 C 
ATOM      4  C   UNL     1       6.120   4.272  18.134  0.00  0.00    +0.000 C 
ATOM      5  C   UNL     1       5.638   5.480  18.955  0.00  0.00    +0.000 C 
ATOM      6  C   UNL     1       5.493   6.761  18.125  0.00  0.00    +0.000 C 
ENDROOT
BRANCH   1   8
ATOM      7  N   UNL     1       8.103   9.038  17.755  0.00  0.00    +0.000 N 
ATOM      8  C   UNL     1       7.867   7.715  18.072  0.00  0.00    +0.000 C 
ATOM      9  O   UNL     1       8.512   7.102  18.916  0.00  0.00    +0.000 OA
ATOM     10  H   UNL     1       7.490   9.504  17.099  0.00  0.00    +0.000 HD
BRANCH   7  11
ATOM     11  C   UNL     1       9.177   9.801  18.357  0.00  0.00    +0.000 C 
BRANCH  11  12
ATOM     12  C   UNL     1       8.851  11.290  18.489  0.00  0.00    +0.000 C 
BRANCH  12  13
ATOM     13  C   UNL     1       9.888  12.201  17.825  0.00  0.00    +0.000 C 
BRANCH  13  14
ATOM     14  S   UNL     1      11.091  12.718  19.095  0.00  0.00    +0.000 S 
BRANCH  14  15
ATOM     15  C   UNL     1      10.212  12.217  20.612  0.00  0.00    +0.000 C 
BRANCH  15  16
ATOM     16  C   UNL     1       9.928  13.478  21.432  0.00  0.00    +0.000 C 
BRANCH  16  18
ATOM     17  C   UNL     1       8.345  11.822  22.465  0.00  0.00    +0.000 C 
ATOM     18  C   UNL     1       8.819  13.270  22.464  0.00  0.00    +0.000 C 
ENDBRANCH  16  18
ENDBRANCH  15  16
ENDBRANCH  14  15
ENDBRANCH  13  14
ENDBRANCH  12  13
ENDBRANCH  11  12
ENDBRANCH   7  11
ENDBRANCH   1   8
BRANCH   4  19
ATOM     19  C   UNL     1       4.996   3.758  17.212  0.00  0.00    +0.000 C 
BRANCH  19  20
ATOM     20  N   UNL     1       4.193   2.738  17.903  0.00  0.00    +0.000 NA
ATOM     21  H   UNL     1       4.515   2.451  18.828  0.00  0.00    +0.000 HD
BRANCH  20  22
ATOM     22  S   UNL     1       2.517   2.936  17.907  0.00  0.00    +0.000 S 
ATOM     23  O   UNL     1       2.120   3.120  16.532  0.00  0.00    +0.000 OA
ATOM     24  O   UNL     1       1.965   1.877  18.724  0.00  0.00    +0.000 OA
BRANCH  22  25
ATOM     25  C   UNL     1       2.301   4.484  18.749  0.00  0.00    +0.000 A 
ATOM     26  C   UNL     1       2.201   5.665  18.012  0.00  0.00    +0.000 A 
ATOM     27  C   UNL     1       2.042   6.878  18.685  0.00  0.00    +0.000 A 
ATOM     28  C   UNL     1       1.980   6.903  20.081  0.00  0.00    +0.000 A 
ATOM     29  C   UNL     1       2.072   5.718  20.810  0.00  0.00    +0.000 A 
ATOM     30  C   UNL     1       2.232   4.503  20.146  0.00  0.00    +0.000 A 
ENDBRANCH  22  25
ENDBRANCH  20  22
ENDBRANCH  19  20
ENDBRANCH   4  19
TORSDOF 12
ENDMDL
MODEL 7
REMARK VINA RESULT:      -6.3      3.005      8.509
REMARK  Name = 
REMARK  13 active torsions:
REMARK  status: ('A' for Active; 'I' for Inactive)
REMARK    1  A    between atoms: C_1  and  C_2
REMARK    2  A    between atoms: C_2  and  C_3
REMARK    3  A    between atoms: C_3  and  C_4
REMARK    4  A    between atoms: C_4  and  S_5
REMARK    5  A    between atoms: S_5  and  C_6
REMARK    6  A    between atoms: C_6  and  C_7
REMARK    7  A    between atoms: C_7  and  C_8
REMARK    8  A    between atoms: C_8  and  N_9
REMARK    9  A    between atoms: C_10  and  C_12
REMARK   10  A    between atoms: C_15  and  C_16
REMARK   11  A    between atoms: C_16  and  N_17
REMARK   12  A    between atoms: N_17  and  S_18
REMARK   13  A    between atoms: S_18  and  C_21
REMARK                            x       y       z     vdW  Elec       q    Type
REMARK                         _______ _______ _______ _____ _____    ______ ____
ROOT
ATOM      1  C   UNL     1       2.374   8.057  19.522  0.00  0.00    +0.000 C 
ATOM      2  C   UNL     1       2.012   7.395  20.857  0.00  0.00    +0.000 C 
ATOM      3  C   UNL     1       1.045   6.227  20.672  0.00  0.00    +0.000 C 
ATOM      4  C   UNL     1       1.603   5.152  19.727  0.00  0.00    +0.000 C 
ATOM      5  C   UNL     1       1.934   5.794  18.369  0.00  0.00    +0.000 C 
ATOM      6  C   UNL     1       2.844   7.023  18.484  0.00  0.00    +0.000 C 
ENDROOT
BRANCH   1   8
ATOM      7  N   UNL     1       0.438   9.446  20.028  0.00  0.00    +0.000 N 
ATOM      8  C   UNL     1       1.219   8.927  19.014  0.00  0.00    +0.000 C 
ATOM      9  O   UNL     1       1.004   9.142  17.825  0.00  0.00    +0.000 OA
ATOM     10  H   UNL     1       0.711   9.288  20.988  0.00  0.00    +0.000 HD
BRANCH   7  11
ATOM     11  C   UNL     1      -0.740  10.246  19.769  0.00  0.00    +0.000 C 
BRANCH  11  12
ATOM     12  C   UNL     1      -0.589  11.699  20.222  0.00  0.00    +0.000 C 
BRANCH  12  13
ATOM     13  C   UNL     1      -1.353  12.694  19.343  0.00  0.00    +0.000 C 
BRANCH  13  14
ATOM     14  S   UNL     1      -1.775  11.863  17.774  0.00  0.00    +0.000 S 
BRANCH  14  15
ATOM     15  C   UNL     1      -3.567  11.611  18.001  0.00  0.00    +0.000 C 
BRANCH  15  16
ATOM     16  C   UNL     1      -4.083  10.795  16.812  0.00  0.00    +0.000 C 
BRANCH  16  18
ATOM     17  C   UNL     1      -3.043  10.111  14.629  0.00  0.00    +0.000 C 
ATOM     18  C   UNL     1      -2.982   9.970  16.144  0.00  0.00    +0.000 C 
ENDBRANCH  16  18
ENDBRANCH  15  16
ENDBRANCH  14  15
ENDBRANCH  13  14
ENDBRANCH  12  13
ENDBRANCH  11  12
ENDBRANCH   7  11
ENDBRANCH   1   8
BRANCH   4  19
ATOM     19  C   UNL     1       2.831   4.409  20.291  0.00  0.00    +0.000 C 
BRANCH  19  20
ATOM     20  N   UNL     1       2.768   2.981  19.949  0.00  0.00    +0.000 NA
ATOM     21  H   UNL     1       1.938   2.666  19.446  0.00  0.00    +0.000 HD
BRANCH  20  22
ATOM     22  S   UNL     1       4.151   2.277  19.284  0.00  0.00    +0.000 S 
ATOM     23  O   UNL     1       5.057   2.034  20.380  0.00  0.00    +0.000 OA
ATOM     24  O   UNL     1       3.708   1.210  18.412  0.00  0.00    +0.000 OA
BRANCH  22  25
ATOM     25  C   UNL     1       4.828   3.585  18.295  0.00  0.00    +0.000 A 
ATOM     26  C   UNL     1       5.710   4.503  18.870  0.00  0.00    +0.000 A 
ATOM     27  C   UNL     1       6.229   5.535  18.086  0.00  0.00    +0.000 A 
ATOM     28  C   UNL     1       5.870   5.641  16.739  0.00  0.00    +0.000 A 
ATOM     29  C   UNL     1       4.995   4.716  16.170  0.00  0.00    +0.000 A 
ATOM     30  C   UNL     1       4.471   3.683  16.946  0.00  0.00    +0.000 A 
ENDBRANCH  22  25
ENDBRANCH  20  22
ENDBRANCH  19  20
ENDBRANCH   4  19
TORSDOF 12
ENDMDL
MODEL 8
REMARK VINA RESULT:      -6.3      4.741      6.780
REMARK  Name = 
REMARK  13 active torsions:
REMARK  status: ('A' for Active; 'I' for Inactive)
REMARK    1  A    between atoms: C_1  and  C_2
REMARK    2  A    between atoms: C_2  and  C_3
REMARK    3  A    between atoms: C_3  and  C_4
REMARK    4  A    between atoms: C_4  and  S_5
REMARK    5  A    between atoms: S_5  and  C_6
REMARK    6  A    between atoms: C_6  and  C_7
REMARK    7  A    between atoms: C_7  and  C_8
REMARK    8  A    between atoms: C_8  and  N_9
REMARK    9  A    between atoms: C_10  and  C_12
REMARK   10  A    between atoms: C_15  and  C_16
REMARK   11  A    between atoms: C_16  and  N_17
REMARK   12  A    between atoms: N_17  and  S_18
REMARK   13  A    between atoms: S_18  and  C_21
REMARK                            x       y       z     vdW  Elec       q    Type
REMARK                         _______ _______ _______ _____ _____    ______ ____
ROOT
ATOM      1  C   UNL     1       7.492   6.623  17.354  0.00  0.00    +0.000 C 
ATOM      2  C   UNL     1       7.459   5.761  18.622  0.00  0.00    +0.000 C 
ATOM      3  C   UNL     1       6.114   5.849  19.339  0.00  0.00    +0.000 C 
ATOM      4  C   UNL     1       4.943   5.436  18.433  0.00  0.00    +0.000 C 
ATOM      5  C   UNL     1       4.939   6.320  17.175  0.00  0.00    +0.000 C 
ATOM      6  C   UNL     1       6.286   6.341  16.443  0.00  0.00    +0.000 C 
ENDROOT
BRANCH   1   8
ATOM      7  N   UNL     1       8.638   8.359  18.624  0.00  0.00    +0.000 N 
ATOM      8  C   UNL     1       7.634   8.109  17.710  0.00  0.00    +0.000 C 
ATOM      9  O   UNL     1       6.926   8.990  17.233  0.00  0.00    +0.000 OA
ATOM     10  H   UNL     1       9.230   7.596  18.925  0.00  0.00    +0.000 HD
BRANCH   7  11
ATOM     11  C   UNL     1       8.904   9.684  19.143  0.00  0.00    +0.000 C 
BRANCH  11  12
ATOM     12  C   UNL     1       9.883  10.479  18.279  0.00  0.00    +0.000 C 
BRANCH  12  13
ATOM     13  C   UNL     1      10.600  11.597  19.044  0.00  0.00    +0.000 C 
BRANCH  13  14
ATOM     14  S   UNL     1       9.341  12.606  19.894  0.00  0.00    +0.000 S 
BRANCH  14  15
ATOM     15  C   UNL     1       8.575  13.454  18.473  0.00  0.00    +0.000 C 
BRANCH  15  16
ATOM     16  C   UNL     1       9.056  14.908  18.476  0.00  0.00    +0.000 C 
BRANCH  16  18
ATOM     17  C   UNL     1       7.815  17.063  18.843  0.00  0.00    +0.000 C 
ATOM     18  C   UNL     1       8.010  15.873  17.913  0.00  0.00    +0.000 C 
ENDBRANCH  16  18
ENDBRANCH  15  16
ENDBRANCH  14  15
ENDBRANCH  13  14
ENDBRANCH  12  13
ENDBRANCH  11  12
ENDBRANCH   7  11
ENDBRANCH   1   8
BRANCH   4  19
ATOM     19  C   UNL     1       4.955   3.943  18.048  0.00  0.00    +0.000 C 
BRANCH  19  20
ATOM     20  N   UNL     1       5.482   3.132  19.155  0.00  0.00    +0.000 NA
ATOM     21  H   UNL     1       5.953   3.635  19.909  0.00  0.00    +0.000 HD
BRANCH  20  22
ATOM     22  S   UNL     1       4.475   1.939  19.797  0.00  0.00    +0.000 S 
ATOM     23  O   UNL     1       4.337   0.925  18.779  0.00  0.00    +0.000 OA
ATOM     24  O   UNL     1       4.973   1.627  21.120  0.00  0.00    +0.000 OA
BRANCH  22  25
ATOM     25  C   UNL     1       2.917   2.774  19.951  0.00  0.00    +0.000 A 
ATOM     26  C   UNL     1       1.836   2.376  19.163  0.00  0.00    +0.000 A 
ATOM     27  C   UNL     1       0.617   3.046  19.284  0.00  0.00    +0.000 A 
ATOM     28  C   UNL     1       0.485   4.101  20.191  0.00  0.00    +0.000 A 
ATOM     29  C   UNL     1       1.567   4.488  20.982  0.00  0.00    +0.000 A 
ATOM     30  C   UNL     1       2.787   3.825  20.866  0.00  0.00    +0.000 A 
ENDBRANCH  22  25
ENDBRANCH  20  22
ENDBRANCH  19  20
ENDBRANCH   4  19
TORSDOF 12
ENDMDL
MODEL 9
REMARK VINA RESULT:      -6.3      3.096      8.634
REMARK  Name = 
REMARK  13 active torsions:
REMARK  status: ('A' for Active; 'I' for Inactive)
REMARK    1  A    between atoms: C_1  and  C_2
REMARK    2  A    between atoms: C_2  and  C_3
REMARK    3  A    between atoms: C_3  and  C_4
REMARK    4  A    between atoms: C_4  and  S_5
REMARK    5  A    between atoms: S_5  and  C_6
REMARK    6  A    between atoms: C_6  and  C_7
REMARK    7  A    between atoms: C_7  and  C_8
REMARK    8  A    between atoms: C_8  and  N_9
REMARK    9  A    between atoms: C_10  and  C_12
REMARK   10  A    between atoms: C_15  and  C_16
REMARK   11  A    between atoms: C_16  and  N_17
REMARK   12  A    between atoms: N_17  and  S_18
REMARK   13  A    between atoms: S_18  and  C_21
REMARK                            x       y       z     vdW  Elec       q    Type
REMARK                         _______ _______ _______ _____ _____    ______ ____
ROOT
ATOM      1  C   UNL     1       3.289   6.171  19.233  0.00  0.00    +0.000 C 
ATOM      2  C   UNL     1       4.275   5.106  19.729  0.00  0.00    +0.000 C 
ATOM      3  C   UNL     1       3.697   3.697  19.621  0.00  0.00    +0.000 C 
ATOM      4  C   UNL     1       3.279   3.347  18.184  0.00  0.00    +0.000 C 
ATOM      5  C   UNL     1       2.259   4.384  17.687  0.00  0.00    +0.000 C 
ATOM      6  C   UNL     1       2.742   5.832  17.835  0.00  0.00    +0.000 C 
ENDROOT
BRANCH   1   8
ATOM      7  N   UNL     1       1.848   7.741  20.414  0.00  0.00    +0.000 N 
ATOM      8  C   UNL     1       2.179   6.408  20.264  0.00  0.00    +0.000 C 
ATOM      9  O   UNL     1       1.638   5.507  20.896  0.00  0.00    +0.000 OA
ATOM     10  H   UNL     1       2.284   8.426  19.812  0.00  0.00    +0.000 HD
BRANCH   7  11
ATOM     11  C   UNL     1       0.868   8.194  21.378  0.00  0.00    +0.000 C 
BRANCH  11  12
ATOM     12  C   UNL     1       1.221   9.546  22.000  0.00  0.00    +0.000 C 
BRANCH  12  13
ATOM     13  C   UNL     1       0.176  10.632  21.728  0.00  0.00    +0.000 C 
BRANCH  13  14
ATOM     14  S   UNL     1       0.265  11.083  19.963  0.00  0.00    +0.000 S 
BRANCH  14  15
ATOM     15  C   UNL     1      -1.319  10.404  19.364  0.00  0.00    +0.000 C 
BRANCH  15  16
ATOM     16  C   UNL     1      -1.563  10.948  17.954  0.00  0.00    +0.000 C 
BRANCH  16  18
ATOM     17  C   UNL     1      -3.005  10.061  16.096  0.00  0.00    +0.000 C 
ATOM     18  C   UNL     1      -1.743   9.836  16.919  0.00  0.00    +0.000 C 
ENDBRANCH  16  18
ENDBRANCH  15  16
ENDBRANCH  14  15
ENDBRANCH  13  14
ENDBRANCH  12  13
ENDBRANCH  11  12
ENDBRANCH   7  11
ENDBRANCH   1   8
BRANCH   4  19
ATOM     19  C   UNL     1       4.465   3.237  17.204  0.00  0.00    +0.000 C 
BRANCH  19  20
ATOM     20  N   UNL     1       4.528   4.425  16.340  0.00  0.00    +0.000 NA
ATOM     21  H   UNL     1       3.815   5.140  16.491  0.00  0.00    +0.000 HD
BRANCH  20  22
ATOM     22  S   UNL     1       6.037   5.148  16.117  0.00  0.00    +0.000 S 
ATOM     23  O   UNL     1       5.824   6.573  16.178  0.00  0.00    +0.000 OA
ATOM     24  O   UNL     1       6.965   4.478  17.003  0.00  0.00    +0.000 OA
BRANCH  22  25
ATOM     25  C   UNL     1       6.436   4.726  14.440  0.00  0.00    +0.000 A 
ATOM     26  C   UNL     1       5.674   3.770  13.766  0.00  0.00    +0.000 A 
ATOM     27  C   UNL     1       6.003   3.438  12.451  0.00  0.00    +0.000 A 
ATOM     28  C   UNL     1       7.081   4.063  11.818  0.00  0.00    +0.000 A 
ATOM     29  C   UNL     1       7.833   5.023  12.495  0.00  0.00    +0.000 A 
ATOM     30  C   UNL     1       7.512   5.360  13.809  0.00  0.00    +0.000 A 
ENDBRANCH  22  25
ENDBRANCH  20  22
ENDBRANCH  19  20
ENDBRANCH   4  19
TORSDOF 12
ENDMDL
