MODEL 1
REMARK VINA RESULT:      -8.1      0.000      0.000
REMARK  Name = 
REMARK  8 active torsions:
REMARK  status: ('A' for Active; 'I' for Inactive)
REMARK    1  A    between atoms: C_1  and  C_2
REMARK    2  A    between atoms: C_2  and  O_3
REMARK    3  A    between atoms: O_3  and  C_4
REMARK    4  A    between atoms: C_4  and  C_6
REMARK    5  A    between atoms: C_6  and  N_7
REMARK    6  A    between atoms: C_10  and  N_11
REMARK    7  A    between atoms: C_12  and  C_14
REMARK    8  A    between atoms: C_22  and  C_23
REMARK                            x       y       z     vdW  Elec       q    Type
REMARK                         _______ _______ _______ _____ _____    ______ ____
ROOT
ATOM      1  N   UNL     1       1.245  12.748  19.825  0.00  0.00    +0.000 N 
ATOM      2  C   UNL     1       1.654  11.650  19.060  0.00  0.00    +0.000 C 
ATOM      3  O   UNL     1       2.575  11.741  18.240  0.00  0.00    +0.000 OA
ATOM      4  C   UNL     1       0.886  10.324  19.297  0.00  0.00    +0.000 C 
ATOM      5  N   UNL     1      -0.401  10.443  18.631  0.00  0.00    +0.000 NA
ATOM      6  C   UNL     1      -1.290  11.237  19.128  0.00  0.00    +0.000 C 
ATOM      7  C   UNL     1      -1.098  12.033  20.385  0.00  0.00    +0.000 A 
ATOM      8  C   UNL     1      -2.185  12.091  21.281  0.00  0.00    +0.000 A 
ATOM      9  C   UNL     1      -2.140  12.897  22.416  0.00  0.00    +0.000 A 
ATOM     10  C   UNL     1      -0.989  13.613  22.699  0.00  0.00    +0.000 A 
ATOM     11  C   UNL     1       0.112  13.532  21.842  0.00  0.00    +0.000 A 
ATOM     12  C   UNL     1       0.084  12.753  20.667  0.00  0.00    +0.000 A 
ENDROOT
BRANCH   6  13
ATOM     13  C   UNL     1      -2.603  11.300  18.397  0.00  0.00    +0.000 A 
ATOM     14  C   UNL     1      -3.694  11.915  19.029  0.00  0.00    +0.000 A 
ATOM     15  C   UNL     1      -4.926  12.021  18.376  0.00  0.00    +0.000 A 
ATOM     16  C   UNL     1      -5.083  11.511  17.089  0.00  0.00    +0.000 A 
ATOM     17  C   UNL     1      -4.012  10.880  16.460  0.00  0.00    +0.000 A 
ATOM     18  C   UNL     1      -2.788  10.769  17.118  0.00  0.00    +0.000 A 
ATOM     19  F   UNL     1      -1.798  10.139  16.476  0.00  0.00    +0.000 F 
ENDBRANCH   6  13
BRANCH   4  20
ATOM     20  N   UNL     1       1.537   9.228  18.629  0.00  0.00    +0.000 N 
ATOM     21  C   UNL     1       1.922   8.093  19.294  0.00  0.00    +0.000 C 
ATOM     22  O   UNL     1       1.643   7.872  20.467  0.00  0.00    +0.000 OA
ATOM     23  H   UNL     1       1.792   9.407  17.672  0.00  0.00    +0.000 HD
BRANCH  21  24
ATOM     24  C   UNL     1       2.671   7.079  18.498  0.00  0.00    +0.000 A 
ATOM     25  C   UNL     1       2.379   5.709  18.569  0.00  0.00    +0.000 A 
ATOM     26  C   UNL     1       3.127   4.795  17.817  0.00  0.00    +0.000 A 
ATOM     27  C   UNL     1       4.158   5.247  16.994  0.00  0.00    +0.000 A 
ATOM     28 CL   UNL     1       5.085   4.118  16.087  0.00  0.00    +0.000 Cl
ATOM     29  C   UNL     1       4.439   6.608  16.900  0.00  0.00    +0.000 A 
ATOM     30  C   UNL     1       3.691   7.525  17.647  0.00  0.00    +0.000 A 
ENDBRANCH  21  24
ENDBRANCH   4  20
BRANCH   1  31
ATOM     31  C   UNL     1       1.925  14.023  19.544  0.00  0.00    +0.000 C 
BRANCH  31  32
ATOM     32  C   UNL     1       3.253  14.203  20.271  0.00  0.00    +0.000 C 
ATOM     33  O   UNL     1       3.492  13.705  21.362  0.00  0.00    +0.000 OA
BRANCH  32  34
ATOM     34  O   UNL     1       4.076  15.090  19.633  0.00  0.00    +0.000 OA
BRANCH  34  36
ATOM     35  C   UNL     1       5.646  14.660  17.869  0.00  0.00    +0.000 C 
ATOM     36  C   UNL     1       4.190  14.924  18.217  0.00  0.00    +0.000 C 
ENDBRANCH  34  36
ENDBRANCH  32  34
ENDBRANCH  31  32
ENDBRANCH   1  31
TORSDOF 7
ENDMDL
MODEL 2
REMARK VINA RESULT:      -7.9      1.328      1.593
REMARK  Name = 
REMARK  8 active torsions:
REMARK  status: ('A' for Active; 'I' for Inactive)
REMARK    1  A    between atoms: C_1  and  C_2
REMARK    2  A    between atoms: C_2  and  O_3
REMARK    3  A    between atoms: O_3  and  C_4
REMARK    4  A    between atoms: C_4  and  C_6
REMARK    5  A    between atoms: C_6  and  N_7
REMARK    6  A    between atoms: C_10  and  N_11
REMARK    7  A    between atoms: C_12  and  C_14
REMARK    8  A    between atoms: C_22  and  C_23
REMARK                            x       y       z     vdW  Elec       q    Type
REMARK                         _______ _______ _______ _____ _____    ______ ____
ROOT
ATOM      1  N   UNL     1       1.241  12.794  19.808  0.00  0.00    +0.000 N 
ATOM      2  C   UNL     1       1.644  11.698  19.037  0.00  0.00    +0.000 C 
ATOM      3  O   UNL     1       2.554  11.792  18.204  0.00  0.00    +0.000 OA
ATOM      4  C   UNL     1       0.884  10.369  19.283  0.00  0.00    +0.000 C 
ATOM      5  N   UNL     1      -0.412  10.485  18.634  0.00  0.00    +0.000 NA
ATOM      6  C   UNL     1      -1.298  11.276  19.143  0.00  0.00    +0.000 C 
ATOM      7  C   UNL     1      -1.091  12.071  20.397  0.00  0.00    +0.000 A 
ATOM      8  C   UNL     1      -2.167  12.125  21.308  0.00  0.00    +0.000 A 
ATOM      9  C   UNL     1      -2.110  12.931  22.442  0.00  0.00    +0.000 A 
ATOM     10  C   UNL     1      -0.957  13.651  22.711  0.00  0.00    +0.000 A 
ATOM     11  C   UNL     1       0.132  13.573  21.839  0.00  0.00    +0.000 A 
ATOM     12  C   UNL     1       0.091  12.795  20.665  0.00  0.00    +0.000 A 
ENDROOT
BRANCH   6  13
ATOM     13  C   UNL     1      -2.620  11.334  18.429  0.00  0.00    +0.000 A 
ATOM     14  C   UNL     1      -3.703  11.951  19.074  0.00  0.00    +0.000 A 
ATOM     15  C   UNL     1      -4.944  12.053  18.436  0.00  0.00    +0.000 A 
ATOM     16  C   UNL     1      -5.117  11.538  17.153  0.00  0.00    +0.000 A 
ATOM     17  C   UNL     1      -4.054  10.906  16.513  0.00  0.00    +0.000 A 
ATOM     18  C   UNL     1      -2.822  10.799  17.154  0.00  0.00    +0.000 A 
ATOM     19  F   UNL     1      -1.839  10.168  16.501  0.00  0.00    +0.000 F 
ENDBRANCH   6  13
BRANCH   4  20
ATOM     20  N   UNL     1       1.529   9.276  18.606  0.00  0.00    +0.000 N 
ATOM     21  C   UNL     1       1.955   8.156  19.271  0.00  0.00    +0.000 C 
ATOM     22  O   UNL     1       1.719   7.944  20.455  0.00  0.00    +0.000 OA
ATOM     23  H   UNL     1       1.749   9.448  17.639  0.00  0.00    +0.000 HD
BRANCH  21  24
ATOM     24  C   UNL     1       2.693   7.143  18.461  0.00  0.00    +0.000 A 
ATOM     25  C   UNL     1       2.364   5.781  18.489  0.00  0.00    +0.000 A 
ATOM     26  C   UNL     1       3.103   4.867  17.727  0.00  0.00    +0.000 A 
ATOM     27  C   UNL     1       4.161   5.314  16.937  0.00  0.00    +0.000 A 
ATOM     28 CL   UNL     1       5.077   4.186  16.017  0.00  0.00    +0.000 Cl
ATOM     29  C   UNL     1       4.479   6.670  16.885  0.00  0.00    +0.000 A 
ATOM     30  C   UNL     1       3.741   7.585  17.642  0.00  0.00    +0.000 A 
ENDBRANCH  21  24
ENDBRANCH   4  20
BRANCH   1  31
ATOM     31  C   UNL     1       1.914  14.071  19.518  0.00  0.00    +0.000 C 
BRANCH  31  32
ATOM     32  C   UNL     1       1.033  15.103  18.819  0.00  0.00    +0.000 C 
ATOM     33  O   UNL     1      -0.076  14.844  18.374  0.00  0.00    +0.000 OA
BRANCH  32  34
ATOM     34  O   UNL     1       1.683  16.290  18.626  0.00  0.00    +0.000 OA
BRANCH  34  36
ATOM     35  C   UNL     1       1.169  18.053  17.079  0.00  0.00    +0.000 C 
ATOM     36  C   UNL     1       0.844  17.432  18.428  0.00  0.00    +0.000 C 
ENDBRANCH  34  36
ENDBRANCH  32  34
ENDBRANCH  31  32
ENDBRANCH   1  31
TORSDOF 7
ENDMDL
MODEL 3
REMARK VINA RESULT:      -7.8      1.321      1.971
REMARK  Name = 
REMARK  8 active torsions:
REMARK  status: ('A' for Active; 'I' for Inactive)
REMARK    1  A    between atoms: C_1  and  C_2
REMARK    2  A    between atoms: C_2  and  O_3
REMARK    3  A    between atoms: O_3  and  C_4
REMARK    4  A    between atoms: C_4  and  C_6
REMARK    5  A    between atoms: C_6  and  N_7
REMARK    6  A    between atoms: C_10  and  N_11
REMARK    7  A    between atoms: C_12  and  C_14
REMARK    8  A    between atoms: C_22  and  C_23
REMARK                            x       y       z     vdW  Elec       q    Type
REMARK                         _______ _______ _______ _____ _____    ______ ____
ROOT
ATOM      1  N   UNL     1       0.944  12.945  20.339  0.00  0.00    +0.000 N 
ATOM      2  C   UNL     1       1.384  11.873  19.554  0.00  0.00    +0.000 C 
ATOM      3  O   UNL     1       2.345  11.987  18.784  0.00  0.00    +0.000 OA
ATOM      4  C   UNL     1       0.599  10.545  19.705  0.00  0.00    +0.000 C 
ATOM      5  N   UNL     1      -0.653  10.697  18.982  0.00  0.00    +0.000 NA
ATOM      6  C   UNL     1      -1.562  11.479  19.464  0.00  0.00    +0.000 C 
ATOM      7  C   UNL     1      -1.427  12.227  20.757  0.00  0.00    +0.000 A 
ATOM      8  C   UNL     1      -2.556  12.260  21.601  0.00  0.00    +0.000 A 
ATOM      9  C   UNL     1      -2.563  13.023  22.765  0.00  0.00    +0.000 A 
ATOM     10  C   UNL     1      -1.423  13.721  23.130  0.00  0.00    +0.000 A 
ATOM     11  C   UNL     1      -0.282  13.663  22.325  0.00  0.00    +0.000 A 
ATOM     12  C   UNL     1      -0.257  12.928  21.123  0.00  0.00    +0.000 A 
ENDROOT
BRANCH   6  13
ATOM     13  C   UNL     1      -2.837  11.577  18.672  0.00  0.00    +0.000 A 
ATOM     14  C   UNL     1      -3.966  12.141  19.287  0.00  0.00    +0.000 A 
ATOM     15  C   UNL     1      -5.165  12.278  18.580  0.00  0.00    +0.000 A 
ATOM     16  C   UNL     1      -5.250  11.851  17.256  0.00  0.00    +0.000 A 
ATOM     17  C   UNL     1      -4.142  11.272  16.643  0.00  0.00    +0.000 A 
ATOM     18  C   UNL     1      -2.952  11.130  17.354  0.00  0.00    +0.000 A 
ATOM     19  F   UNL     1      -1.922  10.552  16.724  0.00  0.00    +0.000 F 
ENDBRANCH   6  13
BRANCH   4  20
ATOM     20  N   UNL     1       1.276   9.470  19.030  0.00  0.00    +0.000 N 
ATOM     21  C   UNL     1       1.647   8.320  19.678  0.00  0.00    +0.000 C 
ATOM     22  O   UNL     1       1.334   8.068  20.835  0.00  0.00    +0.000 OA
ATOM     23  H   UNL     1       1.559   9.674  18.086  0.00  0.00    +0.000 HD
BRANCH  21  24
ATOM     24  C   UNL     1       2.425   7.330  18.879  0.00  0.00    +0.000 A 
ATOM     25  C   UNL     1       2.348   5.951  19.118  0.00  0.00    +0.000 A 
ATOM     26  C   UNL     1       3.117   5.064  18.355  0.00  0.00    +0.000 A 
ATOM     27  C   UNL     1       3.954   5.552  17.352  0.00  0.00    +0.000 A 
ATOM     28 CL   UNL     1       4.910   4.461  16.430  0.00  0.00    +0.000 Cl
ATOM     29  C   UNL     1       4.019   6.920  17.092  0.00  0.00    +0.000 A 
ATOM     30  C   UNL     1       3.250   7.808  17.851  0.00  0.00    +0.000 A 
ENDBRANCH  21  24
ENDBRANCH   4  20
BRANCH   1  31
ATOM     31  C   UNL     1       1.644  14.225  20.137  0.00  0.00    +0.000 C 
BRANCH  31  32
ATOM     32  C   UNL     1       1.258  14.959  18.857  0.00  0.00    +0.000 C 
ATOM     33  O   UNL     1       2.075  15.488  18.116  0.00  0.00    +0.000 OA
BRANCH  32  34
ATOM     34  O   UNL     1      -0.097  15.077  18.718  0.00  0.00    +0.000 OA
BRANCH  34  36
ATOM     35  C   UNL     1      -1.622  16.263  20.143  0.00  0.00    +0.000 C 
ATOM     36  C   UNL     1      -0.639  16.373  18.988  0.00  0.00    +0.000 C 
ENDBRANCH  34  36
ENDBRANCH  32  34
ENDBRANCH  31  32
ENDBRANCH   1  31
TORSDOF 7
ENDMDL
MODEL 4
REMARK VINA RESULT:      -7.8      1.139      1.502
REMARK  Name = 
REMARK  8 active torsions:
REMARK  status: ('A' for Active; 'I' for Inactive)
REMARK    1  A    between atoms: C_1  and  C_2
REMARK    2  A    between atoms: C_2  and  O_3
REMARK    3  A    between atoms: O_3  and  C_4
REMARK    4  A    between atoms: C_4  and  C_6
REMARK    5  A    between atoms: C_6  and  N_7
REMARK    6  A    between atoms: C_10  and  N_11
REMARK    7  A    between atoms: C_12  and  C_14
REMARK    8  A    between atoms: C_22  and  C_23
REMARK                            x       y       z     vdW  Elec       q    Type
REMARK                         _______ _______ _______ _____ _____    ______ ____
ROOT
ATOM      1  N   UNL     1       1.162  13.036  19.331  0.00  0.00    +0.000 N 
ATOM      2  C   UNL     1       1.405  11.716  18.937  0.00  0.00    +0.000 C 
ATOM      3  O   UNL     1       2.273  11.440  18.100  0.00  0.00    +0.000 OA
ATOM      4  C   UNL     1       0.525  10.627  19.604  0.00  0.00    +0.000 C 
ATOM      5  N   UNL     1      -0.785  10.684  18.977  0.00  0.00    +0.000 NA
ATOM      6  C   UNL     1      -1.554  11.692  19.228  0.00  0.00    +0.000 C 
ATOM      7  C   UNL     1      -1.198  12.809  20.162  0.00  0.00    +0.000 A 
ATOM      8  C   UNL     1      -2.211  13.268  21.030  0.00  0.00    +0.000 A 
ATOM      9  C   UNL     1      -2.008  14.374  21.851  0.00  0.00    +0.000 A 
ATOM     10  C   UNL     1      -0.774  15.003  21.857  0.00  0.00    +0.000 A 
ATOM     11  C   UNL     1       0.252  14.532  21.033  0.00  0.00    +0.000 A 
ATOM     12  C   UNL     1       0.066  13.437  20.165  0.00  0.00    +0.000 A 
ENDROOT
BRANCH   6  13
ATOM     13  C   UNL     1      -2.900  11.678  18.557  0.00  0.00    +0.000 A 
ATOM     14  C   UNL     1      -4.035  11.984  19.324  0.00  0.00    +0.000 A 
ATOM     15  C   UNL     1      -5.304  12.010  18.736  0.00  0.00    +0.000 A 
ATOM     16  C   UNL     1      -5.453  11.729  17.380  0.00  0.00    +0.000 A 
ATOM     17  C   UNL     1      -4.337  11.404  16.613  0.00  0.00    +0.000 A 
ATOM     18  C   UNL     1      -3.075  11.371  17.205  0.00  0.00    +0.000 A 
ATOM     19  F   UNL     1      -2.038  11.036  16.428  0.00  0.00    +0.000 F 
ENDBRANCH   6  13
BRANCH   4  20
ATOM     20  N   UNL     1       1.016   9.310  19.295  0.00  0.00    +0.000 N 
ATOM     21  C   UNL     1       1.483   8.460  20.262  0.00  0.00    +0.000 C 
ATOM     22  O   UNL     1       1.414   8.700  21.462  0.00  0.00    +0.000 OA
ATOM     23  H   UNL     1       1.099   9.110  18.311  0.00  0.00    +0.000 HD
BRANCH  21  24
ATOM     24  C   UNL     1       2.049   7.163  19.789  0.00  0.00    +0.000 A 
ATOM     25  C   UNL     1       2.735   7.047  18.573  0.00  0.00    +0.000 A 
ATOM     26  C   UNL     1       3.227   5.801  18.163  0.00  0.00    +0.000 A 
ATOM     27  C   UNL     1       3.040   4.679  18.968  0.00  0.00    +0.000 A 
ATOM     28 CL   UNL     1       3.630   3.148  18.453  0.00  0.00    +0.000 Cl
ATOM     29  C   UNL     1       2.378   4.790  20.190  0.00  0.00    +0.000 A 
ATOM     30  C   UNL     1       1.889   6.034  20.603  0.00  0.00    +0.000 A 
ENDBRANCH  21  24
ENDBRANCH   4  20
BRANCH   1  31
ATOM     31  C   UNL     1       1.946  14.073  18.640  0.00  0.00    +0.000 C 
BRANCH  31  32
ATOM     32  C   UNL     1       3.387  14.201  19.125  0.00  0.00    +0.000 C 
ATOM     33  O   UNL     1       3.682  14.481  20.278  0.00  0.00    +0.000 OA
BRANCH  32  34
ATOM     34  O   UNL     1       4.287  14.109  18.099  0.00  0.00    +0.000 OA
BRANCH  34  36
ATOM     35  C   UNL     1       6.609  14.666  17.849  0.00  0.00    +0.000 C 
ATOM     36  C   UNL     1       5.193  15.208  17.968  0.00  0.00    +0.000 C 
ENDBRANCH  34  36
ENDBRANCH  32  34
ENDBRANCH  31  32
ENDBRANCH   1  31
TORSDOF 7
ENDMDL
MODEL 5
REMARK VINA RESULT:      -7.8      1.349      1.709
REMARK  Name = 
REMARK  8 active torsions:
REMARK  status: ('A' for Active; 'I' for Inactive)
REMARK    1  A    between atoms: C_1  and  C_2
REMARK    2  A    between atoms: C_2  and  O_3
REMARK    3  A    between atoms: O_3  and  C_4
REMARK    4  A    between atoms: C_4  and  C_6
REMARK    5  A    between atoms: C_6  and  N_7
REMARK    6  A    between atoms: C_10  and  N_11
REMARK    7  A    between atoms: C_12  and  C_14
REMARK    8  A    between atoms: C_22  and  C_23
REMARK                            x       y       z     vdW  Elec       q    Type
REMARK                         _______ _______ _______ _____ _____    ______ ____
ROOT
ATOM      1  N   UNL     1       0.818  13.071  20.428  0.00  0.00    +0.000 N 
ATOM      2  C   UNL     1       1.249  11.986  19.656  0.00  0.00    +0.000 C 
ATOM      3  O   UNL     1       2.206  12.085  18.879  0.00  0.00    +0.000 OA
ATOM      4  C   UNL     1       0.457  10.664  19.827  0.00  0.00    +0.000 C 
ATOM      5  N   UNL     1      -0.798  10.814  19.108  0.00  0.00    +0.000 NA
ATOM      6  C   UNL     1      -1.700  11.607  19.584  0.00  0.00    +0.000 C 
ATOM      7  C   UNL     1      -1.555  12.371  20.866  0.00  0.00    +0.000 A 
ATOM      8  C   UNL     1      -2.680  12.421  21.715  0.00  0.00    +0.000 A 
ATOM      9  C   UNL     1      -2.678  13.200  22.869  0.00  0.00    +0.000 A 
ATOM     10  C   UNL     1      -1.532  13.896  23.220  0.00  0.00    +0.000 A 
ATOM     11  C   UNL     1      -0.396  13.821  22.411  0.00  0.00    +0.000 A 
ATOM     12  C   UNL     1      -0.380  13.070  21.218  0.00  0.00    +0.000 A 
ENDROOT
BRANCH   6  13
ATOM     13  C   UNL     1      -2.978  11.702  18.797  0.00  0.00    +0.000 A 
ATOM     14  C   UNL     1      -4.121  12.211  19.433  0.00  0.00    +0.000 A 
ATOM     15  C   UNL     1      -5.324  12.344  18.732  0.00  0.00    +0.000 A 
ATOM     16  C   UNL     1      -5.399  11.966  17.393  0.00  0.00    +0.000 A 
ATOM     17  C   UNL     1      -4.277  11.439  16.758  0.00  0.00    +0.000 A 
ATOM     18  C   UNL     1      -3.083  11.302  17.463  0.00  0.00    +0.000 A 
ATOM     19  F   UNL     1      -2.039  10.775  16.811  0.00  0.00    +0.000 F 
ENDBRANCH   6  13
BRANCH   4  20
ATOM     20  N   UNL     1       1.125   9.576  19.163  0.00  0.00    +0.000 N 
ATOM     21  C   UNL     1       1.628   8.502  19.849  0.00  0.00    +0.000 C 
ATOM     22  O   UNL     1       1.449   8.324  21.048  0.00  0.00    +0.000 OA
ATOM     23  H   UNL     1       1.298   9.722  18.182  0.00  0.00    +0.000 HD
BRANCH  21  24
ATOM     24  C   UNL     1       2.379   7.494  19.045  0.00  0.00    +0.000 A 
ATOM     25  C   UNL     1       3.108   7.844  17.901  0.00  0.00    +0.000 A 
ATOM     26  C   UNL     1       3.778   6.857  17.168  0.00  0.00    +0.000 A 
ATOM     27  C   UNL     1       3.724   5.526  17.581  0.00  0.00    +0.000 A 
ATOM     28 CL   UNL     1       4.532   4.314  16.668  0.00  0.00    +0.000 Cl
ATOM     29  C   UNL     1       3.020   5.172  18.730  0.00  0.00    +0.000 A 
ATOM     30  C   UNL     1       2.353   6.157  19.466  0.00  0.00    +0.000 A 
ENDBRANCH  21  24
ENDBRANCH   4  20
BRANCH   1  31
ATOM     31  C   UNL     1       1.523  14.344  20.207  0.00  0.00    +0.000 C 
BRANCH  31  32
ATOM     32  C   UNL     1       0.792  15.318  19.289  0.00  0.00    +0.000 C 
ATOM     33  O   UNL     1      -0.123  14.984  18.550  0.00  0.00    +0.000 OA
BRANCH  32  34
ATOM     34  O   UNL     1       1.371  16.558  19.286  0.00  0.00    +0.000 OA
BRANCH  34  36
ATOM     35  C   UNL     1       3.035  16.634  17.557  0.00  0.00    +0.000 C 
ATOM     36  C   UNL     1       1.658  17.106  17.997  0.00  0.00    +0.000 C 
ENDBRANCH  34  36
ENDBRANCH  32  34
ENDBRANCH  31  32
ENDBRANCH   1  31
TORSDOF 7
ENDMDL
MODEL 6
REMARK VINA RESULT:      -7.6      0.836      1.246
REMARK  Name = 
REMARK  8 active torsions:
REMARK  status: ('A' for Active; 'I' for Inactive)
REMARK    1  A    between atoms: C_1  and  C_2
REMARK    2  A    between atoms: C_2  and  O_3
REMARK    3  A    between atoms: O_3  and  C_4
REMARK    4  A    between atoms: C_4  and  C_6
REMARK    5  A    between atoms: C_6  and  N_7
REMARK    6  A    between atoms: C_10  and  N_11
REMARK    7  A    between atoms: C_12  and  C_14
REMARK    8  A    between atoms: C_22  and  C_23
REMARK                            x       y       z     vdW  Elec       q    Type
REMARK                         _______ _______ _______ _____ _____    ______ ____
ROOT
ATOM      1  N   UNL     1       1.336  12.842  19.485  0.00  0.00    +0.000 N 
ATOM      2  C   UNL     1       1.720  11.703  18.767  0.00  0.00    +0.000 C 
ATOM      3  O   UNL     1       2.608  11.749  17.908  0.00  0.00    +0.000 OA
ATOM      4  C   UNL     1       0.968  10.391  19.109  0.00  0.00    +0.000 C 
ATOM      5  N   UNL     1      -0.344  10.469  18.489  0.00  0.00    +0.000 NA
ATOM      6  C   UNL     1      -1.217  11.288  18.975  0.00  0.00    +0.000 C 
ATOM      7  C   UNL     1      -0.979  12.155  20.175  0.00  0.00    +0.000 A 
ATOM      8  C   UNL     1      -2.031  12.261  21.109  0.00  0.00    +0.000 A 
ATOM      9  C   UNL     1      -1.946  13.130  22.194  0.00  0.00    +0.000 A 
ATOM     10  C   UNL     1      -0.787  13.864  22.390  0.00  0.00    +0.000 A 
ATOM     11  C   UNL     1       0.279  13.737  21.496  0.00  0.00    +0.000 A 
ATOM     12  C   UNL     1       0.209  12.892  20.370  0.00  0.00    +0.000 A 
ENDROOT
BRANCH   6  13
ATOM     13  C   UNL     1      -2.558  11.306  18.293  0.00  0.00    +0.000 A 
ATOM     14  C   UNL     1      -3.639  11.907  18.956  0.00  0.00    +0.000 A 
ATOM     15  C   UNL     1      -4.897  11.971  18.348  0.00  0.00    +0.000 A 
ATOM     16  C   UNL     1      -5.090  11.434  17.078  0.00  0.00    +0.000 A 
ATOM     17  C   UNL     1      -4.029  10.816  16.420  0.00  0.00    +0.000 A 
ATOM     18  C   UNL     1      -2.779  10.747  17.032  0.00  0.00    +0.000 A 
ATOM     19  F   UNL     1      -1.798  10.128  16.364  0.00  0.00    +0.000 F 
ENDBRANCH   6  13
BRANCH   4  20
ATOM     20  N   UNL     1       1.598   9.260  18.480  0.00  0.00    +0.000 N 
ATOM     21  C   UNL     1       1.995   8.158  19.190  0.00  0.00    +0.000 C 
ATOM     22  O   UNL     1       1.746   7.996  20.379  0.00  0.00    +0.000 OA
ATOM     23  H   UNL     1       1.828   9.391  17.509  0.00  0.00    +0.000 HD
BRANCH  21  24
ATOM     24  C   UNL     1       2.720   7.102  18.426  0.00  0.00    +0.000 A 
ATOM     25  C   UNL     1       2.349   5.751  18.483  0.00  0.00    +0.000 A 
ATOM     26  C   UNL     1       3.076   4.794  17.764  0.00  0.00    +0.000 A 
ATOM     27  C   UNL     1       4.164   5.187  16.985  0.00  0.00    +0.000 A 
ATOM     28 CL   UNL     1       5.065   4.007  16.118  0.00  0.00    +0.000 Cl
ATOM     29  C   UNL     1       4.525   6.530  16.904  0.00  0.00    +0.000 A 
ATOM     30  C   UNL     1       3.798   7.489  17.619  0.00  0.00    +0.000 A 
ENDBRANCH  21  24
ENDBRANCH   4  20
BRANCH   1  31
ATOM     31  C   UNL     1       1.999  14.100  19.104  0.00  0.00    +0.000 C 
BRANCH  31  32
ATOM     32  C   UNL     1       3.060  14.577  20.091  0.00  0.00    +0.000 C 
ATOM     33  O   UNL     1       3.671  13.822  20.834  0.00  0.00    +0.000 OA
BRANCH  32  34
ATOM     34  O   UNL     1       3.138  15.942  20.145  0.00  0.00    +0.000 OA
BRANCH  34  36
ATOM     35  C   UNL     1       1.593  17.285  21.399  0.00  0.00    +0.000 C 
ATOM     36  C   UNL     1       2.911  16.527  21.431  0.00  0.00    +0.000 C 
ENDBRANCH  34  36
ENDBRANCH  32  34
ENDBRANCH  31  32
ENDBRANCH   1  31
TORSDOF 7
ENDMDL
MODEL 7
REMARK VINA RESULT:      -7.6      1.296      1.697
REMARK  Name = 
REMARK  8 active torsions:
REMARK  status: ('A' for Active; 'I' for Inactive)
REMARK    1  A    between atoms: C_1  and  C_2
REMARK    2  A    between atoms: C_2  and  O_3
REMARK    3  A    between atoms: O_3  and  C_4
REMARK    4  A    between atoms: C_4  and  C_6
REMARK    5  A    between atoms: C_6  and  N_7
REMARK    6  A    between atoms: C_10  and  N_11
REMARK    7  A    between atoms: C_12  and  C_14
REMARK    8  A    between atoms: C_22  and  C_23
REMARK                            x       y       z     vdW  Elec       q    Type
REMARK                         _______ _______ _______ _____ _____    ______ ____
ROOT
ATOM      1  N   UNL     1       1.216  13.059  19.237  0.00  0.00    +0.000 N 
ATOM      2  C   UNL     1       1.481  11.743  18.841  0.00  0.00    +0.000 C 
ATOM      3  O   UNL     1       2.353  11.483  18.004  0.00  0.00    +0.000 OA
ATOM      4  C   UNL     1       0.618  10.640  19.506  0.00  0.00    +0.000 C 
ATOM      5  N   UNL     1      -0.693  10.677  18.878  0.00  0.00    +0.000 NA
ATOM      6  C   UNL     1      -1.478  11.672  19.131  0.00  0.00    +0.000 C 
ATOM      7  C   UNL     1      -1.140  12.793  20.068  0.00  0.00    +0.000 A 
ATOM      8  C   UNL     1      -2.160  13.234  20.936  0.00  0.00    +0.000 A 
ATOM      9  C   UNL     1      -1.975  14.342  21.759  0.00  0.00    +0.000 A 
ATOM     10  C   UNL     1      -0.751  14.991  21.766  0.00  0.00    +0.000 A 
ATOM     11  C   UNL     1       0.283  14.537  20.942  0.00  0.00    +0.000 A 
ATOM     12  C   UNL     1       0.115  13.441  20.072  0.00  0.00    +0.000 A 
ENDROOT
BRANCH   6  13
ATOM     13  C   UNL     1      -2.824  11.638  18.459  0.00  0.00    +0.000 A 
ATOM     14  C   UNL     1      -3.958  11.972  19.215  0.00  0.00    +0.000 A 
ATOM     15  C   UNL     1      -5.226  11.981  18.625  0.00  0.00    +0.000 A 
ATOM     16  C   UNL     1      -5.375  11.653  17.279  0.00  0.00    +0.000 A 
ATOM     17  C   UNL     1      -4.259  11.299  16.526  0.00  0.00    +0.000 A 
ATOM     18  C   UNL     1      -2.998  11.284  17.119  0.00  0.00    +0.000 A 
ATOM     19  F   UNL     1      -1.961  10.921  16.355  0.00  0.00    +0.000 F 
ENDBRANCH   6  13
BRANCH   4  20
ATOM     20  N   UNL     1       1.130   9.332  19.194  0.00  0.00    +0.000 N 
ATOM     21  C   UNL     1       1.506   8.444  20.168  0.00  0.00    +0.000 C 
ATOM     22  O   UNL     1       1.330   8.642  21.365  0.00  0.00    +0.000 OA
ATOM     23  H   UNL     1       1.300   9.166  18.216  0.00  0.00    +0.000 HD
BRANCH  21  24
ATOM     24  C   UNL     1       2.106   7.161  19.701  0.00  0.00    +0.000 A 
ATOM     25  C   UNL     1       2.811   7.062  18.494  0.00  0.00    +0.000 A 
ATOM     26  C   UNL     1       3.336   5.829  18.089  0.00  0.00    +0.000 A 
ATOM     27  C   UNL     1       3.164   4.701  18.891  0.00  0.00    +0.000 A 
ATOM     28 CL   UNL     1       3.795   3.185  18.382  0.00  0.00    +0.000 Cl
ATOM     29  C   UNL     1       2.485   4.796  20.104  0.00  0.00    +0.000 A 
ATOM     30  C   UNL     1       1.962   6.027  20.512  0.00  0.00    +0.000 A 
ENDBRANCH  21  24
ENDBRANCH   4  20
BRANCH   1  31
ATOM     31  C   UNL     1       1.985  14.109  18.548  0.00  0.00    +0.000 C 
BRANCH  31  32
ATOM     32  C   UNL     1       3.187  14.626  19.330  0.00  0.00    +0.000 C 
ATOM     33  O   UNL     1       3.653  14.048  20.302  0.00  0.00    +0.000 OA
BRANCH  32  34
ATOM     34  O   UNL     1       3.583  15.866  18.909  0.00  0.00    +0.000 OA
BRANCH  34  36
ATOM     35  C   UNL     1       2.289  17.582  19.981  0.00  0.00    +0.000 C 
ATOM     36  C   UNL     1       3.635  16.878  19.920  0.00  0.00    +0.000 C 
ENDBRANCH  34  36
ENDBRANCH  32  34
ENDBRANCH  31  32
ENDBRANCH   1  31
TORSDOF 7
ENDMDL
MODEL 8
REMARK VINA RESULT:      -7.5      1.197      1.687
REMARK  Name = 
REMARK  8 active torsions:
REMARK  status: ('A' for Active; 'I' for Inactive)
REMARK    1  A    between atoms: C_1  and  C_2
REMARK    2  A    between atoms: C_2  and  O_3
REMARK    3  A    between atoms: O_3  and  C_4
REMARK    4  A    between atoms: C_4  and  C_6
REMARK    5  A    between atoms: C_6  and  N_7
REMARK    6  A    between atoms: C_10  and  N_11
REMARK    7  A    between atoms: C_12  and  C_14
REMARK    8  A    between atoms: C_22  and  C_23
REMARK                            x       y       z     vdW  Elec       q    Type
REMARK                         _______ _______ _______ _____ _____    ______ ____
ROOT
ATOM      1  N   UNL     1       1.287  13.089  19.199  0.00  0.00    +0.000 N 
ATOM      2  C   UNL     1       1.558  11.776  18.799  0.00  0.00    +0.000 C 
ATOM      3  O   UNL     1       2.417  11.523  17.946  0.00  0.00    +0.000 OA
ATOM      4  C   UNL     1       0.719  10.664  19.481  0.00  0.00    +0.000 C 
ATOM      5  N   UNL     1      -0.604  10.688  18.877  0.00  0.00    +0.000 NA
ATOM      6  C   UNL     1      -1.395  11.675  19.143  0.00  0.00    +0.000 C 
ATOM      7  C   UNL     1      -1.051  12.800  20.073  0.00  0.00    +0.000 A 
ATOM      8  C   UNL     1      -2.059  13.231  20.960  0.00  0.00    +0.000 A 
ATOM      9  C   UNL     1      -1.870  14.341  21.779  0.00  0.00    +0.000 A 
ATOM     10  C   UNL     1      -0.653  15.003  21.763  0.00  0.00    +0.000 A 
ATOM     11  C   UNL     1       0.370  14.559  20.920  0.00  0.00    +0.000 A 
ATOM     12  C   UNL     1       0.197  13.461  20.054  0.00  0.00    +0.000 A 
ENDROOT
BRANCH   6  13
ATOM     13  C   UNL     1      -2.752  11.627  18.497  0.00  0.00    +0.000 A 
ATOM     14  C   UNL     1      -3.865  12.040  19.245  0.00  0.00    +0.000 A 
ATOM     15  C   UNL     1      -5.143  12.039  18.675  0.00  0.00    +0.000 A 
ATOM     16  C   UNL     1      -5.322  11.622  17.358  0.00  0.00    +0.000 A 
ATOM     17  C   UNL     1      -4.227  11.190  16.614  0.00  0.00    +0.000 A 
ATOM     18  C   UNL     1      -2.957  11.185  17.187  0.00  0.00    +0.000 A 
ATOM     19  F   UNL     1      -1.942  10.745  16.435  0.00  0.00    +0.000 F 
ENDBRANCH   6  13
BRANCH   4  20
ATOM     20  N   UNL     1       1.237   9.361  19.160  0.00  0.00    +0.000 N 
ATOM     21  C   UNL     1       1.492   8.420  20.124  0.00  0.00    +0.000 C 
ATOM     22  O   UNL     1       1.193   8.565  21.303  0.00  0.00    +0.000 OA
ATOM     23  H   UNL     1       1.508   9.238  18.198  0.00  0.00    +0.000 HD
BRANCH  21  24
ATOM     24  C   UNL     1       2.116   7.147  19.660  0.00  0.00    +0.000 A 
ATOM     25  C   UNL     1       2.787   7.048  18.433  0.00  0.00    +0.000 A 
ATOM     26  C   UNL     1       3.336   5.824  18.033  0.00  0.00    +0.000 A 
ATOM     27  C   UNL     1       3.222   4.706  18.858  0.00  0.00    +0.000 A 
ATOM     28 CL   UNL     1       3.883   3.200  18.355  0.00  0.00    +0.000 Cl
ATOM     29  C   UNL     1       2.578   4.802  20.090  0.00  0.00    +0.000 A 
ATOM     30  C   UNL     1       2.031   6.024  20.494  0.00  0.00    +0.000 A 
ENDBRANCH  21  24
ENDBRANCH   4  20
BRANCH   1  31
ATOM     31  C   UNL     1       2.032  14.146  18.495  0.00  0.00    +0.000 C 
BRANCH  31  32
ATOM     32  C   UNL     1       3.491  14.279  18.921  0.00  0.00    +0.000 C 
ATOM     33  O   UNL     1       4.417  14.337  18.125  0.00  0.00    +0.000 OA
BRANCH  32  34
ATOM     34  O   UNL     1       3.644  14.181  20.276  0.00  0.00    +0.000 OA
BRANCH  34  36
ATOM     35  C   UNL     1       5.614  14.752  21.525  0.00  0.00    +0.000 C 
ATOM     36  C   UNL     1       4.326  15.270  20.905  0.00  0.00    +0.000 C 
ENDBRANCH  34  36
ENDBRANCH  32  34
ENDBRANCH  31  32
ENDBRANCH   1  31
TORSDOF 7
ENDMDL
MODEL 9
REMARK VINA RESULT:      -7.5      3.220      6.576
REMARK  Name = 
REMARK  8 active torsions:
REMARK  status: ('A' for Active; 'I' for Inactive)
REMARK    1  A    between atoms: C_1  and  C_2
REMARK    2  A    between atoms: C_2  and  O_3
REMARK    3  A    between atoms: O_3  and  C_4
REMARK    4  A    between atoms: C_4  and  C_6
REMARK    5  A    between atoms: C_6  and  N_7
REMARK    6  A    between atoms: C_10  and  N_11
REMARK    7  A    between atoms: C_12  and  C_14
REMARK    8  A    between atoms: C_22  and  C_23
REMARK                            x       y       z     vdW  Elec       q    Type
REMARK                         _______ _______ _______ _____ _____    ______ ____
ROOT
ATOM      1  N   UNL     1      -0.322  14.820  20.855  0.00  0.00    +0.000 N 
ATOM      2  C   UNL     1       0.341  13.589  20.792  0.00  0.00    +0.000 C 
ATOM      3  O   UNL     1       0.287  12.776  21.722  0.00  0.00    +0.000 OA
ATOM      4  C   UNL     1       1.145  13.308  19.496  0.00  0.00    +0.000 C 
ATOM      5  N   UNL     1       2.372  14.085  19.570  0.00  0.00    +0.000 NA
ATOM      6  C   UNL     1       2.306  15.370  19.446  0.00  0.00    +0.000 C 
ATOM      7  C   UNL     1       1.036  16.126  19.193  0.00  0.00    +0.000 A 
ATOM      8  C   UNL     1       1.089  17.173  18.250  0.00  0.00    +0.000 A 
ATOM      9  C   UNL     1      -0.008  18.003  18.034  0.00  0.00    +0.000 A 
ATOM     10  C   UNL     1      -1.190  17.764  18.717  0.00  0.00    +0.000 A 
ATOM     11  C   UNL     1      -1.269  16.703  19.622  0.00  0.00    +0.000 A 
ATOM     12  C   UNL     1      -0.165  15.868  19.889  0.00  0.00    +0.000 A 
ENDROOT
BRANCH   6  13
ATOM     13  C   UNL     1       3.615  16.108  19.518  0.00  0.00    +0.000 A 
ATOM     14  C   UNL     1       3.854  16.941  20.622  0.00  0.00    +0.000 A 
ATOM     15  C   UNL     1       5.068  17.625  20.745  0.00  0.00    +0.000 A 
ATOM     16  C   UNL     1       6.051  17.488  19.767  0.00  0.00    +0.000 A 
ATOM     17  C   UNL     1       5.815  16.681  18.657  0.00  0.00    +0.000 A 
ATOM     18  C   UNL     1       4.601  16.007  18.534  0.00  0.00    +0.000 A 
ATOM     19  F   UNL     1       4.420  15.258  17.441  0.00  0.00    +0.000 F 
ENDBRANCH   6  13
BRANCH   4  20
ATOM     20  N   UNL     1       1.587  11.940  19.452  0.00  0.00    +0.000 N 
ATOM     21  C   UNL     1       0.782  10.927  19.001  0.00  0.00    +0.000 C 
ATOM     22  O   UNL     1      -0.318  11.115  18.496  0.00  0.00    +0.000 OA
ATOM     23  H   UNL     1       2.480  11.770  19.886  0.00  0.00    +0.000 HD
BRANCH  21  24
ATOM     24  C   UNL     1       1.335   9.545  19.101  0.00  0.00    +0.000 A 
ATOM     25  C   UNL     1       1.246   8.787  20.277  0.00  0.00    +0.000 A 
ATOM     26  C   UNL     1       1.802   7.503  20.326  0.00  0.00    +0.000 A 
ATOM     27  C   UNL     1       2.439   6.976  19.202  0.00  0.00    +0.000 A 
ATOM     28 CL   UNL     1       3.136   5.406  19.272  0.00  0.00    +0.000 Cl
ATOM     29  C   UNL     1       2.511   7.714  18.022  0.00  0.00    +0.000 A 
ATOM     30  C   UNL     1       1.954   8.995  17.969  0.00  0.00    +0.000 A 
ENDBRANCH  21  24
ENDBRANCH   4  20
BRANCH   1  31
ATOM     31  C   UNL     1      -1.021  15.114  22.117  0.00  0.00    +0.000 C 
BRANCH  31  32
ATOM     32  C   UNL     1      -2.370  14.418  22.267  0.00  0.00    +0.000 C 
ATOM     33  O   UNL     1      -3.261  14.498  21.433  0.00  0.00    +0.000 OA
BRANCH  32  34
ATOM     34  O   UNL     1      -2.511  13.825  23.491  0.00  0.00    +0.000 OA
BRANCH  34  36
ATOM     35  C   UNL     1      -4.223  12.499  24.530  0.00  0.00    +0.000 C 
ATOM     36  C   UNL     1      -3.117  12.528  23.487  0.00  0.00    +0.000 C 
ENDBRANCH  34  36
ENDBRANCH  32  34
ENDBRANCH  31  32
ENDBRANCH   1  31
TORSDOF 7
ENDMDL
