MODEL 1
REMARK VINA RESULT:      -8.1      0.000      0.000
REMARK  Name = 
REMARK  7 active torsions:
REMARK  status: ('A' for Active; 'I' for Inactive)
REMARK    1  A    between atoms: C_2  and  O_3
REMARK    2  A    between atoms: C_2  and  C_4
REMARK    3  A    between atoms: C_6  and  N_7
REMARK    4  A    between atoms: N_7  and  N_8
REMARK    5  A    between atoms: N_9  and  C_10
REMARK    6  A    between atoms: C_14  and  N_15
REMARK    7  A    between atoms: C_20  and  N_21
REMARK                            x       y       z     vdW  Elec       q    Type
REMARK                         _______ _______ _______ _____ _____    ______ ____
ROOT
ATOM      1  C   UNL     1       6.828   5.424  18.403  0.00  0.00    +0.000 A 
ATOM      2  C   UNL     1       5.453   5.337  18.685  0.00  0.00    +0.000 A 
ATOM      3  C   UNL     1       4.538   4.986  17.682  0.00  0.00    +0.000 A 
ATOM      4  C   UNL     1       5.019   4.806  16.375  0.00  0.00    +0.000 A 
ATOM      5  C   UNL     1       6.386   4.902  16.093  0.00  0.00    +0.000 A 
ATOM      6  C   UNL     1       7.299   5.205  17.104  0.00  0.00    +0.000 A 
ENDROOT
BRANCH   5   7
ATOM      7  N   UNL     1       6.855   4.671  14.720  0.00  0.00    +0.000 N 
ATOM      8  O   UNL     1       7.733   5.424  14.275  0.00  0.00    +0.000 OA
ATOM      9  O   UNL     1       6.335   3.742  14.086  0.00  0.00    +0.000 OA
ENDBRANCH   5   7
BRANCH   1  11
ATOM     10  O   UNL     1       7.942   5.195  20.485  0.00  0.00    +0.000 OA
ATOM     11  C   UNL     1       7.821   5.805  19.438  0.00  0.00    +0.000 C 
BRANCH  11  12
ATOM     12  O   UNL     1       8.540   6.904  19.134  0.00  0.00    +0.000 OA
ATOM     13  H   UNL     1       9.444   6.936  19.496  0.00  0.00    +0.000 HD
ENDBRANCH  11  12
ENDBRANCH   1  11
BRANCH   3  14
ATOM     14  N   UNL     1       3.159   4.944  17.964  0.00  0.00    +0.000 N 
ATOM     15  H   UNL     1       2.623   4.182  17.565  0.00  0.00    +0.000 HD
BRANCH  14  16
ATOM     16  N   UNL     1       2.518   6.123  18.069  0.00  0.00    +0.000 NA
ATOM     17  N   UNL     1       2.646   6.543  19.233  0.00  0.00    +0.000 NA
BRANCH  17  18
ATOM     18  C   UNL     1       2.010   7.800  19.362  0.00  0.00    +0.000 A 
ATOM     19  C   UNL     1       1.871   8.610  18.227  0.00  0.00    +0.000 A 
ATOM     20  C   UNL     1       1.236   9.856  18.302  0.00  0.00    +0.000 A 
ATOM     21  C   UNL     1       0.729  10.309  19.519  0.00  0.00    +0.000 A 
ATOM     22  C   UNL     1       0.858   9.506  20.657  0.00  0.00    +0.000 A 
ATOM     23  C   UNL     1       1.485   8.256  20.582  0.00  0.00    +0.000 A 
BRANCH  22  24
ATOM     24  N   UNL     1       0.330   9.973  21.945  0.00  0.00    +0.000 N 
ATOM     25  O   UNL     1       0.287  11.195  22.139  0.00  0.00    +0.000 OA
ATOM     26  O   UNL     1      -0.045   9.118  22.760  0.00  0.00    +0.000 OA
ENDBRANCH  22  24
ENDBRANCH  17  18
ENDBRANCH  14  16
ENDBRANCH   3  14
TORSDOF 7
ENDMDL
MODEL 2
REMARK VINA RESULT:      -8.0      3.517      8.240
REMARK  Name = 
REMARK  7 active torsions:
REMARK  status: ('A' for Active; 'I' for Inactive)
REMARK    1  A    between atoms: C_2  and  O_3
REMARK    2  A    between atoms: C_2  and  C_4
REMARK    3  A    between atoms: C_6  and  N_7
REMARK    4  A    between atoms: N_7  and  N_8
REMARK    5  A    between atoms: N_9  and  C_10
REMARK    6  A    between atoms: C_14  and  N_15
REMARK    7  A    between atoms: C_20  and  N_21
REMARK                            x       y       z     vdW  Elec       q    Type
REMARK                         _______ _______ _______ _____ _____    ______ ____
ROOT
ATOM      1  C   UNL     1       2.556   4.240  20.117  0.00  0.00    +0.000 A 
ATOM      2  C   UNL     1       3.696   3.723  19.478  0.00  0.00    +0.000 A 
ATOM      3  C   UNL     1       4.436   4.513  18.585  0.00  0.00    +0.000 A 
ATOM      4  C   UNL     1       3.962   5.801  18.285  0.00  0.00    +0.000 A 
ATOM      5  C   UNL     1       2.822   6.312  18.914  0.00  0.00    +0.000 A 
ATOM      6  C   UNL     1       2.115   5.539  19.837  0.00  0.00    +0.000 A 
ENDROOT
BRANCH   5   7
ATOM      7  N   UNL     1       2.378   7.676  18.602  0.00  0.00    +0.000 N 
ATOM      8  O   UNL     1       1.785   8.308  19.488  0.00  0.00    +0.000 OA
ATOM      9  O   UNL     1       2.612   8.108  17.464  0.00  0.00    +0.000 OA
ENDBRANCH   5   7
BRANCH   1  11
ATOM     10  O   UNL     1       2.147   3.104  22.159  0.00  0.00    +0.000 OA
ATOM     11  C   UNL     1       1.743   3.428  21.056  0.00  0.00    +0.000 C 
BRANCH  11  12
ATOM     12  O   UNL     1       0.548   3.047  20.564  0.00  0.00    +0.000 OA
ATOM     13  H   UNL     1       0.107   2.314  21.032  0.00  0.00    +0.000 HD
ENDBRANCH  11  12
ENDBRANCH   1  11
BRANCH   3  14
ATOM     14  N   UNL     1       5.552   3.972  17.917  0.00  0.00    +0.000 N 
ATOM     15  H   UNL     1       6.451   4.037  18.381  0.00  0.00    +0.000 HD
BRANCH  14  16
ATOM     16  N   UNL     1       5.572   4.074  16.576  0.00  0.00    +0.000 NA
ATOM     17  N   UNL     1       6.752   4.216  16.206  0.00  0.00    +0.000 NA
BRANCH  17  18
ATOM     18  C   UNL     1       6.806   4.292  14.794  0.00  0.00    +0.000 A 
ATOM     19  C   UNL     1       7.701   5.189  14.197  0.00  0.00    +0.000 A 
ATOM     20  C   UNL     1       7.800   5.290  12.804  0.00  0.00    +0.000 A 
ATOM     21  C   UNL     1       7.003   4.490  11.987  0.00  0.00    +0.000 A 
ATOM     22  C   UNL     1       6.109   3.588  12.573  0.00  0.00    +0.000 A 
ATOM     23  C   UNL     1       6.015   3.479  13.966  0.00  0.00    +0.000 A 
BRANCH  22  24
ATOM     24  N   UNL     1       5.262   2.741  11.723  0.00  0.00    +0.000 N 
ATOM     25  O   UNL     1       5.726   1.656  11.348  0.00  0.00    +0.000 OA
ATOM     26  O   UNL     1       4.133   3.162  11.434  0.00  0.00    +0.000 OA
ENDBRANCH  22  24
ENDBRANCH  17  18
ENDBRANCH  14  16
ENDBRANCH   3  14
TORSDOF 7
ENDMDL
MODEL 3
REMARK VINA RESULT:      -7.9      3.626      8.403
REMARK  Name = 
REMARK  7 active torsions:
REMARK  status: ('A' for Active; 'I' for Inactive)
REMARK    1  A    between atoms: C_2  and  O_3
REMARK    2  A    between atoms: C_2  and  C_4
REMARK    3  A    between atoms: C_6  and  N_7
REMARK    4  A    between atoms: N_7  and  N_8
REMARK    5  A    between atoms: N_9  and  C_10
REMARK    6  A    between atoms: C_14  and  N_15
REMARK    7  A    between atoms: C_20  and  N_21
REMARK                            x       y       z     vdW  Elec       q    Type
REMARK                         _______ _______ _______ _____ _____    ______ ____
ROOT
ATOM      1  C   UNL     1       2.014   3.890  19.315  0.00  0.00    +0.000 A 
ATOM      2  C   UNL     1       3.238   3.443  18.784  0.00  0.00    +0.000 A 
ATOM      3  C   UNL     1       4.198   4.359  18.330  0.00  0.00    +0.000 A 
ATOM      4  C   UNL     1       3.874   5.725  18.344  0.00  0.00    +0.000 A 
ATOM      5  C   UNL     1       2.653   6.169  18.864  0.00  0.00    +0.000 A 
ATOM      6  C   UNL     1       1.719   5.257  19.356  0.00  0.00    +0.000 A 
ENDROOT
BRANCH   5   7
ATOM      7  N   UNL     1       2.365   7.609  18.895  0.00  0.00    +0.000 N 
ATOM      8  O   UNL     1       2.761   8.298  17.944  0.00  0.00    +0.000 OA
ATOM      9  O   UNL     1       1.754   8.050  19.878  0.00  0.00    +0.000 OA
ENDBRANCH   5   7
BRANCH   1  11
ATOM     10  O   UNL     1       0.245   2.337  19.025  0.00  0.00    +0.000 OA
ATOM     11  C   UNL     1       0.971   2.948  19.790  0.00  0.00    +0.000 C 
BRANCH  11  12
ATOM     12  O   UNL     1       0.872   2.864  21.131  0.00  0.00    +0.000 OA
ATOM     13  H   UNL     1       0.123   3.339  21.534  0.00  0.00    +0.000 HD
ENDBRANCH  11  12
ENDBRANCH   1  11
BRANCH   3  14
ATOM     14  N   UNL     1       5.402   3.900  17.761  0.00  0.00    +0.000 N 
ATOM     15  H   UNL     1       6.262   4.110  18.255  0.00  0.00    +0.000 HD
BRANCH  14  16
ATOM     16  N   UNL     1       5.481   3.891  16.418  0.00  0.00    +0.000 NA
ATOM     17  N   UNL     1       6.560   4.408  16.080  0.00  0.00    +0.000 NA
BRANCH  17  18
ATOM     18  C   UNL     1       6.685   4.381  14.670  0.00  0.00    +0.000 A 
ATOM     19  C   UNL     1       7.644   5.198  14.058  0.00  0.00    +0.000 A 
ATOM     20  C   UNL     1       7.814   5.195  12.668  0.00  0.00    +0.000 A 
ATOM     21  C   UNL     1       7.023   4.371  11.869  0.00  0.00    +0.000 A 
ATOM     22  C   UNL     1       6.065   3.547  12.471  0.00  0.00    +0.000 A 
ATOM     23  C   UNL     1       5.900   3.543  13.862  0.00  0.00    +0.000 A 
BRANCH  22  24
ATOM     24  N   UNL     1       5.224   2.676  11.641  0.00  0.00    +0.000 N 
ATOM     25  O   UNL     1       5.680   1.570  11.324  0.00  0.00    +0.000 OA
ATOM     26  O   UNL     1       4.107   3.098  11.309  0.00  0.00    +0.000 OA
ENDBRANCH  22  24
ENDBRANCH  17  18
ENDBRANCH  14  16
ENDBRANCH   3  14
TORSDOF 7
ENDMDL
MODEL 4
REMARK VINA RESULT:      -7.9      3.566      8.334
REMARK  Name = 
REMARK  7 active torsions:
REMARK  status: ('A' for Active; 'I' for Inactive)
REMARK    1  A    between atoms: C_2  and  O_3
REMARK    2  A    between atoms: C_2  and  C_4
REMARK    3  A    between atoms: C_6  and  N_7
REMARK    4  A    between atoms: N_7  and  N_8
REMARK    5  A    between atoms: N_9  and  C_10
REMARK    6  A    between atoms: C_14  and  N_15
REMARK    7  A    between atoms: C_20  and  N_21
REMARK                            x       y       z     vdW  Elec       q    Type
REMARK                         _______ _______ _______ _____ _____    ______ ____
ROOT
ATOM      1  C   UNL     1       3.037   6.175  18.852  0.00  0.00    +0.000 A 
ATOM      2  C   UNL     1       4.195   5.719  18.197  0.00  0.00    +0.000 A 
ATOM      3  C   UNL     1       4.667   4.414  18.403  0.00  0.00    +0.000 A 
ATOM      4  C   UNL     1       4.003   3.606  19.340  0.00  0.00    +0.000 A 
ATOM      5  C   UNL     1       2.856   4.063  19.999  0.00  0.00    +0.000 A 
ATOM      6  C   UNL     1       2.363   5.346  19.756  0.00  0.00    +0.000 A 
ENDROOT
BRANCH   5   7
ATOM      7  N   UNL     1       2.168   3.176  20.945  0.00  0.00    +0.000 N 
ATOM      8  O   UNL     1       0.954   2.990  20.785  0.00  0.00    +0.000 OA
ATOM      9  O   UNL     1       2.843   2.676  21.857  0.00  0.00    +0.000 OA
ENDBRANCH   5   7
BRANCH   1  11
ATOM     10  O   UNL     1       1.723   8.060  19.437  0.00  0.00    +0.000 OA
ATOM     11  C   UNL     1       2.519   7.553  18.667  0.00  0.00    +0.000 C 
BRANCH  11  12
ATOM     12  O   UNL     1       2.972   8.169  17.558  0.00  0.00    +0.000 OA
ATOM     13  H   UNL     1       3.811   8.656  17.652  0.00  0.00    +0.000 HD
ENDBRANCH  11  12
ENDBRANCH   1  11
BRANCH   3  14
ATOM     14  N   UNL     1       5.851   3.982  17.775  0.00  0.00    +0.000 N 
ATOM     15  H   UNL     1       6.730   4.238  18.209  0.00  0.00    +0.000 HD
BRANCH  14  16
ATOM     16  N   UNL     1       5.850   3.934  16.430  0.00  0.00    +0.000 NA
ATOM     17  N   UNL     1       6.838   4.561  16.010  0.00  0.00    +0.000 NA
BRANCH  17  18
ATOM     18  C   UNL     1       6.880   4.497  14.596  0.00  0.00    +0.000 A 
ATOM     19  C   UNL     1       7.800   5.299  13.908  0.00  0.00    +0.000 A 
ATOM     20  C   UNL     1       7.888   5.261  12.511  0.00  0.00    +0.000 A 
ATOM     21  C   UNL     1       7.055   4.414  11.782  0.00  0.00    +0.000 A 
ATOM     22  C   UNL     1       6.137   3.605  12.459  0.00  0.00    +0.000 A 
ATOM     23  C   UNL     1       6.053   3.637  13.857  0.00  0.00    +0.000 A 
BRANCH  22  24
ATOM     24  N   UNL     1       5.252   2.711  11.702  0.00  0.00    +0.000 N 
ATOM     25  O   UNL     1       5.691   1.596  11.391  0.00  0.00    +0.000 OA
ATOM     26  O   UNL     1       4.117   3.124  11.422  0.00  0.00    +0.000 OA
ENDBRANCH  22  24
ENDBRANCH  17  18
ENDBRANCH  14  16
ENDBRANCH   3  14
TORSDOF 7
ENDMDL
MODEL 5
REMARK VINA RESULT:      -7.9      0.718      1.171
REMARK  Name = 
REMARK  7 active torsions:
REMARK  status: ('A' for Active; 'I' for Inactive)
REMARK    1  A    between atoms: C_2  and  O_3
REMARK    2  A    between atoms: C_2  and  C_4
REMARK    3  A    between atoms: C_6  and  N_7
REMARK    4  A    between atoms: N_7  and  N_8
REMARK    5  A    between atoms: N_9  and  C_10
REMARK    6  A    between atoms: C_14  and  N_15
REMARK    7  A    between atoms: C_20  and  N_21
REMARK                            x       y       z     vdW  Elec       q    Type
REMARK                         _______ _______ _______ _____ _____    ______ ____
ROOT
ATOM      1  C   UNL     1       6.834   5.467  18.263  0.00  0.00    +0.000 A 
ATOM      2  C   UNL     1       5.522   5.136  18.648  0.00  0.00    +0.000 A 
ATOM      3  C   UNL     1       4.622   4.588  17.722  0.00  0.00    +0.000 A 
ATOM      4  C   UNL     1       5.037   4.456  16.387  0.00  0.00    +0.000 A 
ATOM      5  C   UNL     1       6.339   4.794  16.003  0.00  0.00    +0.000 A 
ATOM      6  C   UNL     1       7.247   5.296  16.937  0.00  0.00    +0.000 A 
ENDROOT
BRANCH   5   7
ATOM      7  N   UNL     1       6.748   4.607  14.605  0.00  0.00    +0.000 N 
ATOM      8  O   UNL     1       6.193   3.710  13.955  0.00  0.00    +0.000 OA
ATOM      9  O   UNL     1       7.635   5.352  14.163  0.00  0.00    +0.000 OA
ENDBRANCH   5   7
BRANCH   1  11
ATOM     10  O   UNL     1       8.475   7.042  18.936  0.00  0.00    +0.000 OA
ATOM     11  C   UNL     1       7.807   6.061  19.213  0.00  0.00    +0.000 C 
BRANCH  11  12
ATOM     12  O   UNL     1       7.914   5.397  20.381  0.00  0.00    +0.000 OA
ATOM     13  H   UNL     1       8.313   5.893  21.119  0.00  0.00    +0.000 HD
ENDBRANCH  11  12
ENDBRANCH   1  11
BRANCH   3  14
ATOM     14  N   UNL     1       3.298   4.300  18.107  0.00  0.00    +0.000 N 
ATOM     15  H   UNL     1       2.814   3.566  17.603  0.00  0.00    +0.000 HD
BRANCH  14  16
ATOM     16  N   UNL     1       2.539   5.335  18.513  0.00  0.00    +0.000 NA
ATOM     17  N   UNL     1       3.183   6.387  18.355  0.00  0.00    +0.000 NA
BRANCH  17  18
ATOM     18  C   UNL     1       2.393   7.495  18.742  0.00  0.00    +0.000 A 
ATOM     19  C   UNL     1       2.008   8.427  17.770  0.00  0.00    +0.000 A 
ATOM     20  C   UNL     1       1.216   9.533  18.102  0.00  0.00    +0.000 A 
ATOM     21  C   UNL     1       0.796   9.720  19.418  0.00  0.00    +0.000 A 
ATOM     22  C   UNL     1       1.171   8.793  20.397  0.00  0.00    +0.000 A 
ATOM     23  C   UNL     1       1.956   7.683  20.063  0.00  0.00    +0.000 A 
BRANCH  22  24
ATOM     24  N   UNL     1       0.737   8.981  21.787  0.00  0.00    +0.000 N 
ATOM     25  O   UNL     1       1.575   9.390  22.600  0.00  0.00    +0.000 OA
ATOM     26  O   UNL     1      -0.443   8.722  22.062  0.00  0.00    +0.000 OA
ENDBRANCH  22  24
ENDBRANCH  17  18
ENDBRANCH  14  16
ENDBRANCH   3  14
TORSDOF 7
ENDMDL
MODEL 6
REMARK VINA RESULT:      -7.9      1.503      1.921
REMARK  Name = 
REMARK  7 active torsions:
REMARK  status: ('A' for Active; 'I' for Inactive)
REMARK    1  A    between atoms: C_2  and  O_3
REMARK    2  A    between atoms: C_2  and  C_4
REMARK    3  A    between atoms: C_6  and  N_7
REMARK    4  A    between atoms: N_7  and  N_8
REMARK    5  A    between atoms: N_9  and  C_10
REMARK    6  A    between atoms: C_14  and  N_15
REMARK    7  A    between atoms: C_20  and  N_21
REMARK                            x       y       z     vdW  Elec       q    Type
REMARK                         _______ _______ _______ _____ _____    ______ ____
ROOT
ATOM      1  C   UNL     1       6.788   5.422  18.246  0.00  0.00    +0.000 A 
ATOM      2  C   UNL     1       5.419   5.219  18.496  0.00  0.00    +0.000 A 
ATOM      3  C   UNL     1       4.555   4.819  17.465  0.00  0.00    +0.000 A 
ATOM      4  C   UNL     1       5.076   4.708  16.166  0.00  0.00    +0.000 A 
ATOM      5  C   UNL     1       6.436   4.919  15.916  0.00  0.00    +0.000 A 
ATOM      6  C   UNL     1       7.301   5.272  16.953  0.00  0.00    +0.000 A 
ENDROOT
BRANCH   5   7
ATOM      7  N   UNL     1       6.950   4.758  14.550  0.00  0.00    +0.000 N 
ATOM      8  O   UNL     1       6.422   3.898  13.831  0.00  0.00    +0.000 OA
ATOM      9  O   UNL     1       7.892   5.485  14.202  0.00  0.00    +0.000 OA
ENDBRANCH   5   7
BRANCH   1  11
ATOM     10  O   UNL     1       7.809   5.286  20.382  0.00  0.00    +0.000 OA
ATOM     11  C   UNL     1       7.725   5.859  19.310  0.00  0.00    +0.000 C 
BRANCH  11  12
ATOM     12  O   UNL     1       8.436   6.961  19.001  0.00  0.00    +0.000 OA
ATOM     13  H   UNL     1       9.386   6.931  19.216  0.00  0.00    +0.000 HD
ENDBRANCH  11  12
ENDBRANCH   1  11
BRANCH   3  14
ATOM     14  N   UNL     1       3.179   4.659  17.716  0.00  0.00    +0.000 N 
ATOM     15  H   UNL     1       2.604   4.304  16.960  0.00  0.00    +0.000 HD
BRANCH  14  16
ATOM     16  N   UNL     1       2.594   5.561  18.526  0.00  0.00    +0.000 NA
ATOM     17  N   UNL     1       2.780   6.697  18.056  0.00  0.00    +0.000 NA
BRANCH  17  18
ATOM     18  C   UNL     1       2.145   7.664  18.872  0.00  0.00    +0.000 A 
ATOM     19  C   UNL     1       1.912   7.365  20.221  0.00  0.00    +0.000 A 
ATOM     20  C   UNL     1       1.300   8.295  21.071  0.00  0.00    +0.000 A 
ATOM     21  C   UNL     1       0.912   9.540  20.580  0.00  0.00    +0.000 A 
ATOM     22  C   UNL     1       1.144   9.850  19.235  0.00  0.00    +0.000 A 
ATOM     23  C   UNL     1       1.764   8.925  18.386  0.00  0.00    +0.000 A 
BRANCH  22  24
ATOM     24  N   UNL     1       0.737  11.158  18.706  0.00  0.00    +0.000 N 
ATOM     25  O   UNL     1       1.621  12.005  18.526  0.00  0.00    +0.000 OA
ATOM     26  O   UNL     1      -0.466  11.335  18.467  0.00  0.00    +0.000 OA
ENDBRANCH  22  24
ENDBRANCH  17  18
ENDBRANCH  14  16
ENDBRANCH   3  14
TORSDOF 7
ENDMDL
MODEL 7
REMARK VINA RESULT:      -7.7      2.403      3.337
REMARK  Name = 
REMARK  7 active torsions:
REMARK  status: ('A' for Active; 'I' for Inactive)
REMARK    1  A    between atoms: C_2  and  O_3
REMARK    2  A    between atoms: C_2  and  C_4
REMARK    3  A    between atoms: C_6  and  N_7
REMARK    4  A    between atoms: N_7  and  N_8
REMARK    5  A    between atoms: N_9  and  C_10
REMARK    6  A    between atoms: C_14  and  N_15
REMARK    7  A    between atoms: C_20  and  N_21
REMARK                            x       y       z     vdW  Elec       q    Type
REMARK                         _______ _______ _______ _____ _____    ______ ____
ROOT
ATOM      1  C   UNL     1       3.777   3.985  17.861  0.00  0.00    +0.000 A 
ATOM      2  C   UNL     1       3.269   5.271  17.599  0.00  0.00    +0.000 A 
ATOM      3  C   UNL     1       4.135   6.361  17.432  0.00  0.00    +0.000 A 
ATOM      4  C   UNL     1       5.512   6.152  17.614  0.00  0.00    +0.000 A 
ATOM      5  C   UNL     1       6.016   4.876  17.884  0.00  0.00    +0.000 A 
ATOM      6  C   UNL     1       5.155   3.785  18.004  0.00  0.00    +0.000 A 
ENDROOT
BRANCH   5   7
ATOM      7  N   UNL     1       7.465   4.691  18.032  0.00  0.00    +0.000 N 
ATOM      8  O   UNL     1       7.981   5.007  19.113  0.00  0.00    +0.000 OA
ATOM      9  O   UNL     1       8.088   4.241  17.059  0.00  0.00    +0.000 OA
ENDBRANCH   5   7
BRANCH   1  11
ATOM     10  O   UNL     1       3.308   1.730  18.425  0.00  0.00    +0.000 OA
ATOM     11  C   UNL     1       2.889   2.813  18.058  0.00  0.00    +0.000 C 
BRANCH  11  12
ATOM     12  O   UNL     1       1.596   3.043  17.753  0.00  0.00    +0.000 OA
ATOM     13  H   UNL     1       0.940   2.677  18.374  0.00  0.00    +0.000 HD
ENDBRANCH  11  12
ENDBRANCH   1  11
BRANCH   3  14
ATOM     14  N   UNL     1       3.615   7.652  17.212  0.00  0.00    +0.000 N 
ATOM     15  H   UNL     1       4.213   8.323  16.744  0.00  0.00    +0.000 HD
BRANCH  14  16
ATOM     16  N   UNL     1       2.794   8.150  18.155  0.00  0.00    +0.000 NA
ATOM     17  N   UNL     1       1.974   8.908  17.607  0.00  0.00    +0.000 NA
BRANCH  17  18
ATOM     18  C   UNL     1       1.075   9.420  18.572  0.00  0.00    +0.000 A 
ATOM     19  C   UNL     1      -0.045  10.143  18.141  0.00  0.00    +0.000 A 
ATOM     20  C   UNL     1      -0.970  10.658  19.058  0.00  0.00    +0.000 A 
ATOM     21  C   UNL     1      -0.784  10.455  20.425  0.00  0.00    +0.000 A 
ATOM     22  C   UNL     1       0.329   9.731  20.866  0.00  0.00    +0.000 A 
ATOM     23  C   UNL     1       1.249   9.208  19.950  0.00  0.00    +0.000 A 
BRANCH  22  24
ATOM     24  N   UNL     1       0.536   9.513  22.304  0.00  0.00    +0.000 N 
ATOM     25  O   UNL     1       1.702   9.461  22.714  0.00  0.00    +0.000 OA
ATOM     26  O   UNL     1      -0.469   9.397  23.020  0.00  0.00    +0.000 OA
ENDBRANCH  22  24
ENDBRANCH  17  18
ENDBRANCH  14  16
ENDBRANCH   3  14
TORSDOF 7
ENDMDL
MODEL 8
REMARK VINA RESULT:      -7.7      1.823      3.575
REMARK  Name = 
REMARK  7 active torsions:
REMARK  status: ('A' for Active; 'I' for Inactive)
REMARK    1  A    between atoms: C_2  and  O_3
REMARK    2  A    between atoms: C_2  and  C_4
REMARK    3  A    between atoms: C_6  and  N_7
REMARK    4  A    between atoms: N_7  and  N_8
REMARK    5  A    between atoms: N_9  and  C_10
REMARK    6  A    between atoms: C_14  and  N_15
REMARK    7  A    between atoms: C_20  and  N_21
REMARK                            x       y       z     vdW  Elec       q    Type
REMARK                         _______ _______ _______ _____ _____    ______ ____
ROOT
ATOM      1  C   UNL     1       6.323   4.923  15.906  0.00  0.00    +0.000 A 
ATOM      2  C   UNL     1       4.958   4.778  16.215  0.00  0.00    +0.000 A 
ATOM      3  C   UNL     1       4.480   5.070  17.501  0.00  0.00    +0.000 A 
ATOM      4  C   UNL     1       5.410   5.429  18.491  0.00  0.00    +0.000 A 
ATOM      5  C   UNL     1       6.768   5.564  18.187  0.00  0.00    +0.000 A 
ATOM      6  C   UNL     1       7.233   5.317  16.894  0.00  0.00    +0.000 A 
ENDROOT
BRANCH   5   7
ATOM      7  N   UNL     1       7.704   5.977  19.240  0.00  0.00    +0.000 N 
ATOM      8  O   UNL     1       8.440   6.947  19.012  0.00  0.00    +0.000 OA
ATOM      9  O   UNL     1       7.710   5.320  20.291  0.00  0.00    +0.000 OA
ENDBRANCH   5   7
BRANCH   1  11
ATOM     10  O   UNL     1       7.668   5.329  13.996  0.00  0.00    +0.000 OA
ATOM     11  C   UNL     1       6.864   4.609  14.561  0.00  0.00    +0.000 C 
BRANCH  11  12
ATOM     12  O   UNL     1       6.355   3.490  14.009  0.00  0.00    +0.000 OA
ATOM     13  H   UNL     1       6.919   2.696  14.057  0.00  0.00    +0.000 HD
ENDBRANCH  11  12
ENDBRANCH   1  11
BRANCH   3  14
ATOM     14  N   UNL     1       3.120   4.880  17.811  0.00  0.00    +0.000 N 
ATOM     15  H   UNL     1       2.524   4.498  17.085  0.00  0.00    +0.000 HD
BRANCH  14  16
ATOM     16  N   UNL     1       2.546   5.781  18.629  0.00  0.00    +0.000 NA
ATOM     17  N   UNL     1       2.640   6.907  18.110  0.00  0.00    +0.000 NA
BRANCH  17  18
ATOM     18  C   UNL     1       2.013   7.870  18.936  0.00  0.00    +0.000 A 
ATOM     19  C   UNL     1       1.838   7.586  20.297  0.00  0.00    +0.000 A 
ATOM     20  C   UNL     1       1.236   8.513  21.156  0.00  0.00    +0.000 A 
ATOM     21  C   UNL     1       0.799   9.742  20.663  0.00  0.00    +0.000 A 
ATOM     22  C   UNL     1       0.973  10.037  19.307  0.00  0.00    +0.000 A 
ATOM     23  C   UNL     1       1.583   9.114  18.448  0.00  0.00    +0.000 A 
BRANCH  22  24
ATOM     24  N   UNL     1       0.515  11.327  18.775  0.00  0.00    +0.000 N 
ATOM     25  O   UNL     1      -0.686  11.440  18.496  0.00  0.00    +0.000 OA
ATOM     26  O   UNL     1       1.356  12.226  18.639  0.00  0.00    +0.000 OA
ENDBRANCH  22  24
ENDBRANCH  17  18
ENDBRANCH  14  16
ENDBRANCH   3  14
TORSDOF 7
ENDMDL
MODEL 9
REMARK VINA RESULT:      -7.6      2.253      2.832
REMARK  Name = 
REMARK  7 active torsions:
REMARK  status: ('A' for Active; 'I' for Inactive)
REMARK    1  A    between atoms: C_2  and  O_3
REMARK    2  A    between atoms: C_2  and  C_4
REMARK    3  A    between atoms: C_6  and  N_7
REMARK    4  A    between atoms: N_7  and  N_8
REMARK    5  A    between atoms: N_9  and  C_10
REMARK    6  A    between atoms: C_14  and  N_15
REMARK    7  A    between atoms: C_20  and  N_21
REMARK                            x       y       z     vdW  Elec       q    Type
REMARK                         _______ _______ _______ _____ _____    ______ ____
ROOT
ATOM      1  C   UNL     1       4.148   4.590  18.713  0.00  0.00    +0.000 A 
ATOM      2  C   UNL     1       3.447   5.768  18.398  0.00  0.00    +0.000 A 
ATOM      3  C   UNL     1       3.943   6.661  17.437  0.00  0.00    +0.000 A 
ATOM      4  C   UNL     1       5.194   6.390  16.859  0.00  0.00    +0.000 A 
ATOM      5  C   UNL     1       5.896   5.223  17.179  0.00  0.00    +0.000 A 
ATOM      6  C   UNL     1       5.377   4.314  18.102  0.00  0.00    +0.000 A 
ENDROOT
BRANCH   5   7
ATOM      7  N   UNL     1       7.184   4.956  16.527  0.00  0.00    +0.000 N 
ATOM      8  O   UNL     1       7.364   5.420  15.392  0.00  0.00    +0.000 OA
ATOM      9  O   UNL     1       8.010   4.272  17.147  0.00  0.00    +0.000 OA
ENDBRANCH   5   7
BRANCH   1  11
ATOM     10  O   UNL     1       4.047   2.478  19.786  0.00  0.00    +0.000 OA
ATOM     11  C   UNL     1       3.659   3.632  19.734  0.00  0.00    +0.000 C 
BRANCH  11  12
ATOM     12  O   UNL     1       2.724   4.137  20.563  0.00  0.00    +0.000 OA
ATOM     13  H   UNL     1       1.799   3.911  20.351  0.00  0.00    +0.000 HD
ENDBRANCH  11  12
ENDBRANCH   1  11
BRANCH   3  14
ATOM     14  N   UNL     1       3.255   7.858  17.161  0.00  0.00    +0.000 N 
ATOM     15  H   UNL     1       3.730   8.549  16.591  0.00  0.00    +0.000 HD
BRANCH  14  16
ATOM     16  N   UNL     1       2.454   8.343  18.127  0.00  0.00    +0.000 NA
ATOM     17  N   UNL     1       1.726   9.224  17.636  0.00  0.00    +0.000 NA
BRANCH  17  18
ATOM     18  C   UNL     1       0.848   9.727  18.626  0.00  0.00    +0.000 A 
ATOM     19  C   UNL     1      -0.353  10.326  18.225  0.00  0.00    +0.000 A 
ATOM     20  C   UNL     1      -1.260  10.827  19.167  0.00  0.00    +0.000 A 
ATOM     21  C   UNL     1      -0.976  10.732  20.529  0.00  0.00    +0.000 A 
ATOM     22  C   UNL     1       0.219  10.132  20.940  0.00  0.00    +0.000 A 
ATOM     23  C   UNL     1       1.123   9.623  19.999  0.00  0.00    +0.000 A 
BRANCH  22  24
ATOM     24  N   UNL     1       0.531  10.029  22.371  0.00  0.00    +0.000 N 
ATOM     25  O   UNL     1       1.531   9.374  22.695  0.00  0.00    +0.000 OA
ATOM     26  O   UNL     1      -0.221  10.606  23.168  0.00  0.00    +0.000 OA
ENDBRANCH  22  24
ENDBRANCH  17  18
ENDBRANCH  14  16
ENDBRANCH   3  14
TORSDOF 7
ENDMDL
