MODEL 1
REMARK VINA RESULT:      -7.8      0.000      0.000
REMARK  Name = 
REMARK  9 active torsions:
REMARK  status: ('A' for Active; 'I' for Inactive)
REMARK    1  A    between atoms: C_1  and  C_2
REMARK    2  A    between atoms: C_2  and  O_3
REMARK    3  A    between atoms: O_3  and  C_4
REMARK    4  A    between atoms: C_7  and  C_8
REMARK    5  A    between atoms: C_8  and  N_9
REMARK    6  A    between atoms: C_10  and  C_11
REMARK    7  A    between atoms: C_11  and  N_12
REMARK    8  A    between atoms: N_12  and  S_13
REMARK    9  A    between atoms: S_13  and  C_16
REMARK                            x       y       z     vdW  Elec       q    Type
REMARK                         _______ _______ _______ _____ _____    ______ ____
ROOT
ATOM      1  N   UNL     1       2.989   5.452  19.183  0.00  0.00    +0.000 N 
ATOM      2  C   UNL     1       3.990   5.169  18.260  0.00  0.00    +0.000 A 
ATOM      3  N   UNL     1       3.794   3.982  17.701  0.00  0.00    +0.000 NA
ATOM      4  C   UNL     1       2.675   3.468  18.287  0.00  0.00    +0.000 A 
ATOM      5  C   UNL     1       1.989   2.264  18.083  0.00  0.00    +0.000 A 
ATOM      6  C   UNL     1       0.838   2.042  18.844  0.00  0.00    +0.000 A 
ATOM      7  C   UNL     1       0.465   2.984  19.790  0.00  0.00    +0.000 A 
ATOM      8  N   UNL     1       1.138   4.121  20.065  0.00  0.00    +0.000 NA
ATOM      9  C   UNL     1       2.189   4.332  19.252  0.00  0.00    +0.000 A 
ENDROOT
BRANCH   1  10
ATOM     10  C   UNL     1       2.878   6.596  20.087  0.00  0.00    +0.000 C 
BRANCH  10  14
ATOM     11  C   UNL     1       0.536  10.033  18.794  0.00  0.00    +0.000 A 
ATOM     12  C   UNL     1       0.420   9.563  20.091  0.00  0.00    +0.000 A 
ATOM     13  C   UNL     1       1.158   8.453  20.501  0.00  0.00    +0.000 A 
ATOM     14  C   UNL     1       1.987   7.738  19.623  0.00  0.00    +0.000 A 
ATOM     15  C   UNL     1       2.074   8.217  18.305  0.00  0.00    +0.000 A 
ATOM     16  C   UNL     1       1.351   9.351  17.893  0.00  0.00    +0.000 A 
BRANCH  11  17
ATOM     17  O   UNL     1      -0.191  11.158  18.526  0.00  0.00    +0.000 OA
BRANCH  17  19
ATOM     18  C   UNL     1      -1.979  10.370  17.175  0.00  0.00    +0.000 C 
ATOM     19  C   UNL     1      -1.605  10.996  18.505  0.00  0.00    +0.000 C 
ENDBRANCH  17  19
ENDBRANCH  11  17
ENDBRANCH  10  14
ENDBRANCH   1  10
BRANCH   2  20
ATOM     20  C   UNL     1       5.135   6.060  17.884  0.00  0.00    +0.000 C 
BRANCH  20  21
ATOM     21  N   UNL     1       5.391   5.990  16.434  0.00  0.00    +0.000 NA
ATOM     22  H   UNL     1       5.281   6.905  15.983  0.00  0.00    +0.000 HD
BRANCH  21  23
ATOM     23  S   UNL     1       6.931   5.403  16.042  0.00  0.00    +0.000 S 
ATOM     24  O   UNL     1       7.844   6.518  16.089  0.00  0.00    +0.000 OA
ATOM     25  O   UNL     1       7.156   4.206  16.830  0.00  0.00    +0.000 OA
BRANCH  23  26
ATOM     26  C   UNL     1       6.902   4.839  14.357  0.00  0.00    +0.000 A 
ATOM     27  C   UNL     1       7.725   5.095  13.276  0.00  0.00    +0.000 A 
ATOM     28  C   UNL     1       7.328   4.379  12.110  0.00  0.00    +0.000 A 
ATOM     29  C   UNL     1       6.212   3.604  12.340  0.00  0.00    +0.000 A 
ATOM     30  S   UNL     1       5.656   3.740  13.951  0.00  0.00    +0.000 S 
ENDBRANCH  23  26
ENDBRANCH  21  23
ENDBRANCH  20  21
ENDBRANCH   2  20
TORSDOF 8
ENDMDL
MODEL 2
REMARK VINA RESULT:      -7.8      2.024      2.893
REMARK  Name = 
REMARK  9 active torsions:
REMARK  status: ('A' for Active; 'I' for Inactive)
REMARK    1  A    between atoms: C_1  and  C_2
REMARK    2  A    between atoms: C_2  and  O_3
REMARK    3  A    between atoms: O_3  and  C_4
REMARK    4  A    between atoms: C_7  and  C_8
REMARK    5  A    between atoms: C_8  and  N_9
REMARK    6  A    between atoms: C_10  and  C_11
REMARK    7  A    between atoms: C_11  and  N_12
REMARK    8  A    between atoms: N_12  and  S_13
REMARK    9  A    between atoms: S_13  and  C_16
REMARK                            x       y       z     vdW  Elec       q    Type
REMARK                         _______ _______ _______ _____ _____    ______ ____
ROOT
ATOM      1  N   UNL     1       3.297   4.868  18.580  0.00  0.00    +0.000 N 
ATOM      2  C   UNL     1       3.384   3.995  17.501  0.00  0.00    +0.000 A 
ATOM      3  N   UNL     1       2.890   2.805  17.816  0.00  0.00    +0.000 NA
ATOM      4  C   UNL     1       2.506   2.888  19.122  0.00  0.00    +0.000 A 
ATOM      5  C   UNL     1       1.906   1.955  19.976  0.00  0.00    +0.000 A 
ATOM      6  C   UNL     1       1.613   2.367  21.278  0.00  0.00    +0.000 A 
ATOM      7  C   UNL     1       1.975   3.645  21.676  0.00  0.00    +0.000 A 
ATOM      8  N   UNL     1       2.617   4.549  20.906  0.00  0.00    +0.000 NA
ATOM      9  C   UNL     1       2.802   4.137  19.639  0.00  0.00    +0.000 A 
ENDROOT
BRANCH   1  10
ATOM     10  C   UNL     1       3.812   6.232  18.694  0.00  0.00    +0.000 C 
BRANCH  10  14
ATOM     11  C   UNL     1       1.038   9.583  18.922  0.00  0.00    +0.000 A 
ATOM     12  C   UNL     1       1.207   8.746  20.013  0.00  0.00    +0.000 A 
ATOM     13  C   UNL     1       2.084   7.664  19.935  0.00  0.00    +0.000 A 
ATOM     14  C   UNL     1       2.773   7.342  18.756  0.00  0.00    +0.000 A 
ATOM     15  C   UNL     1       2.571   8.189  17.654  0.00  0.00    +0.000 A 
ATOM     16  C   UNL     1       1.708   9.296  17.735  0.00  0.00    +0.000 A 
BRANCH  11  17
ATOM     17  O   UNL     1       0.200  10.639  19.136  0.00  0.00    +0.000 OA
BRANCH  17  19
ATOM     18  C   UNL     1      -1.712  11.241  17.860  0.00  0.00    +0.000 C 
ATOM     19  C   UNL     1      -1.190  10.371  18.989  0.00  0.00    +0.000 C 
ENDBRANCH  17  19
ENDBRANCH  11  17
ENDBRANCH  10  14
ENDBRANCH   1  10
BRANCH   2  20
ATOM     20  C   UNL     1       3.920   4.312  16.138  0.00  0.00    +0.000 C 
BRANCH  20  21
ATOM     21  N   UNL     1       5.345   3.946  16.043  0.00  0.00    +0.000 NA
ATOM     22  H   UNL     1       5.506   3.224  15.334  0.00  0.00    +0.000 HD
BRANCH  21  23
ATOM     23  S   UNL     1       6.361   5.255  15.686  0.00  0.00    +0.000 S 
ATOM     24  O   UNL     1       7.414   4.765  14.832  0.00  0.00    +0.000 OA
ATOM     25  O   UNL     1       5.518   6.367  15.289  0.00  0.00    +0.000 OA
BRANCH  23  26
ATOM     26  C   UNL     1       7.136   5.788  17.194  0.00  0.00    +0.000 A 
ATOM     27  C   UNL     1       7.534   5.105  18.327  0.00  0.00    +0.000 A 
ATOM     28  C   UNL     1       8.156   5.957  19.285  0.00  0.00    +0.000 A 
ATOM     29  C   UNL     1       8.206   7.264  18.851  0.00  0.00    +0.000 A 
ATOM     30  S   UNL     1       7.512   7.453  17.300  0.00  0.00    +0.000 S 
ENDBRANCH  23  26
ENDBRANCH  21  23
ENDBRANCH  20  21
ENDBRANCH   2  20
TORSDOF 8
ENDMDL
MODEL 3
REMARK VINA RESULT:      -7.5      2.974      7.794
REMARK  Name = 
REMARK  9 active torsions:
REMARK  status: ('A' for Active; 'I' for Inactive)
REMARK    1  A    between atoms: C_1  and  C_2
REMARK    2  A    between atoms: C_2  and  O_3
REMARK    3  A    between atoms: O_3  and  C_4
REMARK    4  A    between atoms: C_7  and  C_8
REMARK    5  A    between atoms: C_8  and  N_9
REMARK    6  A    between atoms: C_10  and  C_11
REMARK    7  A    between atoms: C_11  and  N_12
REMARK    8  A    between atoms: N_12  and  S_13
REMARK    9  A    between atoms: S_13  and  C_16
REMARK                            x       y       z     vdW  Elec       q    Type
REMARK                         _______ _______ _______ _____ _____    ______ ____
ROOT
ATOM      1  N   UNL     1       4.360   5.679  18.758  0.00  0.00    +0.000 N 
ATOM      2  C   UNL     1       3.183   6.412  18.661  0.00  0.00    +0.000 A 
ATOM      3  N   UNL     1       2.183   5.779  19.262  0.00  0.00    +0.000 NA
ATOM      4  C   UNL     1       2.702   4.607  19.727  0.00  0.00    +0.000 A 
ATOM      5  C   UNL     1       2.124   3.557  20.451  0.00  0.00    +0.000 A 
ATOM      6  C   UNL     1       2.950   2.485  20.801  0.00  0.00    +0.000 A 
ATOM      7  C   UNL     1       4.269   2.484  20.375  0.00  0.00    +0.000 A 
ATOM      8  N   UNL     1       4.843   3.443  19.618  0.00  0.00    +0.000 NA
ATOM      9  C   UNL     1       4.036   4.491  19.377  0.00  0.00    +0.000 A 
ENDROOT
BRANCH   1  10
ATOM     10  C   UNL     1       5.662   5.960  18.153  0.00  0.00    +0.000 C 
BRANCH  10  14
ATOM     11  C   UNL     1       6.401   4.223  14.227  0.00  0.00    +0.000 A 
ATOM     12  C   UNL     1       5.235   3.922  14.911  0.00  0.00    +0.000 A 
ATOM     13  C   UNL     1       5.005   4.466  16.175  0.00  0.00    +0.000 A 
ATOM     14  C   UNL     1       5.949   5.275  16.825  0.00  0.00    +0.000 A 
ATOM     15  C   UNL     1       7.135   5.551  16.125  0.00  0.00    +0.000 A 
ATOM     16  C   UNL     1       7.361   5.025  14.840  0.00  0.00    +0.000 A 
BRANCH  11  17
ATOM     17  O   UNL     1       6.487   3.679  12.978  0.00  0.00    +0.000 OA
BRANCH  17  19
ATOM     18  C   UNL     1       5.412   2.211  11.450  0.00  0.00    +0.000 C 
ATOM     19  C   UNL     1       5.251   3.450  12.311  0.00  0.00    +0.000 C 
ENDBRANCH  17  19
ENDBRANCH  11  17
ENDBRANCH  10  14
ENDBRANCH   1  10
BRANCH   2  20
ATOM     20  C   UNL     1       3.015   7.752  18.012  0.00  0.00    +0.000 C 
BRANCH  20  21
ATOM     21  N   UNL     1       1.589   8.036  17.769  0.00  0.00    +0.000 NA
ATOM     22  H   UNL     1       0.980   7.357  18.237  0.00  0.00    +0.000 HD
BRANCH  21  23
ATOM     23  S   UNL     1       1.110   9.585  18.264  0.00  0.00    +0.000 S 
ATOM     24  O   UNL     1       2.230  10.470  18.063  0.00  0.00    +0.000 OA
ATOM     25  O   UNL     1      -0.184   9.853  17.666  0.00  0.00    +0.000 OA
BRANCH  23  26
ATOM     26  C   UNL     1       0.802   9.542  20.013  0.00  0.00    +0.000 A 
ATOM     27  C   UNL     1       1.244   8.700  21.015  0.00  0.00    +0.000 A 
ATOM     28  C   UNL     1       0.756   9.079  22.299  0.00  0.00    +0.000 A 
ATOM     29  C   UNL     1      -0.048  10.196  22.231  0.00  0.00    +0.000 A 
ATOM     30  S   UNL     1      -0.204  10.780  20.632  0.00  0.00    +0.000 S 
ENDBRANCH  23  26
ENDBRANCH  21  23
ENDBRANCH  20  21
ENDBRANCH   2  20
TORSDOF 8
ENDMDL
MODEL 4
REMARK VINA RESULT:      -7.5      3.167      7.629
REMARK  Name = 
REMARK  9 active torsions:
REMARK  status: ('A' for Active; 'I' for Inactive)
REMARK    1  A    between atoms: C_1  and  C_2
REMARK    2  A    between atoms: C_2  and  O_3
REMARK    3  A    between atoms: O_3  and  C_4
REMARK    4  A    between atoms: C_7  and  C_8
REMARK    5  A    between atoms: C_8  and  N_9
REMARK    6  A    between atoms: C_10  and  C_11
REMARK    7  A    between atoms: C_11  and  N_12
REMARK    8  A    between atoms: N_12  and  S_13
REMARK    9  A    between atoms: S_13  and  C_16
REMARK                            x       y       z     vdW  Elec       q    Type
REMARK                         _______ _______ _______ _____ _____    ______ ____
ROOT
ATOM      1  N   UNL     1       3.338   5.444  19.539  0.00  0.00    +0.000 N 
ATOM      2  C   UNL     1       2.171   6.169  19.750  0.00  0.00    +0.000 A 
ATOM      3  N   UNL     1       1.114   5.368  19.768  0.00  0.00    +0.000 NA
ATOM      4  C   UNL     1       1.589   4.111  19.532  0.00  0.00    +0.000 A 
ATOM      5  C   UNL     1       0.941   2.872  19.457  0.00  0.00    +0.000 A 
ATOM      6  C   UNL     1       1.731   1.745  19.219  0.00  0.00    +0.000 A 
ATOM      7  C   UNL     1       3.093   1.909  19.016  0.00  0.00    +0.000 A 
ATOM      8  N   UNL     1       3.743   3.092  19.011  0.00  0.00    +0.000 NA
ATOM      9  C   UNL     1       2.957   4.137  19.327  0.00  0.00    +0.000 A 
ENDROOT
BRANCH   1  10
ATOM     10  C   UNL     1       4.701   5.941  19.349  0.00  0.00    +0.000 C 
BRANCH  10  14
ATOM     11  C   UNL     1       6.207   5.267  15.318  0.00  0.00    +0.000 A 
ATOM     12  C   UNL     1       6.827   4.665  16.400  0.00  0.00    +0.000 A 
ATOM     13  C   UNL     1       6.354   4.894  17.692  0.00  0.00    +0.000 A 
ATOM     14  C   UNL     1       5.292   5.771  17.958  0.00  0.00    +0.000 A 
ATOM     15  C   UNL     1       4.692   6.389  16.849  0.00  0.00    +0.000 A 
ATOM     16  C   UNL     1       5.148   6.144  15.542  0.00  0.00    +0.000 A 
BRANCH  11  17
ATOM     17  O   UNL     1       6.722   4.923  14.101  0.00  0.00    +0.000 OA
BRANCH  17  19
ATOM     18  C   UNL     1       5.364   3.716  12.569  0.00  0.00    +0.000 C 
ATOM     19  C   UNL     1       6.426   3.607  13.648  0.00  0.00    +0.000 C 
ENDBRANCH  17  19
ENDBRANCH  11  17
ENDBRANCH  10  14
ENDBRANCH   1  10
BRANCH   2  20
ATOM     20  C   UNL     1       2.067   7.648  19.970  0.00  0.00    +0.000 C 
BRANCH  20  21
ATOM     21  N   UNL     1       1.867   7.947  21.400  0.00  0.00    +0.000 NA
ATOM     22  H   UNL     1       2.665   8.454  21.798  0.00  0.00    +0.000 HD
BRANCH  21  23
ATOM     23  S   UNL     1       0.470   8.852  21.718  0.00  0.00    +0.000 S 
ATOM     24  O   UNL     1      -0.655   7.953  21.643  0.00  0.00    +0.000 OA
ATOM     25  O   UNL     1       0.726   9.647  22.903  0.00  0.00    +0.000 OA
BRANCH  23  26
ATOM     26  C   UNL     1       0.263  10.037  20.411  0.00  0.00    +0.000 A 
ATOM     27  C   UNL     1      -0.443   9.999  19.223  0.00  0.00    +0.000 A 
ATOM     28  C   UNL     1      -0.347  11.219  18.494  0.00  0.00    +0.000 A 
ATOM     29  C   UNL     1       0.434  12.146  19.149  0.00  0.00    +0.000 A 
ATOM     30  S   UNL     1       1.039  11.546  20.632  0.00  0.00    +0.000 S 
ENDBRANCH  23  26
ENDBRANCH  21  23
ENDBRANCH  20  21
ENDBRANCH   2  20
TORSDOF 8
ENDMDL
MODEL 5
REMARK VINA RESULT:      -7.5      0.984      1.243
REMARK  Name = 
REMARK  9 active torsions:
REMARK  status: ('A' for Active; 'I' for Inactive)
REMARK    1  A    between atoms: C_1  and  C_2
REMARK    2  A    between atoms: C_2  and  O_3
REMARK    3  A    between atoms: O_3  and  C_4
REMARK    4  A    between atoms: C_7  and  C_8
REMARK    5  A    between atoms: C_8  and  N_9
REMARK    6  A    between atoms: C_10  and  C_11
REMARK    7  A    between atoms: C_11  and  N_12
REMARK    8  A    between atoms: N_12  and  S_13
REMARK    9  A    between atoms: S_13  and  C_16
REMARK                            x       y       z     vdW  Elec       q    Type
REMARK                         _______ _______ _______ _____ _____    ______ ____
ROOT
ATOM      1  N   UNL     1       2.913   5.734  19.032  0.00  0.00    +0.000 N 
ATOM      2  C   UNL     1       3.747   5.483  17.948  0.00  0.00    +0.000 A 
ATOM      3  N   UNL     1       3.480   4.299  17.412  0.00  0.00    +0.000 NA
ATOM      4  C   UNL     1       2.486   3.755  18.172  0.00  0.00    +0.000 A 
ATOM      5  C   UNL     1       1.796   2.541  18.069  0.00  0.00    +0.000 A 
ATOM      6  C   UNL     1       0.797   2.287  19.011  0.00  0.00    +0.000 A 
ATOM      7  C   UNL     1       0.574   3.209  20.022  0.00  0.00    +0.000 A 
ATOM      8  N   UNL     1       1.264   4.356  20.196  0.00  0.00    +0.000 NA
ATOM      9  C   UNL     1       2.157   4.598  19.219  0.00  0.00    +0.000 A 
ENDROOT
BRANCH   1  10
ATOM     10  C   UNL     1       2.939   6.864  19.960  0.00  0.00    +0.000 C 
BRANCH  10  14
ATOM     11  C   UNL     1       0.128  10.139  19.367  0.00  0.00    +0.000 A 
ATOM     12  C   UNL     1       0.171   9.472  20.580  0.00  0.00    +0.000 A 
ATOM     13  C   UNL     1       1.060   8.414  20.765  0.00  0.00    +0.000 A 
ATOM     14  C   UNL     1       1.890   7.944  19.736  0.00  0.00    +0.000 A 
ATOM     15  C   UNL     1       1.816   8.618  18.506  0.00  0.00    +0.000 A 
ATOM     16  C   UNL     1       0.938   9.702  18.322  0.00  0.00    +0.000 A 
BRANCH  11  17
ATOM     17  O   UNL     1      -0.740  11.192  19.325  0.00  0.00    +0.000 OA
BRANCH  17  19
ATOM     18  C   UNL     1       0.510  13.213  19.273  0.00  0.00    +0.000 C 
ATOM     19  C   UNL     1      -0.369  12.270  18.472  0.00  0.00    +0.000 C 
ENDBRANCH  17  19
ENDBRANCH  11  17
ENDBRANCH  10  14
ENDBRANCH   1  10
BRANCH   2  20
ATOM     20  C   UNL     1       4.795   6.401  17.396  0.00  0.00    +0.000 C 
BRANCH  20  21
ATOM     21  N   UNL     1       5.102   6.055  15.996  0.00  0.00    +0.000 NA
ATOM     22  H   UNL     1       5.117   6.885  15.393  0.00  0.00    +0.000 HD
BRANCH  21  23
ATOM     23  S   UNL     1       6.580   5.249  15.802  0.00  0.00    +0.000 S 
ATOM     24  O   UNL     1       7.625   6.239  15.874  0.00  0.00    +0.000 OA
ATOM     25  O   UNL     1       6.567   4.096  16.682  0.00  0.00    +0.000 OA
BRANCH  23  26
ATOM     26  C   UNL     1       6.634   4.569  14.162  0.00  0.00    +0.000 A 
ATOM     27  C   UNL     1       5.855   3.624  13.520  0.00  0.00    +0.000 A 
ATOM     28  C   UNL     1       6.255   3.417  12.168  0.00  0.00    +0.000 A 
ATOM     29  C   UNL     1       7.330   4.209  11.826  0.00  0.00    +0.000 A 
ATOM     30  S   UNL     1       7.844   5.193  13.126  0.00  0.00    +0.000 S 
ENDBRANCH  23  26
ENDBRANCH  21  23
ENDBRANCH  20  21
ENDBRANCH   2  20
TORSDOF 8
ENDMDL
MODEL 6
REMARK VINA RESULT:      -7.5      1.873      2.817
REMARK  Name = 
REMARK  9 active torsions:
REMARK  status: ('A' for Active; 'I' for Inactive)
REMARK    1  A    between atoms: C_1  and  C_2
REMARK    2  A    between atoms: C_2  and  O_3
REMARK    3  A    between atoms: O_3  and  C_4
REMARK    4  A    between atoms: C_7  and  C_8
REMARK    5  A    between atoms: C_8  and  N_9
REMARK    6  A    between atoms: C_10  and  C_11
REMARK    7  A    between atoms: C_11  and  N_12
REMARK    8  A    between atoms: N_12  and  S_13
REMARK    9  A    between atoms: S_13  and  C_16
REMARK                            x       y       z     vdW  Elec       q    Type
REMARK                         _______ _______ _______ _____ _____    ______ ____
ROOT
ATOM      1  N   UNL     1       2.875   5.705  18.762  0.00  0.00    +0.000 N 
ATOM      2  C   UNL     1       3.534   5.417  17.572  0.00  0.00    +0.000 A 
ATOM      3  N   UNL     1       3.204   4.211  17.129  0.00  0.00    +0.000 NA
ATOM      4  C   UNL     1       2.347   3.690  18.055  0.00  0.00    +0.000 A 
ATOM      5  C   UNL     1       1.666   2.467  18.106  0.00  0.00    +0.000 A 
ATOM      6  C   UNL     1       0.828   2.243  19.201  0.00  0.00    +0.000 A 
ATOM      7  C   UNL     1       0.752   3.203  20.199  0.00  0.00    +0.000 A 
ATOM      8  N   UNL     1       1.444   4.362  20.219  0.00  0.00    +0.000 NA
ATOM      9  C   UNL     1       2.172   4.571  19.107  0.00  0.00    +0.000 A 
ENDROOT
BRANCH   1  10
ATOM     10  C   UNL     1       3.028   6.871  19.631  0.00  0.00    +0.000 C 
BRANCH  10  14
ATOM     11  C   UNL     1       0.100  10.009  18.882  0.00  0.00    +0.000 A 
ATOM     12  C   UNL     1       0.905   9.550  17.852  0.00  0.00    +0.000 A 
ATOM     13  C   UNL     1       1.853   8.556  18.095  0.00  0.00    +0.000 A 
ATOM     14  C   UNL     1       2.076   8.030  19.377  0.00  0.00    +0.000 A 
ATOM     15  C   UNL     1       1.266   8.525  20.412  0.00  0.00    +0.000 A 
ATOM     16  C   UNL     1       0.291   9.509  20.168  0.00  0.00    +0.000 A 
BRANCH  11  17
ATOM     17  O   UNL     1      -0.827  10.940  18.511  0.00  0.00    +0.000 OA
BRANCH  17  19
ATOM     18  C   UNL     1      -3.150  11.358  18.241  0.00  0.00    +0.000 C 
ATOM     19  C   UNL     1      -2.001  10.435  17.884  0.00  0.00    +0.000 C 
ENDBRANCH  17  19
ENDBRANCH  11  17
ENDBRANCH  10  14
ENDBRANCH   1  10
BRANCH   2  20
ATOM     20  C   UNL     1       4.471   6.320  16.829  0.00  0.00    +0.000 C 
BRANCH  20  21
ATOM     21  N   UNL     1       4.949   5.671  15.595  0.00  0.00    +0.000 NA
ATOM     22  H   UNL     1       4.942   6.316  14.798  0.00  0.00    +0.000 HD
BRANCH  21  23
ATOM     23  S   UNL     1       6.511   5.027  15.725  0.00  0.00    +0.000 S 
ATOM     24  O   UNL     1       6.382   3.595  15.834  0.00  0.00    +0.000 OA
ATOM     25  O   UNL     1       7.322   5.639  14.689  0.00  0.00    +0.000 OA
BRANCH  23  26
ATOM     26  C   UNL     1       7.223   5.592  17.252  0.00  0.00    +0.000 A 
ATOM     27  C   UNL     1       7.560   4.935  18.420  0.00  0.00    +0.000 A 
ATOM     28  C   UNL     1       8.149   5.806  19.382  0.00  0.00    +0.000 A 
ATOM     29  C   UNL     1       8.235   7.100  18.917  0.00  0.00    +0.000 A 
ATOM     30  S   UNL     1       7.616   7.255  17.330  0.00  0.00    +0.000 S 
ENDBRANCH  23  26
ENDBRANCH  21  23
ENDBRANCH  20  21
ENDBRANCH   2  20
TORSDOF 8
ENDMDL
MODEL 7
REMARK VINA RESULT:      -7.4      1.936      2.701
REMARK  Name = 
REMARK  9 active torsions:
REMARK  status: ('A' for Active; 'I' for Inactive)
REMARK    1  A    between atoms: C_1  and  C_2
REMARK    2  A    between atoms: C_2  and  O_3
REMARK    3  A    between atoms: O_3  and  C_4
REMARK    4  A    between atoms: C_7  and  C_8
REMARK    5  A    between atoms: C_8  and  N_9
REMARK    6  A    between atoms: C_10  and  C_11
REMARK    7  A    between atoms: C_11  and  N_12
REMARK    8  A    between atoms: N_12  and  S_13
REMARK    9  A    between atoms: S_13  and  C_16
REMARK                            x       y       z     vdW  Elec       q    Type
REMARK                         _______ _______ _______ _____ _____    ______ ____
ROOT
ATOM      1  N   UNL     1       2.971   5.615  18.653  0.00  0.00    +0.000 N 
ATOM      2  C   UNL     1       3.627   5.352  17.455  0.00  0.00    +0.000 A 
ATOM      3  N   UNL     1       3.332   4.137  17.013  0.00  0.00    +0.000 NA
ATOM      4  C   UNL     1       2.503   3.586  17.945  0.00  0.00    +0.000 A 
ATOM      5  C   UNL     1       1.864   2.341  18.001  0.00  0.00    +0.000 A 
ATOM      6  C   UNL     1       1.046   2.086  19.104  0.00  0.00    +0.000 A 
ATOM      7  C   UNL     1       0.949   3.040  20.105  0.00  0.00    +0.000 A 
ATOM      8  N   UNL     1       1.603   4.221  20.121  0.00  0.00    +0.000 NA
ATOM      9  C   UNL     1       2.311   4.457  19.002  0.00  0.00    +0.000 A 
ENDROOT
BRANCH   1  10
ATOM     10  C   UNL     1       3.096   6.783  19.523  0.00  0.00    +0.000 C 
BRANCH  10  14
ATOM     11  C   UNL     1       0.495  10.212  18.839  0.00  0.00    +0.000 A 
ATOM     12  C   UNL     1       0.488   9.569  20.066  0.00  0.00    +0.000 A 
ATOM     13  C   UNL     1       1.310   8.462  20.280  0.00  0.00    +0.000 A 
ATOM     14  C   UNL     1       2.117   7.920  19.268  0.00  0.00    +0.000 A 
ATOM     15  C   UNL     1       2.093   8.572  18.024  0.00  0.00    +0.000 A 
ATOM     16  C   UNL     1       1.285   9.704  17.810  0.00  0.00    +0.000 A 
BRANCH  11  17
ATOM     17  O   UNL     1      -0.305  11.315  18.767  0.00  0.00    +0.000 OA
BRANCH  17  19
ATOM     18  C   UNL     1      -2.493  11.979  19.416  0.00  0.00    +0.000 C 
ATOM     19  C   UNL     1      -1.117  11.571  19.908  0.00  0.00    +0.000 C 
ENDBRANCH  17  19
ENDBRANCH  11  17
ENDBRANCH  10  14
ENDBRANCH   1  10
BRANCH   2  20
ATOM     20  C   UNL     1       4.525   6.288  16.705  0.00  0.00    +0.000 C 
BRANCH  20  21
ATOM     21  N   UNL     1       5.039   5.645  15.482  0.00  0.00    +0.000 NA
ATOM     22  H   UNL     1       5.054   6.294  14.688  0.00  0.00    +0.000 HD
BRANCH  21  23
ATOM     23  S   UNL     1       6.598   5.004  15.653  0.00  0.00    +0.000 S 
ATOM     24  O   UNL     1       6.469   3.571  15.749  0.00  0.00    +0.000 OA
ATOM     25  O   UNL     1       7.438   5.623  14.645  0.00  0.00    +0.000 OA
BRANCH  23  26
ATOM     26  C   UNL     1       7.264   5.561  17.203  0.00  0.00    +0.000 A 
ATOM     27  C   UNL     1       7.590   4.893  18.369  0.00  0.00    +0.000 A 
ATOM     28  C   UNL     1       8.138   5.762  19.357  0.00  0.00    +0.000 A 
ATOM     29  C   UNL     1       8.207   7.064  18.912  0.00  0.00    +0.000 A 
ATOM     30  S   UNL     1       7.619   7.231  17.315  0.00  0.00    +0.000 S 
ENDBRANCH  23  26
ENDBRANCH  21  23
ENDBRANCH  20  21
ENDBRANCH   2  20
TORSDOF 8
ENDMDL
MODEL 8
REMARK VINA RESULT:      -7.4      1.464      1.908
REMARK  Name = 
REMARK  9 active torsions:
REMARK  status: ('A' for Active; 'I' for Inactive)
REMARK    1  A    between atoms: C_1  and  C_2
REMARK    2  A    between atoms: C_2  and  O_3
REMARK    3  A    between atoms: O_3  and  C_4
REMARK    4  A    between atoms: C_7  and  C_8
REMARK    5  A    between atoms: C_8  and  N_9
REMARK    6  A    between atoms: C_10  and  C_11
REMARK    7  A    between atoms: C_11  and  N_12
REMARK    8  A    between atoms: N_12  and  S_13
REMARK    9  A    between atoms: S_13  and  C_16
REMARK                            x       y       z     vdW  Elec       q    Type
REMARK                         _______ _______ _______ _____ _____    ______ ____
ROOT
ATOM      1  N   UNL     1       2.893   4.973  19.859  0.00  0.00    +0.000 N 
ATOM      2  C   UNL     1       4.162   4.771  19.328  0.00  0.00    +0.000 A 
ATOM      3  N   UNL     1       4.199   3.659  18.605  0.00  0.00    +0.000 NA
ATOM      4  C   UNL     1       2.953   3.110  18.691  0.00  0.00    +0.000 A 
ATOM      5  C   UNL     1       2.406   1.954  18.121  0.00  0.00    +0.000 A 
ATOM      6  C   UNL     1       1.064   1.676  18.392  0.00  0.00    +0.000 A 
ATOM      7  C   UNL     1       0.361   2.515  19.243  0.00  0.00    +0.000 A 
ATOM      8  N   UNL     1       0.872   3.598  19.866  0.00  0.00    +0.000 NA
ATOM      9  C   UNL     1       2.140   3.872  19.511  0.00  0.00    +0.000 A 
ENDROOT
BRANCH   1  10
ATOM     10  C   UNL     1       2.447   6.011  20.788  0.00  0.00    +0.000 C 
BRANCH  10  14
ATOM     11  C   UNL     1       0.982   9.685  18.962  0.00  0.00    +0.000 A 
ATOM     12  C   UNL     1       1.762   8.807  18.227  0.00  0.00    +0.000 A 
ATOM     13  C   UNL     1       2.243   7.638  18.816  0.00  0.00    +0.000 A 
ATOM     14  C   UNL     1       2.020   7.332  20.167  0.00  0.00    +0.000 A 
ATOM     15  C   UNL     1       1.247   8.246  20.902  0.00  0.00    +0.000 A 
ATOM     16  C   UNL     1       0.737   9.414  20.307  0.00  0.00    +0.000 A 
BRANCH  11  17
ATOM     17  O   UNL     1       0.522  10.763  18.263  0.00  0.00    +0.000 OA
BRANCH  17  19
ATOM     18  C   UNL     1      -1.673  10.212  17.538  0.00  0.00    +0.000 C 
ATOM     19  C   UNL     1      -0.849  11.093  18.458  0.00  0.00    +0.000 C 
ENDBRANCH  17  19
ENDBRANCH  11  17
ENDBRANCH  10  14
ENDBRANCH   1  10
BRANCH   2  20
ATOM     20  C   UNL     1       5.350   5.670  19.488  0.00  0.00    +0.000 C 
BRANCH  20  21
ATOM     21  N   UNL     1       6.600   4.891  19.442  0.00  0.00    +0.000 NA
ATOM     22  H   UNL     1       6.419   3.882  19.402  0.00  0.00    +0.000 HD
BRANCH  21  23
ATOM     23  S   UNL     1       7.602   5.287  18.133  0.00  0.00    +0.000 S 
ATOM     24  O   UNL     1       8.119   6.611  18.369  0.00  0.00    +0.000 OA
ATOM     25  O   UNL     1       8.484   4.158  17.902  0.00  0.00    +0.000 OA
BRANCH  23  26
ATOM     26  C   UNL     1       6.597   5.385  16.671  0.00  0.00    +0.000 A 
ATOM     27  C   UNL     1       5.771   6.376  16.175  0.00  0.00    +0.000 A 
ATOM     28  C   UNL     1       5.186   6.021  14.925  0.00  0.00    +0.000 A 
ATOM     29  C   UNL     1       5.582   4.767  14.512  0.00  0.00    +0.000 A 
ATOM     30  S   UNL     1       6.655   4.033  15.624  0.00  0.00    +0.000 S 
ENDBRANCH  23  26
ENDBRANCH  21  23
ENDBRANCH  20  21
ENDBRANCH   2  20
TORSDOF 8
ENDMDL
MODEL 9
REMARK VINA RESULT:      -7.4      1.941      2.785
REMARK  Name = 
REMARK  9 active torsions:
REMARK  status: ('A' for Active; 'I' for Inactive)
REMARK    1  A    between atoms: C_1  and  C_2
REMARK    2  A    between atoms: C_2  and  O_3
REMARK    3  A    between atoms: O_3  and  C_4
REMARK    4  A    between atoms: C_7  and  C_8
REMARK    5  A    between atoms: C_8  and  N_9
REMARK    6  A    between atoms: C_10  and  C_11
REMARK    7  A    between atoms: C_11  and  N_12
REMARK    8  A    between atoms: N_12  and  S_13
REMARK    9  A    between atoms: S_13  and  C_16
REMARK                            x       y       z     vdW  Elec       q    Type
REMARK                         _______ _______ _______ _____ _____    ______ ____
ROOT
ATOM      1  N   UNL     1       3.220   5.517  18.570  0.00  0.00    +0.000 N 
ATOM      2  C   UNL     1       3.737   5.282  17.301  0.00  0.00    +0.000 A 
ATOM      3  N   UNL     1       3.396   4.075  16.869  0.00  0.00    +0.000 NA
ATOM      4  C   UNL     1       2.678   3.501  17.877  0.00  0.00    +0.000 A 
ATOM      5  C   UNL     1       2.052   2.253  17.978  0.00  0.00    +0.000 A 
ATOM      6  C   UNL     1       1.364   1.972  19.162  0.00  0.00    +0.000 A 
ATOM      7  C   UNL     1       1.379   2.905  20.187  0.00  0.00    +0.000 A 
ATOM      8  N   UNL     1       2.028   4.088  20.154  0.00  0.00    +0.000 NA
ATOM      9  C   UNL     1       2.605   4.350  18.967  0.00  0.00    +0.000 A 
ENDROOT
BRANCH   1  10
ATOM     10  C   UNL     1       3.440   6.668  19.445  0.00  0.00    +0.000 C 
BRANCH  10  14
ATOM     11  C   UNL     1       0.313   9.687  19.147  0.00  0.00    +0.000 A 
ATOM     12  C   UNL     1       1.116   9.409  18.053  0.00  0.00    +0.000 A 
ATOM     13  C   UNL     1       2.127   8.453  18.154  0.00  0.00    +0.000 A 
ATOM     14  C   UNL     1       2.414   7.788  19.355  0.00  0.00    +0.000 A 
ATOM     15  C   UNL     1       1.604   8.101  20.459  0.00  0.00    +0.000 A 
ATOM     16  C   UNL     1       0.567   9.046  20.358  0.00  0.00    +0.000 A 
BRANCH  11  17
ATOM     17  O   UNL     1      -0.677  10.597  18.912  0.00  0.00    +0.000 OA
BRANCH  17  19
ATOM     18  C   UNL     1      -0.850  12.857  18.199  0.00  0.00    +0.000 C 
ATOM     19  C   UNL     1      -0.404  11.934  19.317  0.00  0.00    +0.000 C 
ENDBRANCH  17  19
ENDBRANCH  11  17
ENDBRANCH  10  14
ENDBRANCH   1  10
BRANCH   2  20
ATOM     20  C   UNL     1       4.543   6.237  16.474  0.00  0.00    +0.000 C 
BRANCH  20  21
ATOM     21  N   UNL     1       5.105   5.555  15.294  0.00  0.00    +0.000 NA
ATOM     22  H   UNL     1       5.087   6.155  14.462  0.00  0.00    +0.000 HD
BRANCH  21  23
ATOM     23  S   UNL     1       6.698   5.021  15.510  0.00  0.00    +0.000 S 
ATOM     24  O   UNL     1       6.650   3.598  15.741  0.00  0.00    +0.000 OA
ATOM     25  O   UNL     1       7.498   5.588  14.441  0.00  0.00    +0.000 OA
BRANCH  23  26
ATOM     26  C   UNL     1       7.337   5.756  16.995  0.00  0.00    +0.000 A 
ATOM     27  C   UNL     1       7.641   7.062  17.331  0.00  0.00    +0.000 A 
ATOM     28  C   UNL     1       8.101   7.186  18.673  0.00  0.00    +0.000 A 
ATOM     29  C   UNL     1       8.139   5.967  19.316  0.00  0.00    +0.000 A 
ATOM     30  S   UNL     1       7.617   4.691  18.305  0.00  0.00    +0.000 S 
ENDBRANCH  23  26
ENDBRANCH  21  23
ENDBRANCH  20  21
ENDBRANCH   2  20
TORSDOF 8
ENDMDL
