MODEL 1
REMARK VINA RESULT:      -8.4      0.000      0.000
REMARK  Name = 
REMARK  11 active torsions:
REMARK  status: ('A' for Active; 'I' for Inactive)
REMARK    1  A    between atoms: C_1  and  C_2
REMARK    2  A    between atoms: N_4  and  C_5
REMARK    3  A    between atoms: C_5  and  C_6
REMARK    4  A    between atoms: C_5  and  C_23
REMARK    5  A    between atoms: C_6  and  O_7
REMARK    6  A    between atoms: O_7  and  C_8
REMARK    7  A    between atoms: C_14  and  O_15
REMARK    8  A    between atoms: O_15  and  C_16
REMARK    9  A    between atoms: C_23  and  C_24
REMARK   10  A    between atoms: C_24  and  C_25
REMARK   11  A    between atoms: C_24  and  C_26
REMARK                            x       y       z     vdW  Elec       q    Type
REMARK                         _______ _______ _______ _____ _____    ______ ____
ROOT
ATOM      1  C   UNL     1       2.779   4.089  18.046  0.00  0.00    +0.000 A 
ATOM      2  C   UNL     1       2.193   2.834  17.788  0.00  0.00    +0.000 A 
ATOM      3  C   UNL     1       1.222   2.297  18.630  0.00  0.00    +0.000 A 
ATOM      4  C   UNL     1       0.785   3.030  19.722  0.00  0.00    +0.000 A 
ATOM      5  C   UNL     1       1.343   4.279  19.981  0.00  0.00    +0.000 A 
ATOM      6  F   UNL     1       0.840   4.966  21.017  0.00  0.00    +0.000 F 
ATOM      7  C   UNL     1       2.391   4.796  19.200  0.00  0.00    +0.000 A 
ENDROOT
BRANCH   1   8
ATOM      8  O   UNL     1       3.716   4.672  17.212  0.00  0.00    +0.000 OA
BRANCH   8   9
ATOM      9  C   UNL     1       4.646   3.746  16.623  0.00  0.00    +0.000 C 
BRANCH   9  10
ATOM     10  C   UNL     1       5.925   4.427  16.104  0.00  0.00    +0.000 C 
BRANCH  10  14
ATOM     11  C   UNL     1       7.079   4.487  12.469  0.00  0.00    +0.000 C 
ATOM     12  C   UNL     1       7.137   4.802  13.944  0.00  0.00    +0.000 C 
ATOM     13  O   UNL     1       8.005   5.521  14.420  0.00  0.00    +0.000 OA
ATOM     14  N   UNL     1       6.134   4.198  14.665  0.00  0.00    +0.000 N 
ATOM     15  H   UNL     1       5.362   3.795  14.152  0.00  0.00    +0.000 HD
ENDBRANCH  10  14
BRANCH  10  16
ATOM     16  C   UNL     1       5.923   5.943  16.426  0.00  0.00    +0.000 C 
BRANCH  16  17
ATOM     17  C   UNL     1       6.691   6.386  17.690  0.00  0.00    +0.000 C 
ATOM     18  C   UNL     1       7.594   5.286  18.246  0.00  0.00    +0.000 C 
ATOM     19  C   UNL     1       7.522   7.634  17.377  0.00  0.00    +0.000 C 
ENDBRANCH  16  17
ENDBRANCH  10  16
ENDBRANCH   9  10
ENDBRANCH   8   9
ENDBRANCH   1   8
BRANCH   7  20
ATOM     20  O   UNL     1       3.036   5.989  19.477  0.00  0.00    +0.000 OA
BRANCH  20  21
ATOM     21  C   UNL     1       2.400   7.189  19.223  0.00  0.00    +0.000 A 
ATOM     22  C   UNL     1       2.339   7.801  17.966  0.00  0.00    +0.000 A 
ATOM     23  C   UNL     1       1.774   9.073  17.826  0.00  0.00    +0.000 A 
ATOM     24  C   UNL     1       1.197   9.698  18.928  0.00  0.00    +0.000 A 
ATOM     25 CL   UNL     1       0.534  11.277  18.762  0.00  0.00    +0.000 Cl
ATOM     26  C   UNL     1       1.159   9.052  20.163  0.00  0.00    +0.000 A 
ATOM     27  C   UNL     1       1.762   7.797  20.309  0.00  0.00    +0.000 A 
ENDBRANCH  20  21
ENDBRANCH   7  20
TORSDOF 8
ENDMDL
MODEL 2
REMARK VINA RESULT:      -8.3      0.872      1.144
REMARK  Name = 
REMARK  11 active torsions:
REMARK  status: ('A' for Active; 'I' for Inactive)
REMARK    1  A    between atoms: C_1  and  C_2
REMARK    2  A    between atoms: N_4  and  C_5
REMARK    3  A    between atoms: C_5  and  C_6
REMARK    4  A    between atoms: C_5  and  C_23
REMARK    5  A    between atoms: C_6  and  O_7
REMARK    6  A    between atoms: O_7  and  C_8
REMARK    7  A    between atoms: C_14  and  O_15
REMARK    8  A    between atoms: O_15  and  C_16
REMARK    9  A    between atoms: C_23  and  C_24
REMARK   10  A    between atoms: C_24  and  C_25
REMARK   11  A    between atoms: C_24  and  C_26
REMARK                            x       y       z     vdW  Elec       q    Type
REMARK                         _______ _______ _______ _____ _____    ______ ____
ROOT
ATOM      1  C   UNL     1       3.079   4.595  17.777  0.00  0.00    +0.000 A 
ATOM      2  C   UNL     1       2.671   3.320  17.338  0.00  0.00    +0.000 A 
ATOM      3  C   UNL     1       1.736   2.569  18.047  0.00  0.00    +0.000 A 
ATOM      4  C   UNL     1       1.156   3.103  19.186  0.00  0.00    +0.000 A 
ATOM      5  C   UNL     1       1.536   4.369  19.624  0.00  0.00    +0.000 A 
ATOM      6  F   UNL     1       0.899   4.856  20.699  0.00  0.00    +0.000 F 
ATOM      7  C   UNL     1       2.547   5.102  18.978  0.00  0.00    +0.000 A 
ENDROOT
BRANCH   1   8
ATOM      8  O   UNL     1       3.973   5.386  17.079  0.00  0.00    +0.000 OA
BRANCH   8   9
ATOM      9  C   UNL     1       4.893   4.654  16.249  0.00  0.00    +0.000 C 
BRANCH   9  10
ATOM     10  C   UNL     1       6.302   5.271  16.224  0.00  0.00    +0.000 C 
BRANCH  10  14
ATOM     11  C   UNL     1       7.402   5.013  12.581  0.00  0.00    +0.000 C 
ATOM     12  C   UNL     1       6.766   4.552  13.870  0.00  0.00    +0.000 C 
ATOM     13  O   UNL     1       6.292   3.431  13.994  0.00  0.00    +0.000 OA
ATOM     14  N   UNL     1       6.779   5.514  14.853  0.00  0.00    +0.000 N 
ATOM     15  H   UNL     1       7.369   6.322  14.713  0.00  0.00    +0.000 HD
ENDBRANCH  10  14
BRANCH  10  16
ATOM     16  C   UNL     1       6.359   6.570  17.066  0.00  0.00    +0.000 C 
BRANCH  16  17
ATOM     17  C   UNL     1       7.731   6.954  17.662  0.00  0.00    +0.000 C 
ATOM     18  C   UNL     1       7.892   8.462  17.846  0.00  0.00    +0.000 C 
ATOM     19  C   UNL     1       7.928   6.241  19.004  0.00  0.00    +0.000 C 
ENDBRANCH  16  17
ENDBRANCH  10  16
ENDBRANCH   9  10
ENDBRANCH   8   9
ENDBRANCH   1   8
BRANCH   7  20
ATOM     20  O   UNL     1       3.018   6.320  19.434  0.00  0.00    +0.000 OA
BRANCH  20  21
ATOM     21  C   UNL     1       2.269   7.464  19.238  0.00  0.00    +0.000 A 
ATOM     22  C   UNL     1       2.053   8.065  17.992  0.00  0.00    +0.000 A 
ATOM     23  C   UNL     1       1.378   9.286  17.904  0.00  0.00    +0.000 A 
ATOM     24  C   UNL     1       0.848   9.867  19.053  0.00  0.00    +0.000 A 
ATOM     25 CL   UNL     1       0.048  11.387  18.949  0.00  0.00    +0.000 Cl
ATOM     26  C   UNL     1       0.967   9.225  20.285  0.00  0.00    +0.000 A 
ATOM     27  C   UNL     1       1.678   8.023  20.376  0.00  0.00    +0.000 A 
ENDBRANCH  20  21
ENDBRANCH   7  20
TORSDOF 8
ENDMDL
MODEL 3
REMARK VINA RESULT:      -8.3      1.017      2.582
REMARK  Name = 
REMARK  11 active torsions:
REMARK  status: ('A' for Active; 'I' for Inactive)
REMARK    1  A    between atoms: C_1  and  C_2
REMARK    2  A    between atoms: N_4  and  C_5
REMARK    3  A    between atoms: C_5  and  C_6
REMARK    4  A    between atoms: C_5  and  C_23
REMARK    5  A    between atoms: C_6  and  O_7
REMARK    6  A    between atoms: O_7  and  C_8
REMARK    7  A    between atoms: C_14  and  O_15
REMARK    8  A    between atoms: O_15  and  C_16
REMARK    9  A    between atoms: C_23  and  C_24
REMARK   10  A    between atoms: C_24  and  C_25
REMARK   11  A    between atoms: C_24  and  C_26
REMARK                            x       y       z     vdW  Elec       q    Type
REMARK                         _______ _______ _______ _____ _____    ______ ____
ROOT
ATOM      1  C   UNL     1       2.899   4.433  17.909  0.00  0.00    +0.000 A 
ATOM      2  C   UNL     1       2.418   3.170  17.511  0.00  0.00    +0.000 A 
ATOM      3  C   UNL     1       1.515   2.455  18.295  0.00  0.00    +0.000 A 
ATOM      4  C   UNL     1       1.040   3.014  19.471  0.00  0.00    +0.000 A 
ATOM      5  C   UNL     1       1.493   4.269  19.868  0.00  0.00    +0.000 A 
ATOM      6  F   UNL     1       0.956   4.784  20.984  0.00  0.00    +0.000 F 
ATOM      7  C   UNL     1       2.477   4.963  19.143  0.00  0.00    +0.000 A 
ENDROOT
BRANCH   1   8
ATOM      8  O   UNL     1       3.764   5.189  17.139  0.00  0.00    +0.000 OA
BRANCH   8   9
ATOM      9  C   UNL     1       4.775   4.426  16.456  0.00  0.00    +0.000 C 
BRANCH   9  10
ATOM     10  C   UNL     1       5.540   5.247  15.403  0.00  0.00    +0.000 C 
BRANCH  10  14
ATOM     11  C   UNL     1       7.675   7.576  17.540  0.00  0.00    +0.000 C 
ATOM     12  C   UNL     1       7.149   6.253  17.038  0.00  0.00    +0.000 C 
ATOM     13  O   UNL     1       7.503   5.188  17.524  0.00  0.00    +0.000 OA
ATOM     14  N   UNL     1       6.257   6.386  15.998  0.00  0.00    +0.000 N 
ATOM     15  H   UNL     1       5.886   7.306  15.812  0.00  0.00    +0.000 HD
ENDBRANCH  10  14
BRANCH  10  16
ATOM     16  C   UNL     1       6.507   4.351  14.589  0.00  0.00    +0.000 C 
BRANCH  16  17
ATOM     17  C   UNL     1       6.666   4.682  13.089  0.00  0.00    +0.000 C 
ATOM     18  C   UNL     1       8.011   5.333  12.770  0.00  0.00    +0.000 C 
ATOM     19  C   UNL     1       6.494   3.406  12.258  0.00  0.00    +0.000 C 
ENDBRANCH  16  17
ENDBRANCH  10  16
ENDBRANCH   9  10
ENDBRANCH   8   9
ENDBRANCH   1   8
BRANCH   7  20
ATOM     20  O   UNL     1       3.022   6.168  19.551  0.00  0.00    +0.000 OA
BRANCH  20  21
ATOM     21  C   UNL     1       2.315   7.340  19.366  0.00  0.00    +0.000 A 
ATOM     22  C   UNL     1       2.177   7.996  18.137  0.00  0.00    +0.000 A 
ATOM     23  C   UNL     1       1.541   9.239  18.067  0.00  0.00    +0.000 A 
ATOM     24  C   UNL     1       0.971   9.790  19.212  0.00  0.00    +0.000 A 
ATOM     25 CL   UNL     1       0.220  11.336  19.131  0.00  0.00    +0.000 Cl
ATOM     26  C   UNL     1       1.011   9.096  20.420  0.00  0.00    +0.000 A 
ATOM     27  C   UNL     1       1.684   7.871  20.496  0.00  0.00    +0.000 A 
ENDBRANCH  20  21
ENDBRANCH   7  20
TORSDOF 8
ENDMDL
MODEL 4
REMARK VINA RESULT:      -8.2      1.145      2.797
REMARK  Name = 
REMARK  11 active torsions:
REMARK  status: ('A' for Active; 'I' for Inactive)
REMARK    1  A    between atoms: C_1  and  C_2
REMARK    2  A    between atoms: N_4  and  C_5
REMARK    3  A    between atoms: C_5  and  C_6
REMARK    4  A    between atoms: C_5  and  C_23
REMARK    5  A    between atoms: C_6  and  O_7
REMARK    6  A    between atoms: O_7  and  C_8
REMARK    7  A    between atoms: C_14  and  O_15
REMARK    8  A    between atoms: O_15  and  C_16
REMARK    9  A    between atoms: C_23  and  C_24
REMARK   10  A    between atoms: C_24  and  C_25
REMARK   11  A    between atoms: C_24  and  C_26
REMARK                            x       y       z     vdW  Elec       q    Type
REMARK                         _______ _______ _______ _____ _____    ______ ____
ROOT
ATOM      1  C   UNL     1       2.695   4.185  17.928  0.00  0.00    +0.000 A 
ATOM      2  C   UNL     1       2.091   2.936  17.682  0.00  0.00    +0.000 A 
ATOM      3  C   UNL     1       1.203   2.366  18.590  0.00  0.00    +0.000 A 
ATOM      4  C   UNL     1       0.865   3.059  19.742  0.00  0.00    +0.000 A 
ATOM      5  C   UNL     1       1.441   4.302  19.990  0.00  0.00    +0.000 A 
ATOM      6  F   UNL     1       1.034   4.951  21.091  0.00  0.00    +0.000 F 
ATOM      7  C   UNL     1       2.413   4.851  19.136  0.00  0.00    +0.000 A 
ENDROOT
BRANCH   1   8
ATOM      8  O   UNL     1       3.550   4.801  17.031  0.00  0.00    +0.000 OA
BRANCH   8   9
ATOM      9  C   UNL     1       4.799   4.115  16.832  0.00  0.00    +0.000 C 
BRANCH   9  10
ATOM     10  C   UNL     1       5.758   4.870  15.895  0.00  0.00    +0.000 C 
BRANCH  10  14
ATOM     11  C   UNL     1       7.879   7.368  17.847  0.00  0.00    +0.000 C 
ATOM     12  C   UNL     1       6.618   6.797  17.244  0.00  0.00    +0.000 C 
ATOM     13  O   UNL     1       5.545   7.380  17.312  0.00  0.00    +0.000 OA
ATOM     14  N   UNL     1       6.814   5.580  16.633  0.00  0.00    +0.000 N 
ATOM     15  H   UNL     1       7.766   5.288  16.460  0.00  0.00    +0.000 HD
ENDBRANCH  10  14
BRANCH  10  16
ATOM     16  C   UNL     1       6.370   3.918  14.836  0.00  0.00    +0.000 C 
BRANCH  16  17
ATOM     17  C   UNL     1       6.437   4.443  13.385  0.00  0.00    +0.000 C 
ATOM     18  C   UNL     1       7.780   5.093  13.056  0.00  0.00    +0.000 C 
ATOM     19  C   UNL     1       6.159   3.296  12.408  0.00  0.00    +0.000 C 
ENDBRANCH  16  17
ENDBRANCH  10  16
ENDBRANCH   9  10
ENDBRANCH   8   9
ENDBRANCH   1   8
BRANCH   7  20
ATOM     20  O   UNL     1       3.077   6.038  19.393  0.00  0.00    +0.000 OA
BRANCH  20  21
ATOM     21  C   UNL     1       2.392   7.236  19.328  0.00  0.00    +0.000 A 
ATOM     22  C   UNL     1       1.801   7.870  20.428  0.00  0.00    +0.000 A 
ATOM     23  C   UNL     1       1.029   9.021  20.248  0.00  0.00    +0.000 A 
ATOM     24  C   UNL     1       0.912   9.585  18.980  0.00  0.00    +0.000 A 
ATOM     25 CL   UNL     1      -0.068  10.981  18.754  0.00  0.00    +0.000 Cl
ATOM     26  C   UNL     1       1.582   9.020  17.895  0.00  0.00    +0.000 A 
ATOM     27  C   UNL     1       2.321   7.845  18.071  0.00  0.00    +0.000 A 
ENDBRANCH  20  21
ENDBRANCH   7  20
TORSDOF 8
ENDMDL
MODEL 5
REMARK VINA RESULT:      -8.1      0.849      1.286
REMARK  Name = 
REMARK  11 active torsions:
REMARK  status: ('A' for Active; 'I' for Inactive)
REMARK    1  A    between atoms: C_1  and  C_2
REMARK    2  A    between atoms: N_4  and  C_5
REMARK    3  A    between atoms: C_5  and  C_6
REMARK    4  A    between atoms: C_5  and  C_23
REMARK    5  A    between atoms: C_6  and  O_7
REMARK    6  A    between atoms: O_7  and  C_8
REMARK    7  A    between atoms: C_14  and  O_15
REMARK    8  A    between atoms: O_15  and  C_16
REMARK    9  A    between atoms: C_23  and  C_24
REMARK   10  A    between atoms: C_24  and  C_25
REMARK   11  A    between atoms: C_24  and  C_26
REMARK                            x       y       z     vdW  Elec       q    Type
REMARK                         _______ _______ _______ _____ _____    ______ ____
ROOT
ATOM      1  C   UNL     1       3.551   4.104  18.532  0.00  0.00    +0.000 A 
ATOM      2  C   UNL     1       3.265   2.913  17.836  0.00  0.00    +0.000 A 
ATOM      3  C   UNL     1       2.059   2.238  18.013  0.00  0.00    +0.000 A 
ATOM      4  C   UNL     1       1.097   2.770  18.857  0.00  0.00    +0.000 A 
ATOM      5  C   UNL     1       1.359   3.956  19.538  0.00  0.00    +0.000 A 
ATOM      6  F   UNL     1       0.370   4.453  20.295  0.00  0.00    +0.000 F 
ATOM      7  C   UNL     1       2.605   4.600  19.449  0.00  0.00    +0.000 A 
ENDROOT
BRANCH   1   8
ATOM      8  O   UNL     1       4.719   4.823  18.351  0.00  0.00    +0.000 OA
BRANCH   8   9
ATOM      9  C   UNL     1       5.842   4.034  17.918  0.00  0.00    +0.000 C 
BRANCH   9  10
ATOM     10  C   UNL     1       6.650   4.704  16.792  0.00  0.00    +0.000 C 
BRANCH  10  14
ATOM     11  C   UNL     1       6.356   3.923  13.071  0.00  0.00    +0.000 C 
ATOM     12  C   UNL     1       6.929   4.572  14.307  0.00  0.00    +0.000 C 
ATOM     13  O   UNL     1       7.840   5.387  14.248  0.00  0.00    +0.000 OA
ATOM     14  N   UNL     1       6.328   4.148  15.469  0.00  0.00    +0.000 N 
ATOM     15  H   UNL     1       5.461   3.633  15.389  0.00  0.00    +0.000 HD
ENDBRANCH  10  14
BRANCH  10  16
ATOM     16  C   UNL     1       6.458   6.242  16.805  0.00  0.00    +0.000 C 
BRANCH  16  17
ATOM     17  C   UNL     1       7.065   7.009  18.001  0.00  0.00    +0.000 C 
ATOM     18  C   UNL     1       8.005   6.143  18.838  0.00  0.00    +0.000 C 
ATOM     19  C   UNL     1       7.810   8.247  17.494  0.00  0.00    +0.000 C 
ENDBRANCH  16  17
ENDBRANCH  10  16
ENDBRANCH   9  10
ENDBRANCH   8   9
ENDBRANCH   1   8
BRANCH   7  20
ATOM     20  O   UNL     1       2.939   5.727  20.179  0.00  0.00    +0.000 OA
BRANCH  20  21
ATOM     21  C   UNL     1       2.352   6.941  19.877  0.00  0.00    +0.000 A 
ATOM     22  C   UNL     1       1.630   7.720  20.789  0.00  0.00    +0.000 A 
ATOM     23  C   UNL     1       0.973   8.878  20.363  0.00  0.00    +0.000 A 
ATOM     24  C   UNL     1       1.103   9.302  19.044  0.00  0.00    +0.000 A 
ATOM     25 CL   UNL     1       0.265  10.707  18.512  0.00  0.00    +0.000 Cl
ATOM     26  C   UNL     1       1.905   8.589  18.152  0.00  0.00    +0.000 A 
ATOM     27  C   UNL     1       2.528   7.409  18.571  0.00  0.00    +0.000 A 
ENDBRANCH  20  21
ENDBRANCH   7  20
TORSDOF 8
ENDMDL
MODEL 6
REMARK VINA RESULT:      -8.1      1.832      2.912
REMARK  Name = 
REMARK  11 active torsions:
REMARK  status: ('A' for Active; 'I' for Inactive)
REMARK    1  A    between atoms: C_1  and  C_2
REMARK    2  A    between atoms: N_4  and  C_5
REMARK    3  A    between atoms: C_5  and  C_6
REMARK    4  A    between atoms: C_5  and  C_23
REMARK    5  A    between atoms: C_6  and  O_7
REMARK    6  A    between atoms: O_7  and  C_8
REMARK    7  A    between atoms: C_14  and  O_15
REMARK    8  A    between atoms: O_15  and  C_16
REMARK    9  A    between atoms: C_23  and  C_24
REMARK   10  A    between atoms: C_24  and  C_25
REMARK   11  A    between atoms: C_24  and  C_26
REMARK                            x       y       z     vdW  Elec       q    Type
REMARK                         _______ _______ _______ _____ _____    ______ ____
ROOT
ATOM      1  C   UNL     1       3.876   4.257  19.182  0.00  0.00    +0.000 A 
ATOM      2  C   UNL     1       3.568   2.949  19.606  0.00  0.00    +0.000 A 
ATOM      3  C   UNL     1       2.373   2.329  19.247  0.00  0.00    +0.000 A 
ATOM      4  C   UNL     1       1.485   2.992  18.415  0.00  0.00    +0.000 A 
ATOM      5  C   UNL     1       1.783   4.278  17.973  0.00  0.00    +0.000 A 
ATOM      6  F   UNL     1       0.914   4.846  17.125  0.00  0.00    +0.000 F 
ATOM      7  C   UNL     1       2.936   4.958  18.403  0.00  0.00    +0.000 A 
ENDROOT
BRANCH   1   8
ATOM      8  O   UNL     1       5.069   4.888  19.485  0.00  0.00    +0.000 OA
BRANCH   8   9
ATOM      9  C   UNL     1       6.197   4.429  18.718  0.00  0.00    +0.000 C 
BRANCH   9  10
ATOM     10  C   UNL     1       6.657   5.445  17.658  0.00  0.00    +0.000 C 
BRANCH  10  14
ATOM     11  C   UNL     1       8.640   8.613  18.421  0.00  0.00    +0.000 C 
ATOM     12  C   UNL     1       7.588   7.769  17.742  0.00  0.00    +0.000 C 
ATOM     13  O   UNL     1       6.868   8.216  16.860  0.00  0.00    +0.000 OA
ATOM     14  N   UNL     1       7.536   6.481  18.223  0.00  0.00    +0.000 N 
ATOM     15  H   UNL     1       8.301   6.163  18.802  0.00  0.00    +0.000 HD
ENDBRANCH  10  14
BRANCH  10  16
ATOM     16  C   UNL     1       7.341   4.735  16.462  0.00  0.00    +0.000 C 
BRANCH  16  17
ATOM     17  C   UNL     1       6.492   4.548  15.186  0.00  0.00    +0.000 C 
ATOM     18  C   UNL     1       5.233   5.414  15.185  0.00  0.00    +0.000 C 
ATOM     19  C   UNL     1       7.341   4.861  13.950  0.00  0.00    +0.000 C 
ENDBRANCH  16  17
ENDBRANCH  10  16
ENDBRANCH   9  10
ENDBRANCH   8   9
ENDBRANCH   1   8
BRANCH   7  20
ATOM     20  O   UNL     1       3.224   6.268  18.063  0.00  0.00    +0.000 OA
BRANCH  20  21
ATOM     21  C   UNL     1       2.456   7.295  18.576  0.00  0.00    +0.000 A 
ATOM     22  C   UNL     1       1.953   8.361  17.821  0.00  0.00    +0.000 A 
ATOM     23  C   UNL     1       1.284   9.417  18.448  0.00  0.00    +0.000 A 
ATOM     24  C   UNL     1       1.048   9.369  19.819  0.00  0.00    +0.000 A 
ATOM     25 CL   UNL     1       0.256  10.686  20.594  0.00  0.00    +0.000 Cl
ATOM     26  C   UNL     1       1.454   8.263  20.564  0.00  0.00    +0.000 A 
ATOM     27  C   UNL     1       2.159   7.227  19.941  0.00  0.00    +0.000 A 
ENDBRANCH  20  21
ENDBRANCH   7  20
TORSDOF 8
ENDMDL
MODEL 7
REMARK VINA RESULT:      -8.1      1.834      3.104
REMARK  Name = 
REMARK  11 active torsions:
REMARK  status: ('A' for Active; 'I' for Inactive)
REMARK    1  A    between atoms: C_1  and  C_2
REMARK    2  A    between atoms: N_4  and  C_5
REMARK    3  A    between atoms: C_5  and  C_6
REMARK    4  A    between atoms: C_5  and  C_23
REMARK    5  A    between atoms: C_6  and  O_7
REMARK    6  A    between atoms: O_7  and  C_8
REMARK    7  A    between atoms: C_14  and  O_15
REMARK    8  A    between atoms: O_15  and  C_16
REMARK    9  A    between atoms: C_23  and  C_24
REMARK   10  A    between atoms: C_24  and  C_25
REMARK   11  A    between atoms: C_24  and  C_26
REMARK                            x       y       z     vdW  Elec       q    Type
REMARK                         _______ _______ _______ _____ _____    ______ ____
ROOT
ATOM      1  C   UNL     1       3.987   4.736  19.175  0.00  0.00    +0.000 A 
ATOM      2  C   UNL     1       3.875   3.409  19.636  0.00  0.00    +0.000 A 
ATOM      3  C   UNL     1       2.778   2.615  19.309  0.00  0.00    +0.000 A 
ATOM      4  C   UNL     1       1.794   3.121  18.474  0.00  0.00    +0.000 A 
ATOM      5  C   UNL     1       1.900   4.425  17.998  0.00  0.00    +0.000 A 
ATOM      6  F   UNL     1       0.948   4.840  17.148  0.00  0.00    +0.000 F 
ATOM      7  C   UNL     1       2.947   5.274  18.393  0.00  0.00    +0.000 A 
ENDROOT
BRANCH   1   8
ATOM      8  O   UNL     1       5.080   5.540  19.445  0.00  0.00    +0.000 OA
BRANCH   8   9
ATOM      9  C   UNL     1       6.283   5.161  18.752  0.00  0.00    +0.000 C 
BRANCH   9  10
ATOM     10  C   UNL     1       6.322   5.660  17.297  0.00  0.00    +0.000 C 
BRANCH  10  14
ATOM     11  C   UNL     1       8.018   9.042  17.776  0.00  0.00    +0.000 C 
ATOM     12  C   UNL     1       7.784   7.568  18.000  0.00  0.00    +0.000 C 
ATOM     13  O   UNL     1       8.429   6.926  18.818  0.00  0.00    +0.000 OA
ATOM     14  N   UNL     1       6.795   7.050  17.197  0.00  0.00    +0.000 N 
ATOM     15  H   UNL     1       6.195   7.701  16.709  0.00  0.00    +0.000 HD
ENDBRANCH  10  14
BRANCH  10  16
ATOM     16  C   UNL     1       7.176   4.722  16.407  0.00  0.00    +0.000 C 
BRANCH  16  17
ATOM     17  C   UNL     1       6.446   4.004  15.251  0.00  0.00    +0.000 C 
ATOM     18  C   UNL     1       4.927   4.026  15.411  0.00  0.00    +0.000 C 
ATOM     19  C   UNL     1       6.838   4.646  13.916  0.00  0.00    +0.000 C 
ENDBRANCH  16  17
ENDBRANCH  10  16
ENDBRANCH   9  10
ENDBRANCH   8   9
ENDBRANCH   1   8
BRANCH   7  20
ATOM     20  O   UNL     1       3.039   6.603  18.017  0.00  0.00    +0.000 OA
BRANCH  20  21
ATOM     21  C   UNL     1       2.314   7.561  18.698  0.00  0.00    +0.000 A 
ATOM     22  C   UNL     1       2.021   7.509  20.066  0.00  0.00    +0.000 A 
ATOM     23  C   UNL     1       1.181   8.464  20.645  0.00  0.00    +0.000 A 
ATOM     24  C   UNL     1       0.698   9.519  19.875  0.00  0.00    +0.000 A 
ATOM     25 CL   UNL     1      -0.364  10.674  20.581  0.00  0.00    +0.000 Cl
ATOM     26  C   UNL     1       1.068   9.638  18.536  0.00  0.00    +0.000 A 
ATOM     27  C   UNL     1       1.876   8.658  17.949  0.00  0.00    +0.000 A 
ENDBRANCH  20  21
ENDBRANCH   7  20
TORSDOF 8
ENDMDL
MODEL 8
REMARK VINA RESULT:      -8.1      0.892      1.453
REMARK  Name = 
REMARK  11 active torsions:
REMARK  status: ('A' for Active; 'I' for Inactive)
REMARK    1  A    between atoms: C_1  and  C_2
REMARK    2  A    between atoms: N_4  and  C_5
REMARK    3  A    between atoms: C_5  and  C_6
REMARK    4  A    between atoms: C_5  and  C_23
REMARK    5  A    between atoms: C_6  and  O_7
REMARK    6  A    between atoms: O_7  and  C_8
REMARK    7  A    between atoms: C_14  and  O_15
REMARK    8  A    between atoms: O_15  and  C_16
REMARK    9  A    between atoms: C_23  and  C_24
REMARK   10  A    between atoms: C_24  and  C_25
REMARK   11  A    between atoms: C_24  and  C_26
REMARK                            x       y       z     vdW  Elec       q    Type
REMARK                         _______ _______ _______ _____ _____    ______ ____
ROOT
ATOM      1  C   UNL     1       3.167   4.490  17.848  0.00  0.00    +0.000 A 
ATOM      2  C   UNL     1       2.712   3.234  17.401  0.00  0.00    +0.000 A 
ATOM      3  C   UNL     1       1.717   2.535  18.080  0.00  0.00    +0.000 A 
ATOM      4  C   UNL     1       1.124   3.105  19.195  0.00  0.00    +0.000 A 
ATOM      5  C   UNL     1       1.550   4.353  19.640  0.00  0.00    +0.000 A 
ATOM      6  F   UNL     1       0.901   4.880  20.688  0.00  0.00    +0.000 F 
ATOM      7  C   UNL     1       2.619   5.031  19.027  0.00  0.00    +0.000 A 
ENDROOT
BRANCH   1   8
ATOM      8  O   UNL     1       4.124   5.231  17.178  0.00  0.00    +0.000 OA
BRANCH   8   9
ATOM      9  C   UNL     1       4.728   4.552  16.062  0.00  0.00    +0.000 C 
BRANCH   9  10
ATOM     10  C   UNL     1       6.242   4.341  16.234  0.00  0.00    +0.000 C 
BRANCH  10  14
ATOM     11  C   UNL     1       8.011   5.471  13.050  0.00  0.00    +0.000 C 
ATOM     12  C   UNL     1       7.058   4.652  13.887  0.00  0.00    +0.000 C 
ATOM     13  O   UNL     1       6.395   3.741  13.410  0.00  0.00    +0.000 OA
ATOM     14  N   UNL     1       7.023   5.045  15.205  0.00  0.00    +0.000 N 
ATOM     15  H   UNL     1       7.751   5.667  15.530  0.00  0.00    +0.000 HD
ENDBRANCH  10  14
BRANCH  10  16
ATOM     16  C   UNL     1       6.706   4.752  17.655  0.00  0.00    +0.000 C 
BRANCH  16  17
ATOM     17  C   UNL     1       7.557   6.036  17.765  0.00  0.00    +0.000 C 
ATOM     18  C   UNL     1       6.767   7.296  17.418  0.00  0.00    +0.000 C 
ATOM     19  C   UNL     1       8.132   6.153  19.180  0.00  0.00    +0.000 C 
ENDBRANCH  16  17
ENDBRANCH  10  16
ENDBRANCH   9  10
ENDBRANCH   8   9
ENDBRANCH   1   8
BRANCH   7  20
ATOM     20  O   UNL     1       3.135   6.228  19.492  0.00  0.00    +0.000 OA
BRANCH  20  21
ATOM     21  C   UNL     1       2.390   7.386  19.381  0.00  0.00    +0.000 A 
ATOM     22  C   UNL     1       1.706   7.993  20.441  0.00  0.00    +0.000 A 
ATOM     23  C   UNL     1       0.883   9.099  20.209  0.00  0.00    +0.000 A 
ATOM     24  C   UNL     1       0.806   9.649  18.933  0.00  0.00    +0.000 A 
ATOM     25 CL   UNL     1      -0.235  10.987  18.642  0.00  0.00    +0.000 Cl
ATOM     26  C   UNL     1       1.564   9.115  17.891  0.00  0.00    +0.000 A 
ATOM     27  C   UNL     1       2.356   7.984  18.116  0.00  0.00    +0.000 A 
ENDBRANCH  20  21
ENDBRANCH   7  20
TORSDOF 8
ENDMDL
MODEL 9
REMARK VINA RESULT:      -8.0      1.262      2.477
REMARK  Name = 
REMARK  11 active torsions:
REMARK  status: ('A' for Active; 'I' for Inactive)
REMARK    1  A    between atoms: C_1  and  C_2
REMARK    2  A    between atoms: N_4  and  C_5
REMARK    3  A    between atoms: C_5  and  C_6
REMARK    4  A    between atoms: C_5  and  C_23
REMARK    5  A    between atoms: C_6  and  O_7
REMARK    6  A    between atoms: O_7  and  C_8
REMARK    7  A    between atoms: C_14  and  O_15
REMARK    8  A    between atoms: O_15  and  C_16
REMARK    9  A    between atoms: C_23  and  C_24
REMARK   10  A    between atoms: C_24  and  C_25
REMARK   11  A    between atoms: C_24  and  C_26
REMARK                            x       y       z     vdW  Elec       q    Type
REMARK                         _______ _______ _______ _____ _____    ______ ____
ROOT
ATOM      1  C   UNL     1       3.461   3.599  18.735  0.00  0.00    +0.000 A 
ATOM      2  C   UNL     1       3.022   2.329  18.312  0.00  0.00    +0.000 A 
ATOM      3  C   UNL     1       1.751   1.855  18.627  0.00  0.00    +0.000 A 
ATOM      4  C   UNL     1       0.876   2.667  19.333  0.00  0.00    +0.000 A 
ATOM      5  C   UNL     1       1.289   3.932  19.742  0.00  0.00    +0.000 A 
ATOM      6  F   UNL     1       0.382   4.693  20.371  0.00  0.00    +0.000 F 
ATOM      7  C   UNL     1       2.600   4.390  19.519  0.00  0.00    +0.000 A 
ENDROOT
BRANCH   1   8
ATOM      8  O   UNL     1       4.700   4.119  18.407  0.00  0.00    +0.000 OA
BRANCH   8   9
ATOM      9  C   UNL     1       4.954   4.205  16.993  0.00  0.00    +0.000 C 
BRANCH   9  10
ATOM     10  C   UNL     1       5.047   5.655  16.485  0.00  0.00    +0.000 C 
BRANCH  10  14
ATOM     11  C   UNL     1       8.006   6.993  18.485  0.00  0.00    +0.000 C 
ATOM     12  C   UNL     1       7.265   6.034  17.584  0.00  0.00    +0.000 C 
ATOM     13  O   UNL     1       7.773   4.995  17.187  0.00  0.00    +0.000 OA
ATOM     14  N   UNL     1       5.995   6.460  17.271  0.00  0.00    +0.000 N 
ATOM     15  H   UNL     1       5.608   7.223  17.809  0.00  0.00    +0.000 HD
ENDBRANCH  10  14
BRANCH  10  16
ATOM     16  C   UNL     1       5.404   5.698  14.978  0.00  0.00    +0.000 C 
BRANCH  16  17
ATOM     17  C   UNL     1       6.131   4.465  14.399  0.00  0.00    +0.000 C 
ATOM     18  C   UNL     1       5.284   3.709  13.376  0.00  0.00    +0.000 C 
ATOM     19  C   UNL     1       7.454   4.898  13.762  0.00  0.00    +0.000 C 
ENDBRANCH  16  17
ENDBRANCH  10  16
ENDBRANCH   9  10
ENDBRANCH   8   9
ENDBRANCH   1   8
BRANCH   7  20
ATOM     20  O   UNL     1       3.078   5.600  19.990  0.00  0.00    +0.000 OA
BRANCH  20  21
ATOM     21  C   UNL     1       2.485   6.779  19.583  0.00  0.00    +0.000 A 
ATOM     22  C   UNL     1       2.496   7.258  18.268  0.00  0.00    +0.000 A 
ATOM     23  C   UNL     1       1.970   8.518  17.971  0.00  0.00    +0.000 A 
ATOM     24  C   UNL     1       1.360   9.267  18.973  0.00  0.00    +0.000 A 
ATOM     25 CL   UNL     1       0.745  10.833  18.614  0.00  0.00    +0.000 Cl
ATOM     26  C   UNL     1       1.250   8.754  20.265  0.00  0.00    +0.000 A 
ATOM     27  C   UNL     1       1.814   7.510  20.569  0.00  0.00    +0.000 A 
ENDBRANCH  20  21
ENDBRANCH   7  20
TORSDOF 8
ENDMDL
