MODEL 1
REMARK VINA RESULT:      -7.0      0.000      0.000
REMARK  Name = 
REMARK  5 active torsions:
REMARK  status: ('A' for Active; 'I' for Inactive)
REMARK    1  A    between atoms: C_1  and  C_2
REMARK    2  A    between atoms: C_2  and  N_3
REMARK    3  A    between atoms: C_2  and  C_12
REMARK    4  A    between atoms: C_4  and  C_6
REMARK    5  A    between atoms: C_6  and  N_7
REMARK                            x       y       z     vdW  Elec       q    Type
REMARK                         _______ _______ _______ _____ _____    ______ ____
ROOT
ATOM      1  N   UNL     1       4.859   3.312  16.802  0.00  0.00    +0.000 N 
ATOM      2  C   UNL     1       3.626   3.450  17.410  0.00  0.00    +0.000 C 
ATOM      3  O   UNL     1       2.977   4.494  17.376  0.00  0.00    +0.000 OA
ATOM      4  H   UNL     1       5.426   2.503  17.035  0.00  0.00    +0.000 HD
ENDROOT
BRANCH   1   6
ATOM      5  C   UNL     1       6.188   3.918  14.818  0.00  0.00    +0.000 C 
ATOM      6  C   UNL     1       5.469   4.416  16.077  0.00  0.00    +0.000 C 
BRANCH   6   7
ATOM      7  C   UNL     1       6.416   5.207  16.950  0.00  0.00    +0.000 A 
ATOM      8  C   UNL     1       6.642   6.578  16.781  0.00  0.00    +0.000 A 
ATOM      9  C   UNL     1       7.456   7.262  17.680  0.00  0.00    +0.000 A 
ATOM     10  C   UNL     1       8.031   6.551  18.718  0.00  0.00    +0.000 A 
ATOM     11  N   UNL     1       7.860   5.226  18.903  0.00  0.00    +0.000 NA
ATOM     12  C   UNL     1       7.062   4.587  18.017  0.00  0.00    +0.000 A 
ENDBRANCH   6   7
ENDBRANCH   1   6
BRANCH   2  13
ATOM     13  C   UNL     1       3.100   2.210  18.090  0.00  0.00    +0.000 C 
BRANCH  13  14
ATOM     14  N   UNL     1       2.570   2.512  19.402  0.00  0.00    +0.000 N 
ATOM     15  C   UNL     1       1.254   2.631  19.750  0.00  0.00    +0.000 A 
ATOM     16  C   UNL     1       1.235   2.833  21.109  0.00  0.00    +0.000 A 
ATOM     17  C   UNL     1       2.589   2.805  21.491  0.00  0.00    +0.000 A 
ATOM     18  N   UNL     1       3.410   2.610  20.455  0.00  0.00    +0.000 NA
ENDBRANCH  13  14
ENDBRANCH   2  13
TORSDOF 4
ENDMDL
MODEL 2
REMARK VINA RESULT:      -6.7      1.999      2.963
REMARK  Name = 
REMARK  5 active torsions:
REMARK  status: ('A' for Active; 'I' for Inactive)
REMARK    1  A    between atoms: C_1  and  C_2
REMARK    2  A    between atoms: C_2  and  N_3
REMARK    3  A    between atoms: C_2  and  C_12
REMARK    4  A    between atoms: C_4  and  C_6
REMARK    5  A    between atoms: C_6  and  N_7
REMARK                            x       y       z     vdW  Elec       q    Type
REMARK                         _______ _______ _______ _____ _____    ______ ____
ROOT
ATOM      1  N   UNL     1       4.259   4.300  18.184  0.00  0.00    +0.000 N 
ATOM      2  C   UNL     1       4.895   3.680  19.242  0.00  0.00    +0.000 C 
ATOM      3  O   UNL     1       5.952   4.089  19.719  0.00  0.00    +0.000 OA
ATOM      4  H   UNL     1       3.509   3.804  17.713  0.00  0.00    +0.000 HD
ENDROOT
BRANCH   1   6
ATOM      5  C   UNL     1       3.719   6.515  17.250  0.00  0.00    +0.000 C 
ATOM      6  C   UNL     1       4.817   5.491  17.563  0.00  0.00    +0.000 C 
BRANCH   6   7
ATOM      7  C   UNL     1       5.603   5.160  16.316  0.00  0.00    +0.000 A 
ATOM      8  C   UNL     1       5.087   4.379  15.275  0.00  0.00    +0.000 A 
ATOM      9  C   UNL     1       5.833   4.191  14.114  0.00  0.00    +0.000 A 
ATOM     10  C   UNL     1       7.082   4.782  14.033  0.00  0.00    +0.000 A 
ATOM     11  N   UNL     1       7.627   5.520  15.021  0.00  0.00    +0.000 NA
ATOM     12  C   UNL     1       6.880   5.689  16.136  0.00  0.00    +0.000 A 
ENDBRANCH   6   7
ENDBRANCH   1   6
BRANCH   2  13
ATOM     13  C   UNL     1       4.180   2.479  19.810  0.00  0.00    +0.000 C 
BRANCH  13  14
ATOM     14  N   UNL     1       2.744   2.642  19.750  0.00  0.00    +0.000 N 
ATOM     15  C   UNL     1       1.950   3.286  20.656  0.00  0.00    +0.000 A 
ATOM     16  C   UNL     1       0.678   3.260  20.135  0.00  0.00    +0.000 A 
ATOM     17  C   UNL     1       0.811   2.590  18.905  0.00  0.00    +0.000 A 
ATOM     18  N   UNL     1       2.069   2.209  18.663  0.00  0.00    +0.000 NA
ENDBRANCH  13  14
ENDBRANCH   2  13
TORSDOF 4
ENDMDL
MODEL 3
REMARK VINA RESULT:      -6.7      1.432      1.502
REMARK  Name = 
REMARK  5 active torsions:
REMARK  status: ('A' for Active; 'I' for Inactive)
REMARK    1  A    between atoms: C_1  and  C_2
REMARK    2  A    between atoms: C_2  and  N_3
REMARK    3  A    between atoms: C_2  and  C_12
REMARK    4  A    between atoms: C_4  and  C_6
REMARK    5  A    between atoms: C_6  and  N_7
REMARK                            x       y       z     vdW  Elec       q    Type
REMARK                         _______ _______ _______ _____ _____    ______ ____
ROOT
ATOM      1  N   UNL     1       3.749   4.881  17.136  0.00  0.00    +0.000 N 
ATOM      2  C   UNL     1       2.637   5.309  17.835  0.00  0.00    +0.000 C 
ATOM      3  O   UNL     1       2.437   6.490  18.114  0.00  0.00    +0.000 OA
ATOM      4  H   UNL     1       3.954   3.886  17.116  0.00  0.00    +0.000 HD
ENDROOT
BRANCH   1   6
ATOM      5  C   UNL     1       5.232   5.487  15.265  0.00  0.00    +0.000 C 
ATOM      6  C   UNL     1       4.764   5.820  16.687  0.00  0.00    +0.000 C 
BRANCH   6   7
ATOM      7  C   UNL     1       5.940   5.873  17.633  0.00  0.00    +0.000 A 
ATOM      8  C   UNL     1       6.995   6.782  17.487  0.00  0.00    +0.000 A 
ATOM      9  C   UNL     1       8.000   6.837  18.449  0.00  0.00    +0.000 A 
ATOM     10  C   UNL     1       7.928   5.972  19.527  0.00  0.00    +0.000 A 
ATOM     11  N   UNL     1       6.944   5.064  19.693  0.00  0.00    +0.000 NA
ATOM     12  C   UNL     1       5.979   5.034  18.745  0.00  0.00    +0.000 A 
ENDBRANCH   6   7
ENDBRANCH   1   6
BRANCH   2  13
ATOM     13  C   UNL     1       1.650   4.229  18.202  0.00  0.00    +0.000 C 
BRANCH  13  14
ATOM     14  N   UNL     1       1.923   3.686  19.514  0.00  0.00    +0.000 N 
ATOM     15  C   UNL     1       1.069   3.641  20.580  0.00  0.00    +0.000 A 
ATOM     16  C   UNL     1       1.734   2.961  21.573  0.00  0.00    +0.000 A 
ATOM     17  C   UNL     1       2.977   2.626  21.004  0.00  0.00    +0.000 A 
ATOM     18  N   UNL     1       3.100   3.065  19.748  0.00  0.00    +0.000 NA
ENDBRANCH  13  14
ENDBRANCH   2  13
TORSDOF 4
ENDMDL
MODEL 4
REMARK VINA RESULT:      -6.7      1.948      5.967
REMARK  Name = 
REMARK  5 active torsions:
REMARK  status: ('A' for Active; 'I' for Inactive)
REMARK    1  A    between atoms: C_1  and  C_2
REMARK    2  A    between atoms: C_2  and  N_3
REMARK    3  A    between atoms: C_2  and  C_12
REMARK    4  A    between atoms: C_4  and  C_6
REMARK    5  A    between atoms: C_6  and  N_7
REMARK                            x       y       z     vdW  Elec       q    Type
REMARK                         _______ _______ _______ _____ _____    ______ ____
ROOT
ATOM      1  N   UNL     1       4.371   5.547  17.815  0.00  0.00    +0.000 N 
ATOM      2  C   UNL     1       4.899   4.571  16.992  0.00  0.00    +0.000 C 
ATOM      3  O   UNL     1       4.200   3.787  16.351  0.00  0.00    +0.000 OA
ATOM      4  H   UNL     1       4.993   6.021  18.463  0.00  0.00    +0.000 HD
ENDROOT
BRANCH   1   6
ATOM      5  C   UNL     1       2.571   7.152  18.319  0.00  0.00    +0.000 C 
ATOM      6  C   UNL     1       2.934   5.702  17.974  0.00  0.00    +0.000 C 
BRANCH   6   7
ATOM      7  C   UNL     1       2.377   4.756  19.011  0.00  0.00    +0.000 A 
ATOM      8  C   UNL     1       2.686   4.850  20.373  0.00  0.00    +0.000 A 
ATOM      9  C   UNL     1       2.063   4.002  21.286  0.00  0.00    +0.000 A 
ATOM     10  C   UNL     1       1.155   3.074  20.807  0.00  0.00    +0.000 A 
ATOM     11  N   UNL     1       0.847   2.933  19.501  0.00  0.00    +0.000 NA
ATOM     12  C   UNL     1       1.464   3.771  18.638  0.00  0.00    +0.000 A 
ENDBRANCH   6   7
ENDBRANCH   1   6
BRANCH   2  13
ATOM     13  C   UNL     1       6.404   4.554  16.894  0.00  0.00    +0.000 C 
BRANCH  13  14
ATOM     14  N   UNL     1       6.982   5.769  17.424  0.00  0.00    +0.000 N 
ATOM     15  C   UNL     1       7.718   5.900  18.568  0.00  0.00    +0.000 A 
ATOM     16  C   UNL     1       8.123   7.212  18.613  0.00  0.00    +0.000 A 
ATOM     17  C   UNL     1       7.592   7.789  17.444  0.00  0.00    +0.000 A 
ATOM     18  N   UNL     1       6.895   6.915  16.714  0.00  0.00    +0.000 NA
ENDBRANCH  13  14
ENDBRANCH   2  13
TORSDOF 4
ENDMDL
MODEL 5
REMARK VINA RESULT:      -6.7      1.990      5.858
REMARK  Name = 
REMARK  5 active torsions:
REMARK  status: ('A' for Active; 'I' for Inactive)
REMARK    1  A    between atoms: C_1  and  C_2
REMARK    2  A    between atoms: C_2  and  N_3
REMARK    3  A    between atoms: C_2  and  C_12
REMARK    4  A    between atoms: C_4  and  C_6
REMARK    5  A    between atoms: C_6  and  N_7
REMARK                            x       y       z     vdW  Elec       q    Type
REMARK                         _______ _______ _______ _____ _____    ______ ____
ROOT
ATOM      1  N   UNL     1       4.211   5.553  17.757  0.00  0.00    +0.000 N 
ATOM      2  C   UNL     1       4.654   4.484  17.002  0.00  0.00    +0.000 C 
ATOM      3  O   UNL     1       3.890   3.681  16.468  0.00  0.00    +0.000 OA
ATOM      4  H   UNL     1       4.884   6.052  18.330  0.00  0.00    +0.000 HD
ENDROOT
BRANCH   1   6
ATOM      5  C   UNL     1       2.523   7.258  18.314  0.00  0.00    +0.000 C 
ATOM      6  C   UNL     1       2.791   5.789  17.969  0.00  0.00    +0.000 C 
BRANCH   6   7
ATOM      7  C   UNL     1       2.222   4.882  19.034  0.00  0.00    +0.000 A 
ATOM      8  C   UNL     1       1.350   3.824  18.748  0.00  0.00    +0.000 A 
ATOM      9  C   UNL     1       0.938   2.970  19.768  0.00  0.00    +0.000 A 
ATOM     10  C   UNL     1       1.402   3.206  21.050  0.00  0.00    +0.000 A 
ATOM     11  N   UNL     1       2.223   4.226  21.374  0.00  0.00    +0.000 NA
ATOM     12  C   UNL     1       2.609   5.038  20.364  0.00  0.00    +0.000 A 
ENDBRANCH   6   7
ENDBRANCH   1   6
BRANCH   2  13
ATOM     13  C   UNL     1       6.150   4.388  16.836  0.00  0.00    +0.000 C 
BRANCH  13  14
ATOM     14  N   UNL     1       6.820   5.538  17.402  0.00  0.00    +0.000 N 
ATOM     15  C   UNL     1       7.600   5.566  18.524  0.00  0.00    +0.000 A 
ATOM     16  C   UNL     1       8.088   6.848  18.616  0.00  0.00    +0.000 A 
ATOM     17  C   UNL     1       7.556   7.513  17.497  0.00  0.00    +0.000 A 
ATOM     18  N   UNL     1       6.781   6.721  16.751  0.00  0.00    +0.000 NA
ENDBRANCH  13  14
ENDBRANCH   2  13
TORSDOF 4
ENDMDL
MODEL 6
REMARK VINA RESULT:      -6.6      1.981      2.402
REMARK  Name = 
REMARK  5 active torsions:
REMARK  status: ('A' for Active; 'I' for Inactive)
REMARK    1  A    between atoms: C_1  and  C_2
REMARK    2  A    between atoms: C_2  and  N_3
REMARK    3  A    between atoms: C_2  and  C_12
REMARK    4  A    between atoms: C_4  and  C_6
REMARK    5  A    between atoms: C_6  and  N_7
REMARK                            x       y       z     vdW  Elec       q    Type
REMARK                         _______ _______ _______ _____ _____    ______ ____
ROOT
ATOM      1  N   UNL     1       3.331   5.240  18.760  0.00  0.00    +0.000 N 
ATOM      2  C   UNL     1       2.617   6.292  19.301  0.00  0.00    +0.000 C 
ATOM      3  O   UNL     1       2.657   7.433  18.843  0.00  0.00    +0.000 OA
ATOM      4  H   UNL     1       3.413   4.383  19.299  0.00  0.00    +0.000 HD
ENDROOT
BRANCH   1   6
ATOM      5  C   UNL     1       4.185   4.185  16.704  0.00  0.00    +0.000 C 
ATOM      6  C   UNL     1       4.189   5.429  17.601  0.00  0.00    +0.000 C 
BRANCH   6   7
ATOM      7  C   UNL     1       5.600   5.793  17.998  0.00  0.00    +0.000 A 
ATOM      8  C   UNL     1       6.369   6.734  17.302  0.00  0.00    +0.000 A 
ATOM      9  C   UNL     1       7.628   7.089  17.779  0.00  0.00    +0.000 A 
ATOM     10  C   UNL     1       8.089   6.482  18.934  0.00  0.00    +0.000 A 
ATOM     11  N   UNL     1       7.392   5.553  19.620  0.00  0.00    +0.000 NA
ATOM     12  C   UNL     1       6.171   5.229  19.137  0.00  0.00    +0.000 A 
ENDBRANCH   6   7
ENDBRANCH   1   6
BRANCH   2  13
ATOM     13  C   UNL     1       1.740   5.939  20.477  0.00  0.00    +0.000 C 
BRANCH  13  14
ATOM     14  N   UNL     1       1.669   4.508  20.672  0.00  0.00    +0.000 N 
ATOM     15  C   UNL     1       2.180   3.793  21.719  0.00  0.00    +0.000 A 
ATOM     16  C   UNL     1       1.792   2.491  21.518  0.00  0.00    +0.000 A 
ATOM     17  C   UNL     1       1.038   2.523  20.330  0.00  0.00    +0.000 A 
ATOM     18  N   UNL     1       0.958   3.750  19.808  0.00  0.00    +0.000 NA
ENDBRANCH  13  14
ENDBRANCH   2  13
TORSDOF 4
ENDMDL
MODEL 7
REMARK VINA RESULT:      -6.5      1.790      5.706
REMARK  Name = 
REMARK  5 active torsions:
REMARK  status: ('A' for Active; 'I' for Inactive)
REMARK    1  A    between atoms: C_1  and  C_2
REMARK    2  A    between atoms: C_2  and  N_3
REMARK    3  A    between atoms: C_2  and  C_12
REMARK    4  A    between atoms: C_4  and  C_6
REMARK    5  A    between atoms: C_6  and  N_7
REMARK                            x       y       z     vdW  Elec       q    Type
REMARK                         _______ _______ _______ _____ _____    ______ ____
ROOT
ATOM      1  N   UNL     1       4.323   5.307  17.856  0.00  0.00    +0.000 N 
ATOM      2  C   UNL     1       4.715   4.442  16.853  0.00  0.00    +0.000 C 
ATOM      3  O   UNL     1       3.919   3.908  16.081  0.00  0.00    +0.000 OA
ATOM      4  H   UNL     1       4.997   5.550  18.576  0.00  0.00    +0.000 HD
ENDROOT
BRANCH   1   6
ATOM      5  C   UNL     1       2.756   7.110  18.460  0.00  0.00    +0.000 C 
ATOM      6  C   UNL     1       2.922   5.639  18.060  0.00  0.00    +0.000 C 
BRANCH   6   7
ATOM      7  C   UNL     1       2.273   4.735  19.082  0.00  0.00    +0.000 A 
ATOM      8  C   UNL     1       1.371   3.721  18.739  0.00  0.00    +0.000 A 
ATOM      9  C   UNL     1       0.883   2.865  19.724  0.00  0.00    +0.000 A 
ATOM     10  C   UNL     1       1.303   3.057  21.028  0.00  0.00    +0.000 A 
ATOM     11  N   UNL     1       2.150   4.036  21.406  0.00  0.00    +0.000 NA
ATOM     12  C   UNL     1       2.611   4.851  20.429  0.00  0.00    +0.000 A 
ENDBRANCH   6   7
ENDBRANCH   1   6
BRANCH   2  13
ATOM     13  C   UNL     1       6.203   4.222  16.735  0.00  0.00    +0.000 C 
BRANCH  13  14
ATOM     14  N   UNL     1       6.942   5.178  17.530  0.00  0.00    +0.000 N 
ATOM     15  C   UNL     1       7.279   6.455  17.180  0.00  0.00    +0.000 A 
ATOM     16  C   UNL     1       7.894   7.002  18.280  0.00  0.00    +0.000 A 
ATOM     17  C   UNL     1       7.869   5.981  19.248  0.00  0.00    +0.000 A 
ATOM     18  N   UNL     1       7.289   4.865  18.798  0.00  0.00    +0.000 NA
ENDBRANCH  13  14
ENDBRANCH   2  13
TORSDOF 4
ENDMDL
MODEL 8
REMARK VINA RESULT:      -6.5      2.092      2.637
REMARK  Name = 
REMARK  5 active torsions:
REMARK  status: ('A' for Active; 'I' for Inactive)
REMARK    1  A    between atoms: C_1  and  C_2
REMARK    2  A    between atoms: C_2  and  N_3
REMARK    3  A    between atoms: C_2  and  C_12
REMARK    4  A    between atoms: C_4  and  C_6
REMARK    5  A    between atoms: C_6  and  N_7
REMARK                            x       y       z     vdW  Elec       q    Type
REMARK                         _______ _______ _______ _____ _____    ______ ____
ROOT
ATOM      1  N   UNL     1       3.414   5.233  18.735  0.00  0.00    +0.000 N 
ATOM      2  C   UNL     1       2.650   6.271  19.231  0.00  0.00    +0.000 C 
ATOM      3  O   UNL     1       2.595   7.377  18.694  0.00  0.00    +0.000 OA
ATOM      4  H   UNL     1       3.573   4.424  19.328  0.00  0.00    +0.000 HD
ENDROOT
BRANCH   1   6
ATOM      5  C   UNL     1       4.381   4.058  16.798  0.00  0.00    +0.000 C 
ATOM      6  C   UNL     1       4.213   5.394  17.531  0.00  0.00    +0.000 C 
BRANCH   6   7
ATOM      7  C   UNL     1       5.561   6.008  17.828  0.00  0.00    +0.000 A 
ATOM      8  C   UNL     1       6.446   5.482  18.777  0.00  0.00    +0.000 A 
ATOM      9  C   UNL     1       7.710   6.045  18.933  0.00  0.00    +0.000 A 
ATOM     10  C   UNL     1       8.050   7.127  18.140  0.00  0.00    +0.000 A 
ATOM     11  N   UNL     1       7.220   7.680  17.233  0.00  0.00    +0.000 NA
ATOM     12  C   UNL     1       5.999   7.112  17.100  0.00  0.00    +0.000 A 
ENDBRANCH   6   7
ENDBRANCH   1   6
BRANCH   2  13
ATOM     13  C   UNL     1       1.843   5.947  20.464  0.00  0.00    +0.000 C 
BRANCH  13  14
ATOM     14  N   UNL     1       1.717   4.518  20.652  0.00  0.00    +0.000 N 
ATOM     15  C   UNL     1       2.181   3.783  21.707  0.00  0.00    +0.000 A 
ATOM     16  C   UNL     1       1.751   2.496  21.493  0.00  0.00    +0.000 A 
ATOM     17  C   UNL     1       1.023   2.558  20.290  0.00  0.00    +0.000 A 
ATOM     18  N   UNL     1       0.998   3.789  19.771  0.00  0.00    +0.000 NA
ENDBRANCH  13  14
ENDBRANCH   2  13
TORSDOF 4
ENDMDL
MODEL 9
REMARK VINA RESULT:      -6.5      0.815      1.230
REMARK  Name = 
REMARK  5 active torsions:
REMARK  status: ('A' for Active; 'I' for Inactive)
REMARK    1  A    between atoms: C_1  and  C_2
REMARK    2  A    between atoms: C_2  and  N_3
REMARK    3  A    between atoms: C_2  and  C_12
REMARK    4  A    between atoms: C_4  and  C_6
REMARK    5  A    between atoms: C_6  and  N_7
REMARK                            x       y       z     vdW  Elec       q    Type
REMARK                         _______ _______ _______ _____ _____    ______ ____
ROOT
ATOM      1  N   UNL     1       4.562   3.738  16.727  0.00  0.00    +0.000 N 
ATOM      2  C   UNL     1       3.378   3.854  17.428  0.00  0.00    +0.000 C 
ATOM      3  O   UNL     1       2.787   4.924  17.570  0.00  0.00    +0.000 OA
ATOM      4  H   UNL     1       5.096   2.879  16.819  0.00  0.00    +0.000 HD
ENDROOT
BRANCH   1   6
ATOM      5  C   UNL     1       5.881   4.512  14.796  0.00  0.00    +0.000 C 
ATOM      6  C   UNL     1       5.189   4.896  16.109  0.00  0.00    +0.000 C 
BRANCH   6   7
ATOM      7  C   UNL     1       6.163   5.574  17.043  0.00  0.00    +0.000 A 
ATOM      8  C   UNL     1       6.832   4.897  18.070  0.00  0.00    +0.000 A 
ATOM      9  C   UNL     1       7.786   5.564  18.834  0.00  0.00    +0.000 A 
ATOM     10  C   UNL     1       8.037   6.896  18.555  0.00  0.00    +0.000 A 
ATOM     11  N   UNL     1       7.399   7.592  17.593  0.00  0.00    +0.000 NA
ATOM     12  C   UNL     1       6.479   6.919  16.864  0.00  0.00    +0.000 A 
ENDBRANCH   6   7
ENDBRANCH   1   6
BRANCH   2  13
ATOM     13  C   UNL     1       2.825   2.564  17.980  0.00  0.00    +0.000 C 
BRANCH  13  14
ATOM     14  N   UNL     1       2.424   2.709  19.362  0.00  0.00    +0.000 N 
ATOM     15  C   UNL     1       1.149   2.802  19.844  0.00  0.00    +0.000 A 
ATOM     16  C   UNL     1       1.260   2.835  21.213  0.00  0.00    +0.000 A 
ATOM     17  C   UNL     1       2.641   2.742  21.461  0.00  0.00    +0.000 A 
ATOM     18  N   UNL     1       3.359   2.664  20.337  0.00  0.00    +0.000 NA
ENDBRANCH  13  14
ENDBRANCH   2  13
TORSDOF 4
ENDMDL
