MODEL 1
REMARK VINA RESULT:      -6.1      0.000      0.000
REMARK  Name = 
REMARK  9 active torsions:
REMARK  status: ('A' for Active; 'I' for Inactive)
REMARK    1  A    between atoms: C_1  and  C_2
REMARK    2  A    between atoms: C_2  and  N_3
REMARK    3  A    between atoms: N_3  and  C_16
REMARK    4  A    between atoms: C_4  and  C_6
REMARK    5  A    between atoms: N_10  and  C_11
REMARK    6  A    between atoms: C_16  and  C_17
REMARK    7  A    between atoms: C_16  and  C_18
REMARK    8  A    between atoms: C_18  and  S_19
REMARK    9  A    between atoms: S_19  and  C_20
REMARK                            x       y       z     vdW  Elec       q    Type
REMARK                         _______ _______ _______ _____ _____    ______ ____
ROOT
ATOM      1  N   UNL     1       3.661   5.418  19.184  0.00  0.00    +0.000 N 
ATOM      2  C   UNL     1       4.909   4.728  19.172  0.00  0.00    +0.000 C 
ATOM      3  O   UNL     1       4.913   3.532  19.485  0.00  0.00    +0.000 OA
ENDROOT
BRANCH   2   4
ATOM      4  C   UNL     1       6.169   5.403  18.823  0.00  0.00    +0.000 A 
ATOM      5  C   UNL     1       7.249   5.735  19.640  0.00  0.00    +0.000 A 
ATOM      6  C   UNL     1       8.164   6.528  18.924  0.00  0.00    +0.000 A 
ATOM      7  C   UNL     1       7.742   6.525  17.625  0.00  0.00    +0.000 A 
ATOM      8  N   UNL     1       6.596   5.756  17.534  0.00  0.00    +0.000 N 
BRANCH   8   9
ATOM      9  C   UNL     1       6.036   5.359  16.246  0.00  0.00    +0.000 C 
ATOM     10  C   UNL     1       6.984   5.496  15.049  0.00  0.00    +0.000 C 
ATOM     11  C   UNL     1       6.373   4.597  13.976  0.00  0.00    +0.000 C 
ATOM     12  C   UNL     1       5.579   3.521  14.713  0.00  0.00    +0.000 C 
ATOM     13  C   UNL     1       5.628   3.877  16.196  0.00  0.00    +0.000 C 
ENDBRANCH   8   9
ENDBRANCH   2   4
BRANCH   1  15
ATOM     14  C   UNL     1       3.155   7.233  17.419  0.00  0.00    +0.000 C 
ATOM     15  C   UNL     1       3.447   6.843  18.861  0.00  0.00    +0.000 C 
ENDBRANCH   1  15
BRANCH   1  16
ATOM     16  C   UNL     1       2.546   4.749  19.920  0.00  0.00    +0.000 C 
ATOM     17  C   UNL     1       1.925   5.753  20.915  0.00  0.00    +0.000 C 
BRANCH  16  18
ATOM     18  C   UNL     1       1.430   4.147  19.056  0.00  0.00    +0.000 C 
BRANCH  18  19
ATOM     19  S   UNL     1       1.450   2.380  18.850  0.00  0.00    +0.000 S 
ATOM     20  C   UNL     1       2.654   2.050  17.583  0.00  0.00    +0.000 C 
ATOM     21  O   UNL     1       1.981   1.827  20.081  0.00  0.00    +0.000 OA
ATOM     22  O   UNL     1       0.153   1.947  18.367  0.00  0.00    +0.000 OA
ENDBRANCH  18  19
ENDBRANCH  16  18
ENDBRANCH   1  16
TORSDOF 6
ENDMDL
MODEL 2
REMARK VINA RESULT:      -6.0      2.736      5.889
REMARK  Name = 
REMARK  9 active torsions:
REMARK  status: ('A' for Active; 'I' for Inactive)
REMARK    1  A    between atoms: C_1  and  C_2
REMARK    2  A    between atoms: C_2  and  N_3
REMARK    3  A    between atoms: N_3  and  C_16
REMARK    4  A    between atoms: C_4  and  C_6
REMARK    5  A    between atoms: N_10  and  C_11
REMARK    6  A    between atoms: C_16  and  C_17
REMARK    7  A    between atoms: C_16  and  C_18
REMARK    8  A    between atoms: C_18  and  S_19
REMARK    9  A    between atoms: S_19  and  C_20
REMARK                            x       y       z     vdW  Elec       q    Type
REMARK                         _______ _______ _______ _____ _____    ______ ____
ROOT
ATOM      1  N   UNL     1       6.417   6.175  17.628  0.00  0.00    +0.000 N 
ATOM      2  C   UNL     1       5.172   5.560  17.956  0.00  0.00    +0.000 C 
ATOM      3  O   UNL     1       5.141   4.328  18.050  0.00  0.00    +0.000 OA
ENDROOT
BRANCH   2   4
ATOM      4  C   UNL     1       3.945   6.346  18.159  0.00  0.00    +0.000 A 
ATOM      5  C   UNL     1       3.559   7.548  17.568  0.00  0.00    +0.000 A 
ATOM      6  C   UNL     1       2.390   8.030  18.185  0.00  0.00    +0.000 A 
ATOM      7  C   UNL     1       1.957   7.038  19.018  0.00  0.00    +0.000 A 
ATOM      8  N   UNL     1       2.831   5.971  18.926  0.00  0.00    +0.000 N 
BRANCH   8   9
ATOM      9  C   UNL     1       2.520   4.668  19.507  0.00  0.00    +0.000 C 
ATOM     10  C   UNL     1       1.927   4.706  20.921  0.00  0.00    +0.000 C 
ATOM     11  C   UNL     1       1.261   3.343  21.089  0.00  0.00    +0.000 C 
ATOM     12  C   UNL     1       0.892   2.864  19.687  0.00  0.00    +0.000 C 
ATOM     13  C   UNL     1       1.462   3.889  18.709  0.00  0.00    +0.000 C 
ENDBRANCH   8   9
ENDBRANCH   2   4
BRANCH   1  15
ATOM     14  C   UNL     1       8.008   8.194  17.863  0.00  0.00    +0.000 C 
ATOM     15  C   UNL     1       6.659   7.621  17.453  0.00  0.00    +0.000 C 
ENDBRANCH   1  15
BRANCH   1  16
ATOM     16  C   UNL     1       7.468   5.273  17.068  0.00  0.00    +0.000 C 
ATOM     17  C   UNL     1       8.103   4.464  18.219  0.00  0.00    +0.000 C 
BRANCH  16  18
ATOM     18  C   UNL     1       7.012   4.303  15.969  0.00  0.00    +0.000 C 
BRANCH  18  19
ATOM     19  S   UNL     1       6.679   5.012  14.372  0.00  0.00    +0.000 S 
ATOM     20  C   UNL     1       6.149   3.663  13.340  0.00  0.00    +0.000 C 
ATOM     21  O   UNL     1       5.532   5.882  14.538  0.00  0.00    +0.000 OA
ATOM     22  O   UNL     1       7.913   5.543  13.825  0.00  0.00    +0.000 OA
ENDBRANCH  18  19
ENDBRANCH  16  18
ENDBRANCH   1  16
TORSDOF 6
ENDMDL
MODEL 3
REMARK VINA RESULT:      -6.0      2.643      6.004
REMARK  Name = 
REMARK  9 active torsions:
REMARK  status: ('A' for Active; 'I' for Inactive)
REMARK    1  A    between atoms: C_1  and  C_2
REMARK    2  A    between atoms: C_2  and  N_3
REMARK    3  A    between atoms: N_3  and  C_16
REMARK    4  A    between atoms: C_4  and  C_6
REMARK    5  A    between atoms: N_10  and  C_11
REMARK    6  A    between atoms: C_16  and  C_17
REMARK    7  A    between atoms: C_16  and  C_18
REMARK    8  A    between atoms: C_18  and  S_19
REMARK    9  A    between atoms: S_19  and  C_20
REMARK                            x       y       z     vdW  Elec       q    Type
REMARK                         _______ _______ _______ _____ _____    ______ ____
ROOT
ATOM      1  N   UNL     1       4.801   4.291  17.879  0.00  0.00    +0.000 N 
ATOM      2  C   UNL     1       4.661   4.327  19.298  0.00  0.00    +0.000 C 
ATOM      3  O   UNL     1       5.689   4.403  19.979  0.00  0.00    +0.000 OA
ENDROOT
BRANCH   2   4
ATOM      4  C   UNL     1       3.345   4.256  19.953  0.00  0.00    +0.000 A 
ATOM      5  C   UNL     1       2.799   3.234  20.728  0.00  0.00    +0.000 A 
ATOM      6  C   UNL     1       1.448   3.514  21.005  0.00  0.00    +0.000 A 
ATOM      7  C   UNL     1       1.222   4.787  20.566  0.00  0.00    +0.000 A 
ATOM      8  N   UNL     1       2.394   5.285  20.027  0.00  0.00    +0.000 N 
BRANCH   8   9
ATOM      9  C   UNL     1       2.548   6.696  19.689  0.00  0.00    +0.000 C 
ATOM     10  C   UNL     1       2.271   7.053  18.224  0.00  0.00    +0.000 C 
ATOM     11  C   UNL     1       2.019   8.559  18.241  0.00  0.00    +0.000 C 
ATOM     12  C   UNL     1       1.500   8.896  19.637  0.00  0.00    +0.000 C 
ATOM     13  C   UNL     1       1.579   7.611  20.456  0.00  0.00    +0.000 C 
ENDBRANCH   8   9
ENDBRANCH   2   4
BRANCH   1  15
ATOM     14  C   UNL     1       2.665   3.086  17.070  0.00  0.00    +0.000 C 
ATOM     15  C   UNL     1       3.705   4.185  16.895  0.00  0.00    +0.000 C 
ENDBRANCH   1  15
BRANCH   1  16
ATOM     16  C   UNL     1       6.166   3.975  17.360  0.00  0.00    +0.000 C 
ATOM     17  C   UNL     1       6.124   3.946  15.817  0.00  0.00    +0.000 C 
BRANCH  16  18
ATOM     18  C   UNL     1       7.294   4.911  17.812  0.00  0.00    +0.000 C 
BRANCH  18  19
ATOM     19  S   UNL     1       7.186   6.604  17.275  0.00  0.00    +0.000 S 
ATOM     20  C   UNL     1       8.192   7.540  18.404  0.00  0.00    +0.000 C 
ATOM     21  O   UNL     1       7.842   6.669  15.983  0.00  0.00    +0.000 OA
ATOM     22  O   UNL     1       5.814   7.055  17.409  0.00  0.00    +0.000 OA
ENDBRANCH  18  19
ENDBRANCH  16  18
ENDBRANCH   1  16
TORSDOF 6
ENDMDL
MODEL 4
REMARK VINA RESULT:      -5.8      2.895      5.904
REMARK  Name = 
REMARK  9 active torsions:
REMARK  status: ('A' for Active; 'I' for Inactive)
REMARK    1  A    between atoms: C_1  and  C_2
REMARK    2  A    between atoms: C_2  and  N_3
REMARK    3  A    between atoms: N_3  and  C_16
REMARK    4  A    between atoms: C_4  and  C_6
REMARK    5  A    between atoms: N_10  and  C_11
REMARK    6  A    between atoms: C_16  and  C_17
REMARK    7  A    between atoms: C_16  and  C_18
REMARK    8  A    between atoms: C_18  and  S_19
REMARK    9  A    between atoms: S_19  and  C_20
REMARK                            x       y       z     vdW  Elec       q    Type
REMARK                         _______ _______ _______ _____ _____    ______ ____
ROOT
ATOM      1  N   UNL     1       5.037   5.837  18.260  0.00  0.00    +0.000 N 
ATOM      2  C   UNL     1       3.899   6.669  18.034  0.00  0.00    +0.000 C 
ATOM      3  O   UNL     1       3.818   7.257  16.951  0.00  0.00    +0.000 OA
ENDROOT
BRANCH   2   4
ATOM      4  C   UNL     1       2.854   6.851  19.054  0.00  0.00    +0.000 A 
ATOM      5  C   UNL     1       2.215   8.020  19.464  0.00  0.00    +0.000 A 
ATOM      6  C   UNL     1       1.410   7.756  20.587  0.00  0.00    +0.000 A 
ATOM      7  C   UNL     1       1.406   6.400  20.747  0.00  0.00    +0.000 A 
ATOM      8  N   UNL     1       2.189   5.835  19.757  0.00  0.00    +0.000 N 
BRANCH   8   9
ATOM      9  C   UNL     1       2.196   4.397  19.508  0.00  0.00    +0.000 C 
ATOM     10  C   UNL     1       1.557   3.538  20.606  0.00  0.00    +0.000 C 
ATOM     11  C   UNL     1       1.253   2.209  19.919  0.00  0.00    +0.000 C 
ATOM     12  C   UNL     1       1.075   2.518  18.434  0.00  0.00    +0.000 C 
ATOM     13  C   UNL     1       1.404   3.997  18.252  0.00  0.00    +0.000 C 
ENDBRANCH   8   9
ENDBRANCH   2   4
BRANCH   1  15
ATOM     14  C   UNL     1       5.171   3.553  19.456  0.00  0.00    +0.000 C 
ATOM     15  C   UNL     1       5.328   5.067  19.486  0.00  0.00    +0.000 C 
ENDBRANCH   1  15
BRANCH   1  16
ATOM     16  C   UNL     1       6.193   6.041  17.336  0.00  0.00    +0.000 C 
ATOM     17  C   UNL     1       7.432   6.449  18.162  0.00  0.00    +0.000 C 
BRANCH  16  18
ATOM     18  C   UNL     1       6.561   4.851  16.440  0.00  0.00    +0.000 C 
BRANCH  18  19
ATOM     19  S   UNL     1       6.571   5.151  14.686  0.00  0.00    +0.000 S 
ATOM     20  C   UNL     1       6.083   3.618  13.926  0.00  0.00    +0.000 C 
ATOM     21  O   UNL     1       5.507   6.100  14.423  0.00  0.00    +0.000 OA
ATOM     22  O   UNL     1       7.926   5.454  14.267  0.00  0.00    +0.000 OA
ENDBRANCH  18  19
ENDBRANCH  16  18
ENDBRANCH   1  16
TORSDOF 6
ENDMDL
MODEL 5
REMARK VINA RESULT:      -5.7      1.520      3.096
REMARK  Name = 
REMARK  9 active torsions:
REMARK  status: ('A' for Active; 'I' for Inactive)
REMARK    1  A    between atoms: C_1  and  C_2
REMARK    2  A    between atoms: C_2  and  N_3
REMARK    3  A    between atoms: N_3  and  C_16
REMARK    4  A    between atoms: C_4  and  C_6
REMARK    5  A    between atoms: N_10  and  C_11
REMARK    6  A    between atoms: C_16  and  C_17
REMARK    7  A    between atoms: C_16  and  C_18
REMARK    8  A    between atoms: C_18  and  S_19
REMARK    9  A    between atoms: S_19  and  C_20
REMARK                            x       y       z     vdW  Elec       q    Type
REMARK                         _______ _______ _______ _____ _____    ______ ____
ROOT
ATOM      1  N   UNL     1       3.221   5.050  18.890  0.00  0.00    +0.000 N 
ATOM      2  C   UNL     1       4.454   4.355  18.707  0.00  0.00    +0.000 C 
ATOM      3  O   UNL     1       4.903   3.711  19.661  0.00  0.00    +0.000 OA
ENDROOT
BRANCH   2   4
ATOM      4  C   UNL     1       5.195   4.407  17.437  0.00  0.00    +0.000 A 
ATOM      5  C   UNL     1       4.963   3.715  16.249  0.00  0.00    +0.000 A 
ATOM      6  C   UNL     1       6.021   3.940  15.350  0.00  0.00    +0.000 A 
ATOM      7  C   UNL     1       6.801   4.912  15.909  0.00  0.00    +0.000 A 
ATOM      8  N   UNL     1       6.248   5.280  17.121  0.00  0.00    +0.000 N 
BRANCH   8   9
ATOM      9  C   UNL     1       6.708   6.458  17.851  0.00  0.00    +0.000 C 
ATOM     10  C   UNL     1       7.936   6.238  18.742  0.00  0.00    +0.000 C 
ATOM     11  C   UNL     1       8.487   7.642  18.981  0.00  0.00    +0.000 C 
ATOM     12  C   UNL     1       8.055   8.487  17.785  0.00  0.00    +0.000 C 
ATOM     13  C   UNL     1       7.151   7.605  16.928  0.00  0.00    +0.000 C 
ENDBRANCH   8   9
ENDBRANCH   2   4
BRANCH   1  15
ATOM     14  C   UNL     1       3.128   7.236  17.519  0.00  0.00    +0.000 C 
ATOM     15  C   UNL     1       2.531   5.885  17.887  0.00  0.00    +0.000 C 
ENDBRANCH   1  15
BRANCH   1  16
ATOM     16  C   UNL     1       2.781   5.244  20.305  0.00  0.00    +0.000 C 
ATOM     17  C   UNL     1       2.467   6.738  20.534  0.00  0.00    +0.000 C 
BRANCH  16  18
ATOM     18  C   UNL     1       1.578   4.406  20.759  0.00  0.00    +0.000 C 
BRANCH  18  19
ATOM     19  S   UNL     1       1.914   2.722  21.226  0.00  0.00    +0.000 S 
ATOM     20  C   UNL     1       1.729   1.758  19.742  0.00  0.00    +0.000 C 
ATOM     21  O   UNL     1       3.318   2.666  21.584  0.00  0.00    +0.000 OA
ATOM     22  O   UNL     1       0.910   2.287  22.178  0.00  0.00    +0.000 OA
ENDBRANCH  18  19
ENDBRANCH  16  18
ENDBRANCH   1  16
TORSDOF 6
ENDMDL
MODEL 6
REMARK VINA RESULT:      -5.7      0.852      1.389
REMARK  Name = 
REMARK  9 active torsions:
REMARK  status: ('A' for Active; 'I' for Inactive)
REMARK    1  A    between atoms: C_1  and  C_2
REMARK    2  A    between atoms: C_2  and  N_3
REMARK    3  A    between atoms: N_3  and  C_16
REMARK    4  A    between atoms: C_4  and  C_6
REMARK    5  A    between atoms: N_10  and  C_11
REMARK    6  A    between atoms: C_16  and  C_17
REMARK    7  A    between atoms: C_16  and  C_18
REMARK    8  A    between atoms: C_18  and  S_19
REMARK    9  A    between atoms: S_19  and  C_20
REMARK                            x       y       z     vdW  Elec       q    Type
REMARK                         _______ _______ _______ _____ _____    ______ ____
ROOT
ATOM      1  N   UNL     1       3.725   5.571  19.119  0.00  0.00    +0.000 N 
ATOM      2  C   UNL     1       4.962   4.861  19.146  0.00  0.00    +0.000 C 
ATOM      3  O   UNL     1       4.952   3.694  19.551  0.00  0.00    +0.000 OA
ENDROOT
BRANCH   2   4
ATOM      4  C   UNL     1       6.227   5.486  18.729  0.00  0.00    +0.000 A 
ATOM      5  C   UNL     1       7.197   6.121  19.504  0.00  0.00    +0.000 A 
ATOM      6  C   UNL     1       8.156   6.725  18.671  0.00  0.00    +0.000 A 
ATOM      7  C   UNL     1       7.882   6.304  17.401  0.00  0.00    +0.000 A 
ATOM      8  N   UNL     1       6.783   5.465  17.440  0.00  0.00    +0.000 N 
BRANCH   8   9
ATOM      9  C   UNL     1       6.385   4.663  16.288  0.00  0.00    +0.000 C 
ATOM     10  C   UNL     1       5.027   5.025  15.675  0.00  0.00    +0.000 C 
ATOM     11  C   UNL     1       5.072   4.425  14.272  0.00  0.00    +0.000 C 
ATOM     12  C   UNL     1       6.545   4.360  13.875  0.00  0.00    +0.000 C 
ATOM     13  C   UNL     1       7.348   4.798  15.097  0.00  0.00    +0.000 C 
ENDBRANCH   8   9
ENDBRANCH   2   4
BRANCH   1  15
ATOM     14  C   UNL     1       2.554   7.258  17.554  0.00  0.00    +0.000 C 
ATOM     15  C   UNL     1       3.528   6.969  18.688  0.00  0.00    +0.000 C 
ENDBRANCH   1  15
BRANCH   1  16
ATOM     16  C   UNL     1       2.611   4.979  19.920  0.00  0.00    +0.000 C 
ATOM     17  C   UNL     1       1.912   6.102  20.717  0.00  0.00    +0.000 C 
BRANCH  16  18
ATOM     18  C   UNL     1       1.553   4.195  19.131  0.00  0.00    +0.000 C 
BRANCH  18  19
ATOM     19  S   UNL     1       1.392   2.466  19.520  0.00  0.00    +0.000 S 
ATOM     20  C   UNL     1       1.388   2.364  21.296  0.00  0.00    +0.000 C 
ATOM     21  O   UNL     1       0.069   2.067  19.079  0.00  0.00    +0.000 OA
ATOM     22  O   UNL     1       2.559   1.761  19.027  0.00  0.00    +0.000 OA
ENDBRANCH  18  19
ENDBRANCH  16  18
ENDBRANCH   1  16
TORSDOF 6
ENDMDL
MODEL 7
REMARK VINA RESULT:      -5.6      3.220      6.479
REMARK  Name = 
REMARK  9 active torsions:
REMARK  status: ('A' for Active; 'I' for Inactive)
REMARK    1  A    between atoms: C_1  and  C_2
REMARK    2  A    between atoms: C_2  and  N_3
REMARK    3  A    between atoms: N_3  and  C_16
REMARK    4  A    between atoms: C_4  and  C_6
REMARK    5  A    between atoms: N_10  and  C_11
REMARK    6  A    between atoms: C_16  and  C_17
REMARK    7  A    between atoms: C_16  and  C_18
REMARK    8  A    between atoms: C_18  and  S_19
REMARK    9  A    between atoms: S_19  and  C_20
REMARK                            x       y       z     vdW  Elec       q    Type
REMARK                         _______ _______ _______ _____ _____    ______ ____
ROOT
ATOM      1  N   UNL     1       2.906   6.171  18.598  0.00  0.00    +0.000 N 
ATOM      2  C   UNL     1       2.098   7.043  19.388  0.00  0.00    +0.000 C 
ATOM      3  O   UNL     1       1.557   6.576  20.396  0.00  0.00    +0.000 OA
ENDROOT
BRANCH   2   4
ATOM      4  C   UNL     1       1.886   8.452  19.021  0.00  0.00    +0.000 A 
ATOM      5  C   UNL     1       2.160   9.103  17.819  0.00  0.00    +0.000 A 
ATOM      6  C   UNL     1       1.960  10.487  17.968  0.00  0.00    +0.000 A 
ATOM      7  C   UNL     1       1.387  10.663  19.195  0.00  0.00    +0.000 A 
ATOM      8  N   UNL     1       1.236   9.426  19.794  0.00  0.00    +0.000 N 
BRANCH   8   9
ATOM      9  C   UNL     1       0.440   9.249  21.005  0.00  0.00    +0.000 C 
ATOM     10  C   UNL     1       1.240   9.169  22.310  0.00  0.00    +0.000 C 
ATOM     11  C   UNL     1       0.219   9.477  23.402  0.00  0.00    +0.000 C 
ATOM     12  C   UNL     1      -0.863  10.338  22.753  0.00  0.00    +0.000 C 
ATOM     13  C   UNL     1      -0.530  10.414  21.266  0.00  0.00    +0.000 C 
ENDBRANCH   8   9
ENDBRANCH   2   4
BRANCH   1  15
ATOM     14  C   UNL     1       5.101   6.868  17.433  0.00  0.00    +0.000 C 
ATOM     15  C   UNL     1       3.620   6.527  17.356  0.00  0.00    +0.000 C 
ENDBRANCH   1  15
BRANCH   1  16
ATOM     16  C   UNL     1       2.726   4.708  18.843  0.00  0.00    +0.000 C 
ATOM     17  C   UNL     1       1.757   4.136  17.786  0.00  0.00    +0.000 C 
BRANCH  16  18
ATOM     18  C   UNL     1       4.007   3.863  18.855  0.00  0.00    +0.000 C 
BRANCH  18  19
ATOM     19  S   UNL     1       3.928   2.314  19.728  0.00  0.00    +0.000 S 
ATOM     20  C   UNL     1       2.668   2.515  20.967  0.00  0.00    +0.000 C 
ATOM     21  O   UNL     1       3.429   1.334  18.784  0.00  0.00    +0.000 OA
ATOM     22  O   UNL     1       5.193   2.087  20.400  0.00  0.00    +0.000 OA
ENDBRANCH  18  19
ENDBRANCH  16  18
ENDBRANCH   1  16
TORSDOF 6
ENDMDL
MODEL 8
REMARK VINA RESULT:      -5.6      1.850      3.916
REMARK  Name = 
REMARK  9 active torsions:
REMARK  status: ('A' for Active; 'I' for Inactive)
REMARK    1  A    between atoms: C_1  and  C_2
REMARK    2  A    between atoms: C_2  and  N_3
REMARK    3  A    between atoms: N_3  and  C_16
REMARK    4  A    between atoms: C_4  and  C_6
REMARK    5  A    between atoms: N_10  and  C_11
REMARK    6  A    between atoms: C_16  and  C_17
REMARK    7  A    between atoms: C_16  and  C_18
REMARK    8  A    between atoms: C_18  and  S_19
REMARK    9  A    between atoms: S_19  and  C_20
REMARK                            x       y       z     vdW  Elec       q    Type
REMARK                         _______ _______ _______ _____ _____    ______ ____
ROOT
ATOM      1  N   UNL     1       3.146   3.502  17.957  0.00  0.00    +0.000 N 
ATOM      2  C   UNL     1       3.870   4.666  17.560  0.00  0.00    +0.000 C 
ATOM      3  O   UNL     1       3.547   5.748  18.062  0.00  0.00    +0.000 OA
ENDROOT
BRANCH   2   4
ATOM      4  C   UNL     1       4.957   4.607  16.570  0.00  0.00    +0.000 A 
ATOM      5  C   UNL     1       4.958   4.053  15.291  0.00  0.00    +0.000 A 
ATOM      6  C   UNL     1       6.262   4.066  14.765  0.00  0.00    +0.000 A 
ATOM      7  C   UNL     1       7.021   4.793  15.636  0.00  0.00    +0.000 A 
ATOM      8  N   UNL     1       6.216   5.219  16.677  0.00  0.00    +0.000 N 
BRANCH   8   9
ATOM      9  C   UNL     1       6.668   6.213  17.644  0.00  0.00    +0.000 C 
ATOM     10  C   UNL     1       7.807   5.760  18.566  0.00  0.00    +0.000 C 
ATOM     11  C   UNL     1       8.402   7.060  19.101  0.00  0.00    +0.000 C 
ATOM     12  C   UNL     1       8.111   8.134  18.055  0.00  0.00    +0.000 C 
ATOM     13  C   UNL     1       7.240   7.480  16.986  0.00  0.00    +0.000 C 
ENDBRANCH   8   9
ENDBRANCH   2   4
BRANCH   1  15
ATOM     14  C   UNL     1       4.140   1.150  18.337  0.00  0.00    +0.000 C 
ATOM     15  C   UNL     1       3.364   2.127  17.465  0.00  0.00    +0.000 C 
ENDBRANCH   1  15
BRANCH   1  16
ATOM     16  C   UNL     1       1.841   3.742  18.644  0.00  0.00    +0.000 C 
ATOM     17  C   UNL     1       0.717   3.793  17.587  0.00  0.00    +0.000 C 
BRANCH  16  18
ATOM     18  C   UNL     1       1.456   2.734  19.734  0.00  0.00    +0.000 C 
BRANCH  18  19
ATOM     19  S   UNL     1       2.126   3.023  21.357  0.00  0.00    +0.000 S 
ATOM     20  C   UNL     1       2.313   4.786  21.501  0.00  0.00    +0.000 C 
ATOM     21  O   UNL     1       1.097   2.637  22.303  0.00  0.00    +0.000 OA
ATOM     22  O   UNL     1       3.442   2.419  21.438  0.00  0.00    +0.000 OA
ENDBRANCH  18  19
ENDBRANCH  16  18
ENDBRANCH   1  16
TORSDOF 6
ENDMDL
MODEL 9
REMARK VINA RESULT:      -5.6      2.998      6.074
REMARK  Name = 
REMARK  9 active torsions:
REMARK  status: ('A' for Active; 'I' for Inactive)
REMARK    1  A    between atoms: C_1  and  C_2
REMARK    2  A    between atoms: C_2  and  N_3
REMARK    3  A    between atoms: N_3  and  C_16
REMARK    4  A    between atoms: C_4  and  C_6
REMARK    5  A    between atoms: N_10  and  C_11
REMARK    6  A    between atoms: C_16  and  C_17
REMARK    7  A    between atoms: C_16  and  C_18
REMARK    8  A    between atoms: C_18  and  S_19
REMARK    9  A    between atoms: S_19  and  C_20
REMARK                            x       y       z     vdW  Elec       q    Type
REMARK                         _______ _______ _______ _____ _____    ______ ____
ROOT
ATOM      1  N   UNL     1       5.050   4.664  17.708  0.00  0.00    +0.000 N 
ATOM      2  C   UNL     1       4.624   5.606  18.693  0.00  0.00    +0.000 C 
ATOM      3  O   UNL     1       5.258   6.661  18.796  0.00  0.00    +0.000 OA
ENDROOT
BRANCH   2   4
ATOM      4  C   UNL     1       3.482   5.339  19.581  0.00  0.00    +0.000 A 
ATOM      5  C   UNL     1       3.244   4.244  20.409  0.00  0.00    +0.000 A 
ATOM      6  C   UNL     1       1.946   4.323  20.946  0.00  0.00    +0.000 A 
ATOM      7  C   UNL     1       1.462   5.552  20.602  0.00  0.00    +0.000 A 
ATOM      8  N   UNL     1       2.427   6.219  19.869  0.00  0.00    +0.000 N 
BRANCH   8   9
ATOM      9  C   UNL     1       2.312   7.640  19.557  0.00  0.00    +0.000 C 
ATOM     10  C   UNL     1       1.929   7.964  18.108  0.00  0.00    +0.000 C 
ATOM     11  C   UNL     1       1.409   9.398  18.165  0.00  0.00    +0.000 C 
ATOM     12  C   UNL     1       0.882   9.613  19.582  0.00  0.00    +0.000 C 
ATOM     13  C   UNL     1       1.218   8.351  20.371  0.00  0.00    +0.000 C 
ENDBRANCH   8   9
ENDBRANCH   2   4
BRANCH   1  15
ATOM     14  C   UNL     1       3.007   3.288  16.936  0.00  0.00    +0.000 C 
ATOM     15  C   UNL     1       4.443   3.345  17.439  0.00  0.00    +0.000 C 
ENDBRANCH   1  15
BRANCH   1  16
ATOM     16  C   UNL     1       6.424   4.866  17.157  0.00  0.00    +0.000 C 
ATOM     17  C   UNL     1       7.460   4.551  18.257  0.00  0.00    +0.000 C 
BRANCH  16  18
ATOM     18  C   UNL     1       6.773   4.061  15.898  0.00  0.00    +0.000 C 
BRANCH  18  19
ATOM     19  S   UNL     1       6.655   4.923  14.346  0.00  0.00    +0.000 S 
ATOM     20  C   UNL     1       6.159   3.705  13.148  0.00  0.00    +0.000 C 
ATOM     21  O   UNL     1       5.550   5.853  14.473  0.00  0.00    +0.000 OA
ATOM     22  O   UNL     1       7.970   5.413  13.977  0.00  0.00    +0.000 OA
ENDBRANCH  18  19
ENDBRANCH  16  18
ENDBRANCH   1  16
TORSDOF 6
ENDMDL
