MODEL 1
REMARK VINA RESULT:      -7.8      0.000      0.000
REMARK  Name = 
REMARK  8 active torsions:
REMARK  status: ('A' for Active; 'I' for Inactive)
REMARK    1  A    between atoms: C_1  and  N_2
REMARK    2  A    between atoms: N_2  and  C_3
REMARK    3  A    between atoms: N_2  and  S_24
REMARK    4  A    between atoms: C_8  and  C_9
REMARK    5  A    between atoms: N_11  and  C_12
REMARK    6  A    between atoms: N_18  and  C_19
REMARK    7  A    between atoms: N_22  and  C_23
REMARK    8  A    between atoms: S_24  and  C_25
REMARK                            x       y       z     vdW  Elec       q    Type
REMARK                         _______ _______ _______ _____ _____    ______ ____
ROOT
ATOM      1  C   UNL     1       2.711   7.435  18.318  0.00  0.00    +0.000 C 
ATOM      2  O   UNL     1       2.511   7.324  19.527  0.00  0.00    +0.000 OA
ATOM      3  N   UNL     1       2.098   8.354  17.483  0.00  0.00    +0.000 N 
ATOM      4  H   UNL     1       2.261   8.247  16.486  0.00  0.00    +0.000 HD
ENDROOT
BRANCH   3   5
ATOM      5  C   UNL     1       1.391   9.528  17.894  0.00  0.00    +0.000 A 
ATOM      6  C   UNL     1      -0.003   9.520  18.126  0.00  0.00    +0.000 A 
ATOM      7  C   UNL     1      -0.623  10.533  18.869  0.00  0.00    +0.000 A 
ATOM      8  C   UNL     1       0.194  11.523  19.353  0.00  0.00    +0.000 A 
ATOM      9  C   UNL     1       1.515  11.666  18.933  0.00  0.00    +0.000 A 
ATOM     10  C   UNL     1       2.151  10.656  18.227  0.00  0.00    +0.000 A 
ATOM     11  N   UNL     1       2.089  12.804  19.586  0.00  0.00    +0.000 N 
ATOM     12  C   UNL     1       2.024  14.049  18.808  0.00  0.00    +0.000 C 
ATOM     13  C   UNL     1       1.224  13.028  20.718  0.00  0.00    +0.000 A 
ATOM     14  O   UNL     1       1.469  13.738  21.682  0.00  0.00    +0.000 OA
ATOM     15  N   UNL     1      -0.003  12.429  20.392  0.00  0.00    +0.000 N 
ATOM     16  C   UNL     1      -1.223  12.786  21.031  0.00  0.00    +0.000 C 
ENDBRANCH   3   5
BRANCH   1  22
ATOM     17  C   UNL     1       3.467   5.064  17.700  0.00  0.00    +0.000 A 
ATOM     18  C   UNL     1       4.321   4.268  16.909  0.00  0.00    +0.000 A 
ATOM     19  C   UNL     1       5.356   4.837  16.167  0.00  0.00    +0.000 A 
ATOM     20  C   UNL     1       5.547   6.213  16.191  0.00  0.00    +0.000 A 
ATOM     21  C   UNL     1       4.699   7.015  16.953  0.00  0.00    +0.000 A 
ATOM     22  C   UNL     1       3.660   6.456  17.723  0.00  0.00    +0.000 A 
BRANCH  17  24
ATOM     23  C   UNL     1       1.212   3.988  17.720  0.00  0.00    +0.000 C 
ATOM     24  N   UNL     1       2.429   4.401  18.445  0.00  0.00    +0.000 N 
BRANCH  24  25
ATOM     25  S   UNL     1       2.905   3.450  19.769  0.00  0.00    +0.000 S 
ATOM     26  C   UNL     1       2.166   4.250  21.184  0.00  0.00    +0.000 C 
ATOM     27  O   UNL     1       2.289   2.152  19.596  0.00  0.00    +0.000 OA
ATOM     28  O   UNL     1       4.340   3.568  19.897  0.00  0.00    +0.000 OA
ENDBRANCH  24  25
ENDBRANCH  17  24
ENDBRANCH   1  22
TORSDOF 4
ENDMDL
MODEL 2
REMARK VINA RESULT:      -7.7      0.890      1.142
REMARK  Name = 
REMARK  8 active torsions:
REMARK  status: ('A' for Active; 'I' for Inactive)
REMARK    1  A    between atoms: C_1  and  N_2
REMARK    2  A    between atoms: N_2  and  C_3
REMARK    3  A    between atoms: N_2  and  S_24
REMARK    4  A    between atoms: C_8  and  C_9
REMARK    5  A    between atoms: N_11  and  C_12
REMARK    6  A    between atoms: N_18  and  C_19
REMARK    7  A    between atoms: N_22  and  C_23
REMARK    8  A    between atoms: S_24  and  C_25
REMARK                            x       y       z     vdW  Elec       q    Type
REMARK                         _______ _______ _______ _____ _____    ______ ____
ROOT
ATOM      1  C   UNL     1       2.864   7.293  18.295  0.00  0.00    +0.000 C 
ATOM      2  O   UNL     1       2.715   7.048  19.492  0.00  0.00    +0.000 OA
ATOM      3  N   UNL     1       2.217   8.296  17.593  0.00  0.00    +0.000 N 
ATOM      4  H   UNL     1       2.337   8.300  16.584  0.00  0.00    +0.000 HD
ENDROOT
BRANCH   3   5
ATOM      5  C   UNL     1       1.527   9.413  18.161  0.00  0.00    +0.000 A 
ATOM      6  C   UNL     1       0.303   9.265  18.851  0.00  0.00    +0.000 A 
ATOM      7  C   UNL     1      -0.174  10.265  19.708  0.00  0.00    +0.000 A 
ATOM      8  C   UNL     1       0.609  11.384  19.838  0.00  0.00    +0.000 A 
ATOM      9  C   UNL     1       1.684  11.639  18.989  0.00  0.00    +0.000 A 
ATOM     10  C   UNL     1       2.188  10.647  18.160  0.00  0.00    +0.000 A 
ATOM     11  N   UNL     1       2.275  12.892  19.352  0.00  0.00    +0.000 N 
ATOM     12  C   UNL     1       1.784  14.042  18.581  0.00  0.00    +0.000 C 
ATOM     13  C   UNL     1       1.809  13.119  20.697  0.00  0.00    +0.000 A 
ATOM     14  O   UNL     1       2.255  13.940  21.485  0.00  0.00    +0.000 OA
ATOM     15  N   UNL     1       0.639  12.355  20.836  0.00  0.00    +0.000 N 
ATOM     16  C   UNL     1      -0.339  12.627  21.832  0.00  0.00    +0.000 C 
ENDBRANCH   3   5
BRANCH   1  22
ATOM     17  C   UNL     1       3.710   4.987  17.557  0.00  0.00    +0.000 A 
ATOM     18  C   UNL     1       4.494   4.258  16.641  0.00  0.00    +0.000 A 
ATOM     19  C   UNL     1       5.352   4.903  15.750  0.00  0.00    +0.000 A 
ATOM     20  C   UNL     1       5.429   6.290  15.749  0.00  0.00    +0.000 A 
ATOM     21  C   UNL     1       4.646   7.026  16.638  0.00  0.00    +0.000 A 
ATOM     22  C   UNL     1       3.787   6.391  17.556  0.00  0.00    +0.000 A 
BRANCH  17  24
ATOM     23  C   UNL     1       1.488   3.931  17.999  0.00  0.00    +0.000 C 
ATOM     24  N   UNL     1       2.857   4.247  18.451  0.00  0.00    +0.000 N 
BRANCH  24  25
ATOM     25  S   UNL     1       3.603   3.142  19.503  0.00  0.00    +0.000 S 
ATOM     26  C   UNL     1       3.479   1.570  18.663  0.00  0.00    +0.000 C 
ATOM     27  O   UNL     1       4.998   3.516  19.583  0.00  0.00    +0.000 OA
ATOM     28  O   UNL     1       2.795   3.066  20.699  0.00  0.00    +0.000 OA
ENDBRANCH  24  25
ENDBRANCH  17  24
ENDBRANCH   1  22
TORSDOF 4
ENDMDL
MODEL 3
REMARK VINA RESULT:      -7.6      2.385      3.557
REMARK  Name = 
REMARK  8 active torsions:
REMARK  status: ('A' for Active; 'I' for Inactive)
REMARK    1  A    between atoms: C_1  and  N_2
REMARK    2  A    between atoms: N_2  and  C_3
REMARK    3  A    between atoms: N_2  and  S_24
REMARK    4  A    between atoms: C_8  and  C_9
REMARK    5  A    between atoms: N_11  and  C_12
REMARK    6  A    between atoms: N_18  and  C_19
REMARK    7  A    between atoms: N_22  and  C_23
REMARK    8  A    between atoms: S_24  and  C_25
REMARK                            x       y       z     vdW  Elec       q    Type
REMARK                         _______ _______ _______ _____ _____    ______ ____
ROOT
ATOM      1  C   UNL     1       2.661   6.568  18.818  0.00  0.00    +0.000 C 
ATOM      2  O   UNL     1       2.935   6.586  20.018  0.00  0.00    +0.000 OA
ATOM      3  N   UNL     1       1.998   7.569  18.130  0.00  0.00    +0.000 N 
ATOM      4  H   UNL     1       1.724   7.364  17.173  0.00  0.00    +0.000 HD
ENDROOT
BRANCH   3   5
ATOM      5  C   UNL     1       1.801   8.913  18.578  0.00  0.00    +0.000 A 
ATOM      6  C   UNL     1       2.389  10.016  17.919  0.00  0.00    +0.000 A 
ATOM      7  C   UNL     1       1.913  11.319  18.115  0.00  0.00    +0.000 A 
ATOM      8  C   UNL     1       0.852  11.460  18.974  0.00  0.00    +0.000 A 
ATOM      9  C   UNL     1       0.426  10.423  19.802  0.00  0.00    +0.000 A 
ATOM     10  C   UNL     1       0.863   9.123  19.597  0.00  0.00    +0.000 A 
ATOM     11  N   UNL     1      -0.668  10.887  20.601  0.00  0.00    +0.000 N 
ATOM     12  C   UNL     1      -0.282  11.384  21.929  0.00  0.00    +0.000 C 
ATOM     13  C   UNL     1      -1.147  12.049  19.894  0.00  0.00    +0.000 A 
ATOM     14  O   UNL     1      -2.212  12.616  20.080  0.00  0.00    +0.000 OA
ATOM     15  N   UNL     1      -0.072  12.493  19.107  0.00  0.00    +0.000 N 
ATOM     16  C   UNL     1       0.012  13.821  18.605  0.00  0.00    +0.000 C 
ENDBRANCH   3   5
BRANCH   1  22
ATOM     17  C   UNL     1       4.368   4.909  17.863  0.00  0.00    +0.000 A 
ATOM     18  C   UNL     1       4.595   3.614  17.356  0.00  0.00    +0.000 A 
ATOM     19  C   UNL     1       3.534   2.759  17.055  0.00  0.00    +0.000 A 
ATOM     20  C   UNL     1       2.228   3.180  17.271  0.00  0.00    +0.000 A 
ATOM     21  C   UNL     1       1.987   4.451  17.789  0.00  0.00    +0.000 A 
ATOM     22  C   UNL     1       3.046   5.334  18.082  0.00  0.00    +0.000 A 
BRANCH  17  24
ATOM     23  C   UNL     1       6.276   5.471  19.376  0.00  0.00    +0.000 C 
ATOM     24  N   UNL     1       5.515   5.734  18.139  0.00  0.00    +0.000 N 
BRANCH  24  25
ATOM     25  S   UNL     1       6.380   6.336  16.807  0.00  0.00    +0.000 S 
ATOM     26  C   UNL     1       7.257   7.754  17.448  0.00  0.00    +0.000 C 
ATOM     27  O   UNL     1       7.344   5.322  16.440  0.00  0.00    +0.000 OA
ATOM     28  O   UNL     1       5.417   6.814  15.842  0.00  0.00    +0.000 OA
ENDBRANCH  24  25
ENDBRANCH  17  24
ENDBRANCH   1  22
TORSDOF 4
ENDMDL
MODEL 4
REMARK VINA RESULT:      -7.6      1.680      1.965
REMARK  Name = 
REMARK  8 active torsions:
REMARK  status: ('A' for Active; 'I' for Inactive)
REMARK    1  A    between atoms: C_1  and  N_2
REMARK    2  A    between atoms: N_2  and  C_3
REMARK    3  A    between atoms: N_2  and  S_24
REMARK    4  A    between atoms: C_8  and  C_9
REMARK    5  A    between atoms: N_11  and  C_12
REMARK    6  A    between atoms: N_18  and  C_19
REMARK    7  A    between atoms: N_22  and  C_23
REMARK    8  A    between atoms: S_24  and  C_25
REMARK                            x       y       z     vdW  Elec       q    Type
REMARK                         _______ _______ _______ _____ _____    ______ ____
ROOT
ATOM      1  C   UNL     1       2.836   7.616  18.121  0.00  0.00    +0.000 C 
ATOM      2  O   UNL     1       2.519   8.413  17.239  0.00  0.00    +0.000 OA
ATOM      3  N   UNL     1       2.428   7.675  19.443  0.00  0.00    +0.000 N 
ATOM      4  H   UNL     1       2.871   7.028  20.089  0.00  0.00    +0.000 HD
ENDROOT
BRANCH   3   5
ATOM      5  C   UNL     1       1.337   8.447  19.955  0.00  0.00    +0.000 A 
ATOM      6  C   UNL     1       0.760   8.180  21.217  0.00  0.00    +0.000 A 
ATOM      7  C   UNL     1      -0.031   9.134  21.872  0.00  0.00    +0.000 A 
ATOM      8  C   UNL     1      -0.209  10.329  21.222  0.00  0.00    +0.000 A 
ATOM      9  C   UNL     1       0.153  10.510  19.889  0.00  0.00    +0.000 A 
ATOM     10  C   UNL     1       0.964   9.590  19.240  0.00  0.00    +0.000 A 
ATOM     11  N   UNL     1      -0.191  11.842  19.491  0.00  0.00    +0.000 N 
ATOM     12  C   UNL     1      -1.501  11.963  18.837  0.00  0.00    +0.000 C 
ATOM     13  C   UNL     1      -0.331  12.552  20.739  0.00  0.00    +0.000 A 
ATOM     14  O   UNL     1      -0.377  13.765  20.875  0.00  0.00    +0.000 OA
ATOM     15  N   UNL     1      -0.593  11.575  21.712  0.00  0.00    +0.000 N 
ATOM     16  C   UNL     1      -1.206  11.882  22.958  0.00  0.00    +0.000 C 
ENDBRANCH   3   5
BRANCH   1  22
ATOM     17  C   UNL     1       3.492   5.159  17.783  0.00  0.00    +0.000 A 
ATOM     18  C   UNL     1       4.368   4.250  17.157  0.00  0.00    +0.000 A 
ATOM     19  C   UNL     1       5.513   4.690  16.491  0.00  0.00    +0.000 A 
ATOM     20  C   UNL     1       5.791   6.050  16.425  0.00  0.00    +0.000 A 
ATOM     21  C   UNL     1       4.924   6.963  17.023  0.00  0.00    +0.000 A 
ATOM     22  C   UNL     1       3.774   6.535  17.715  0.00  0.00    +0.000 A 
BRANCH  17  24
ATOM     23  C   UNL     1       1.279   4.008  17.638  0.00  0.00    +0.000 C 
ATOM     24  N   UNL     1       2.339   4.625  18.459  0.00  0.00    +0.000 N 
BRANCH  24  25
ATOM     25  S   UNL     1       2.569   4.007  20.024  0.00  0.00    +0.000 S 
ATOM     26  C   UNL     1       1.162   2.942  20.296  0.00  0.00    +0.000 C 
ATOM     27  O   UNL     1       3.765   3.195  19.981  0.00  0.00    +0.000 OA
ATOM     28  O   UNL     1       2.468   5.114  20.948  0.00  0.00    +0.000 OA
ENDBRANCH  24  25
ENDBRANCH  17  24
ENDBRANCH   1  22
TORSDOF 4
ENDMDL
MODEL 5
REMARK VINA RESULT:      -7.6      2.379      3.700
REMARK  Name = 
REMARK  8 active torsions:
REMARK  status: ('A' for Active; 'I' for Inactive)
REMARK    1  A    between atoms: C_1  and  N_2
REMARK    2  A    between atoms: N_2  and  C_3
REMARK    3  A    between atoms: N_2  and  S_24
REMARK    4  A    between atoms: C_8  and  C_9
REMARK    5  A    between atoms: N_11  and  C_12
REMARK    6  A    between atoms: N_18  and  C_19
REMARK    7  A    between atoms: N_22  and  C_23
REMARK    8  A    between atoms: S_24  and  C_25
REMARK                            x       y       z     vdW  Elec       q    Type
REMARK                         _______ _______ _______ _____ _____    ______ ____
ROOT
ATOM      1  C   UNL     1       2.251   5.660  19.067  0.00  0.00    +0.000 C 
ATOM      2  O   UNL     1       1.752   5.598  17.944  0.00  0.00    +0.000 OA
ATOM      3  N   UNL     1       2.548   6.825  19.753  0.00  0.00    +0.000 N 
ATOM      4  H   UNL     1       3.077   6.728  20.615  0.00  0.00    +0.000 HD
ENDROOT
BRANCH   3   5
ATOM      5  C   UNL     1       2.052   8.132  19.449  0.00  0.00    +0.000 A 
ATOM      6  C   UNL     1       1.973   8.614  18.123  0.00  0.00    +0.000 A 
ATOM      7  C   UNL     1       1.165   9.709  17.794  0.00  0.00    +0.000 A 
ATOM      8  C   UNL     1       0.461  10.281  18.824  0.00  0.00    +0.000 A 
ATOM      9  C   UNL     1       0.715   9.969  20.158  0.00  0.00    +0.000 A 
ATOM     10  C   UNL     1       1.485   8.866  20.497  0.00  0.00    +0.000 A 
ATOM     11  N   UNL     1      -0.150  10.751  20.990  0.00  0.00    +0.000 N 
ATOM     12  C   UNL     1       0.447  11.999  21.484  0.00  0.00    +0.000 C 
ATOM     13  C   UNL     1      -1.204  11.169  20.099  0.00  0.00    +0.000 A 
ATOM     14  O   UNL     1      -2.279  11.646  20.430  0.00  0.00    +0.000 OA
ATOM     15  N   UNL     1      -0.668  11.096  18.804  0.00  0.00    +0.000 N 
ATOM     16  C   UNL     1      -1.219  11.813  17.706  0.00  0.00    +0.000 C 
ENDBRANCH   3   5
BRANCH   1  22
ATOM     17  C   UNL     1       3.739   3.597  19.398  0.00  0.00    +0.000 A 
ATOM     18  C   UNL     1       4.069   2.503  20.223  0.00  0.00    +0.000 A 
ATOM     19  C   UNL     1       3.273   2.155  21.315  0.00  0.00    +0.000 A 
ATOM     20  C   UNL     1       2.142   2.905  21.611  0.00  0.00    +0.000 A 
ATOM     21  C   UNL     1       1.813   4.002  20.815  0.00  0.00    +0.000 A 
ATOM     22  C   UNL     1       2.595   4.357  19.698  0.00  0.00    +0.000 A 
BRANCH  17  24
ATOM     23  C   UNL     1       4.088   3.640  16.924  0.00  0.00    +0.000 C 
ATOM     24  N   UNL     1       4.605   3.885  18.285  0.00  0.00    +0.000 N 
BRANCH  24  25
ATOM     25  S   UNL     1       5.726   5.146  18.475  0.00  0.00    +0.000 S 
ATOM     26  C   UNL     1       7.125   4.655  17.479  0.00  0.00    +0.000 C 
ATOM     27  O   UNL     1       5.131   6.328  17.890  0.00  0.00    +0.000 OA
ATOM     28  O   UNL     1       6.149   5.147  19.857  0.00  0.00    +0.000 OA
ENDBRANCH  24  25
ENDBRANCH  17  24
ENDBRANCH   1  22
TORSDOF 4
ENDMDL
MODEL 6
REMARK VINA RESULT:      -7.6      2.791      8.464
REMARK  Name = 
REMARK  8 active torsions:
REMARK  status: ('A' for Active; 'I' for Inactive)
REMARK    1  A    between atoms: C_1  and  N_2
REMARK    2  A    between atoms: N_2  and  C_3
REMARK    3  A    between atoms: N_2  and  S_24
REMARK    4  A    between atoms: C_8  and  C_9
REMARK    5  A    between atoms: N_11  and  C_12
REMARK    6  A    between atoms: N_18  and  C_19
REMARK    7  A    between atoms: N_22  and  C_23
REMARK    8  A    between atoms: S_24  and  C_25
REMARK                            x       y       z     vdW  Elec       q    Type
REMARK                         _______ _______ _______ _____ _____    ______ ____
ROOT
ATOM      1  C   UNL     1       0.255   9.794  20.079  0.00  0.00    +0.000 C 
ATOM      2  O   UNL     1      -0.410   9.782  19.044  0.00  0.00    +0.000 OA
ATOM      3  N   UNL     1       1.250   8.889  20.407  0.00  0.00    +0.000 N 
ATOM      4  H   UNL     1       1.625   8.942  21.350  0.00  0.00    +0.000 HD
ENDROOT
BRANCH   3   5
ATOM      5  C   UNL     1       1.908   7.995  19.505  0.00  0.00    +0.000 A 
ATOM      6  C   UNL     1       2.369   8.415  18.237  0.00  0.00    +0.000 A 
ATOM      7  C   UNL     1       3.318   7.672  17.524  0.00  0.00    +0.000 A 
ATOM      8  C   UNL     1       3.770   6.523  18.124  0.00  0.00    +0.000 A 
ATOM      9  C   UNL     1       3.152   5.982  19.250  0.00  0.00    +0.000 A 
ATOM     10  C   UNL     1       2.236   6.721  19.984  0.00  0.00    +0.000 A 
ATOM     11  N   UNL     1       3.826   4.772  19.613  0.00  0.00    +0.000 N 
ATOM     12  C   UNL     1       3.220   3.550  19.066  0.00  0.00    +0.000 C 
ATOM     13  C   UNL     1       5.107   4.877  18.957  0.00  0.00    +0.000 A 
ATOM     14  O   UNL     1       6.091   4.191  19.185  0.00  0.00    +0.000 OA
ATOM     15  N   UNL     1       4.925   5.779  17.896  0.00  0.00    +0.000 N 
ATOM     16  C   UNL     1       5.797   5.827  16.774  0.00  0.00    +0.000 C 
ENDBRANCH   3   5
BRANCH   1  22
ATOM     17  C   UNL     1      -0.050  12.236  20.804  0.00  0.00    +0.000 A 
ATOM     18  C   UNL     1      -0.620  13.125  21.737  0.00  0.00    +0.000 A 
ATOM     19  C   UNL     1      -1.208  12.659  22.913  0.00  0.00    +0.000 A 
ATOM     20  C   UNL     1      -1.250  11.295  23.170  0.00  0.00    +0.000 A 
ATOM     21  C   UNL     1      -0.706  10.401  22.248  0.00  0.00    +0.000 A 
ATOM     22  C   UNL     1      -0.093  10.855  21.063  0.00  0.00    +0.000 A 
BRANCH  17  24
ATOM     23  C   UNL     1      -0.349  13.386  18.606  0.00  0.00    +0.000 C 
ATOM     24  N   UNL     1       0.547  12.796  19.619  0.00  0.00    +0.000 N 
BRANCH  24  25
ATOM     25  S   UNL     1       2.099  13.467  19.771  0.00  0.00    +0.000 S 
ATOM     26  C   UNL     1       1.833  15.232  19.695  0.00  0.00    +0.000 C 
ATOM     27  O   UNL     1       2.575  13.127  21.094  0.00  0.00    +0.000 OA
ATOM     28  O   UNL     1       2.855  13.086  18.600  0.00  0.00    +0.000 OA
ENDBRANCH  24  25
ENDBRANCH  17  24
ENDBRANCH   1  22
TORSDOF 4
ENDMDL
MODEL 7
REMARK VINA RESULT:      -7.6      2.870      8.387
REMARK  Name = 
REMARK  8 active torsions:
REMARK  status: ('A' for Active; 'I' for Inactive)
REMARK    1  A    between atoms: C_1  and  N_2
REMARK    2  A    between atoms: N_2  and  C_3
REMARK    3  A    between atoms: N_2  and  S_24
REMARK    4  A    between atoms: C_8  and  C_9
REMARK    5  A    between atoms: N_11  and  C_12
REMARK    6  A    between atoms: N_18  and  C_19
REMARK    7  A    between atoms: N_22  and  C_23
REMARK    8  A    between atoms: S_24  and  C_25
REMARK                            x       y       z     vdW  Elec       q    Type
REMARK                         _______ _______ _______ _____ _____    ______ ____
ROOT
ATOM      1  C   UNL     1       0.600   9.415  19.911  0.00  0.00    +0.000 C 
ATOM      2  O   UNL     1       0.210   9.708  18.781  0.00  0.00    +0.000 OA
ATOM      3  N   UNL     1       1.408   8.337  20.228  0.00  0.00    +0.000 N 
ATOM      4  H   UNL     1       1.544   8.141  21.216  0.00  0.00    +0.000 HD
ENDROOT
BRANCH   3   5
ATOM      5  C   UNL     1       2.194   7.572  19.310  0.00  0.00    +0.000 A 
ATOM      6  C   UNL     1       2.579   8.081  18.049  0.00  0.00    +0.000 A 
ATOM      7  C   UNL     1       3.630   7.506  17.322  0.00  0.00    +0.000 A 
ATOM      8  C   UNL     1       4.256   6.432  17.901  0.00  0.00    +0.000 A 
ATOM      9  C   UNL     1       3.734   5.781  19.017  0.00  0.00    +0.000 A 
ATOM     10  C   UNL     1       2.718   6.357  19.766  0.00  0.00    +0.000 A 
ATOM     11  N   UNL     1       4.590   4.685  19.358  0.00  0.00    +0.000 N 
ATOM     12  C   UNL     1       4.179   3.394  18.791  0.00  0.00    +0.000 C 
ATOM     13  C   UNL     1       5.836   4.999  18.703  0.00  0.00    +0.000 A 
ATOM     14  O   UNL     1       6.916   4.470  18.918  0.00  0.00    +0.000 OA
ATOM     15  N   UNL     1       5.512   5.880  17.659  0.00  0.00    +0.000 N 
ATOM     16  C   UNL     1       6.363   6.082  16.537  0.00  0.00    +0.000 C 
ENDBRANCH   3   5
BRANCH   1  22
ATOM     17  C   UNL     1      -0.200  11.650  20.885  0.00  0.00    +0.000 A 
ATOM     18  C   UNL     1      -0.873  12.302  21.937  0.00  0.00    +0.000 A 
ATOM     19  C   UNL     1      -1.221  11.621  23.104  0.00  0.00    +0.000 A 
ATOM     20  C   UNL     1      -0.917  10.271  23.232  0.00  0.00    +0.000 A 
ATOM     21  C   UNL     1      -0.269   9.607  22.191  0.00  0.00    +0.000 A 
ATOM     22  C   UNL     1       0.107  10.283  21.014  0.00  0.00    +0.000 A 
BRANCH  17  24
ATOM     23  C   UNL     1      -0.971  13.000  18.929  0.00  0.00    +0.000 C 
ATOM     24  N   UNL     1       0.134  12.424  19.718  0.00  0.00    +0.000 N 
BRANCH  24  25
ATOM     25  S   UNL     1       1.600  13.282  19.746  0.00  0.00    +0.000 S 
ATOM     26  C   UNL     1       2.528  12.628  18.367  0.00  0.00    +0.000 C 
ATOM     27  O   UNL     1       1.279  14.667  19.474  0.00  0.00    +0.000 OA
ATOM     28  O   UNL     1       2.296  12.916  20.958  0.00  0.00    +0.000 OA
ENDBRANCH  24  25
ENDBRANCH  17  24
ENDBRANCH   1  22
TORSDOF 4
ENDMDL
MODEL 8
REMARK VINA RESULT:      -7.6      1.407      1.811
REMARK  Name = 
REMARK  8 active torsions:
REMARK  status: ('A' for Active; 'I' for Inactive)
REMARK    1  A    between atoms: C_1  and  N_2
REMARK    2  A    between atoms: N_2  and  C_3
REMARK    3  A    between atoms: N_2  and  S_24
REMARK    4  A    between atoms: C_8  and  C_9
REMARK    5  A    between atoms: N_11  and  C_12
REMARK    6  A    between atoms: N_18  and  C_19
REMARK    7  A    between atoms: N_22  and  C_23
REMARK    8  A    between atoms: S_24  and  C_25
REMARK                            x       y       z     vdW  Elec       q    Type
REMARK                         _______ _______ _______ _____ _____    ______ ____
ROOT
ATOM      1  C   UNL     1       2.637   6.803  18.669  0.00  0.00    +0.000 C 
ATOM      2  O   UNL     1       2.345   6.237  19.721  0.00  0.00    +0.000 OA
ATOM      3  N   UNL     1       2.047   7.959  18.187  0.00  0.00    +0.000 N 
ATOM      4  H   UNL     1       2.296   8.242  17.244  0.00  0.00    +0.000 HD
ENDROOT
BRANCH   3   5
ATOM      5  C   UNL     1       1.245   8.874  18.940  0.00  0.00    +0.000 A 
ATOM      6  C   UNL     1       1.395   9.027  20.336  0.00  0.00    +0.000 A 
ATOM      7  C   UNL     1       0.895  10.154  21.003  0.00  0.00    +0.000 A 
ATOM      8  C   UNL     1       0.258  11.089  20.227  0.00  0.00    +0.000 A 
ATOM      9  C   UNL     1      -0.102  10.836  18.905  0.00  0.00    +0.000 A 
ATOM     10  C   UNL     1       0.414   9.744  18.223  0.00  0.00    +0.000 A 
ATOM     11  N   UNL     1      -0.779  11.984  18.380  0.00  0.00    +0.000 N 
ATOM     12  C   UNL     1      -2.244  11.920  18.473  0.00  0.00    +0.000 C 
ATOM     13  C   UNL     1      -0.396  13.051  19.271  0.00  0.00    +0.000 A 
ATOM     14  O   UNL     1      -0.541  14.247  19.067  0.00  0.00    +0.000 OA
ATOM     15  N   UNL     1      -0.013  12.433  20.472  0.00  0.00    +0.000 N 
ATOM     16  C   UNL     1       0.018  13.127  21.714  0.00  0.00    +0.000 C 
ENDBRANCH   3   5
BRANCH   1  22
ATOM     17  C   UNL     1       3.781   4.757  17.628  0.00  0.00    +0.000 A 
ATOM     18  C   UNL     1       4.673   4.279  16.647  0.00  0.00    +0.000 A 
ATOM     19  C   UNL     1       5.468   5.153  15.905  0.00  0.00    +0.000 A 
ATOM     20  C   UNL     1       5.373   6.522  16.120  0.00  0.00    +0.000 A 
ATOM     21  C   UNL     1       4.482   7.012  17.073  0.00  0.00    +0.000 A 
ATOM     22  C   UNL     1       3.685   6.143  17.844  0.00  0.00    +0.000 A 
BRANCH  17  24
ATOM     23  C   UNL     1       1.752   3.304  17.746  0.00  0.00    +0.000 C 
ATOM     24  N   UNL     1       3.003   3.791  18.358  0.00  0.00    +0.000 N 
BRANCH  24  25
ATOM     25  S   UNL     1       3.845   2.716  19.369  0.00  0.00    +0.000 S 
ATOM     26  C   UNL     1       2.901   2.696  20.885  0.00  0.00    +0.000 C 
ATOM     27  O   UNL     1       3.761   1.410  18.753  0.00  0.00    +0.000 OA
ATOM     28  O   UNL     1       5.131   3.308  19.659  0.00  0.00    +0.000 OA
ENDBRANCH  24  25
ENDBRANCH  17  24
ENDBRANCH   1  22
TORSDOF 4
ENDMDL
MODEL 9
REMARK VINA RESULT:      -7.6      2.630      3.652
REMARK  Name = 
REMARK  8 active torsions:
REMARK  status: ('A' for Active; 'I' for Inactive)
REMARK    1  A    between atoms: C_1  and  N_2
REMARK    2  A    between atoms: N_2  and  C_3
REMARK    3  A    between atoms: N_2  and  S_24
REMARK    4  A    between atoms: C_8  and  C_9
REMARK    5  A    between atoms: N_11  and  C_12
REMARK    6  A    between atoms: N_18  and  C_19
REMARK    7  A    between atoms: N_22  and  C_23
REMARK    8  A    between atoms: S_24  and  C_25
REMARK                            x       y       z     vdW  Elec       q    Type
REMARK                         _______ _______ _______ _____ _____    ______ ____
ROOT
ATOM      1  C   UNL     1       3.164   6.885  18.028  0.00  0.00    +0.000 C 
ATOM      2  O   UNL     1       3.900   7.550  17.299  0.00  0.00    +0.000 OA
ATOM      3  N   UNL     1       2.329   7.395  19.007  0.00  0.00    +0.000 N 
ATOM      4  H   UNL     1       1.877   6.722  19.620  0.00  0.00    +0.000 HD
ENDROOT
BRANCH   3   5
ATOM      5  C   UNL     1       1.918   8.759  19.140  0.00  0.00    +0.000 A 
ATOM      6  C   UNL     1       2.258   9.740  18.182  0.00  0.00    +0.000 A 
ATOM      7  C   UNL     1       1.567  10.956  18.108  0.00  0.00    +0.000 A 
ATOM      8  C   UNL     1       0.550  11.136  19.011  0.00  0.00    +0.000 A 
ATOM      9  C   UNL     1       0.366  10.287  20.101  0.00  0.00    +0.000 A 
ATOM     10  C   UNL     1       1.019   9.065  20.168  0.00  0.00    +0.000 A 
ATOM     11  N   UNL     1      -0.745  10.756  20.872  0.00  0.00    +0.000 N 
ATOM     12  C   UNL     1      -0.380  11.626  21.998  0.00  0.00    +0.000 C 
ATOM     13  C   UNL     1      -1.466  11.610  19.961  0.00  0.00    +0.000 A 
ATOM     14  O   UNL     1      -2.604  12.026  20.112  0.00  0.00    +0.000 OA
ATOM     15  N   UNL     1      -0.537  12.007  18.986  0.00  0.00    +0.000 N 
ATOM     16  C   UNL     1      -0.723  13.162  18.177  0.00  0.00    +0.000 C 
ENDBRANCH   3   5
BRANCH   1  22
ATOM     17  C   UNL     1       4.410   4.644  17.952  0.00  0.00    +0.000 A 
ATOM     18  C   UNL     1       4.310   3.239  17.992  0.00  0.00    +0.000 A 
ATOM     19  C   UNL     1       3.071   2.601  17.918  0.00  0.00    +0.000 A 
ATOM     20  C   UNL     1       1.910   3.357  17.818  0.00  0.00    +0.000 A 
ATOM     21  C   UNL     1       1.992   4.749  17.796  0.00  0.00    +0.000 A 
ATOM     22  C   UNL     1       3.235   5.410  17.852  0.00  0.00    +0.000 A 
BRANCH  17  24
ATOM     23  C   UNL     1       6.446   5.152  19.308  0.00  0.00    +0.000 C 
ATOM     24  N   UNL     1       5.724   5.227  18.024  0.00  0.00    +0.000 N 
BRANCH  24  25
ATOM     25  S   UNL     1       6.658   5.220  16.605  0.00  0.00    +0.000 S 
ATOM     26  C   UNL     1       5.579   4.526  15.362  0.00  0.00    +0.000 C 
ATOM     27  O   UNL     1       6.923   6.602  16.270  0.00  0.00    +0.000 OA
ATOM     28  O   UNL     1       7.749   4.294  16.807  0.00  0.00    +0.000 OA
ENDBRANCH  24  25
ENDBRANCH  17  24
ENDBRANCH   1  22
TORSDOF 4
ENDMDL
