MODEL 1
REMARK VINA RESULT:      -7.2      0.000      0.000
REMARK  Name = 
REMARK  5 active torsions:
REMARK  status: ('A' for Active; 'I' for Inactive)
REMARK    1  A    between atoms: C_2  and  C_3
REMARK    2  A    between atoms: N_5  and  C_6
REMARK    3  A    between atoms: C_6  and  N_7
REMARK    4  A    between atoms: C_6  and  C_12
REMARK    5  A    between atoms: C_8  and  C_10
REMARK                            x       y       z     vdW  Elec       q    Type
REMARK                         _______ _______ _______ _____ _____    ______ ____
ROOT
ATOM      1  C   UNL     1       6.209   5.063  16.835  0.00  0.00    +0.000 C 
ENDROOT
BRANCH   1   2
ATOM      2  C   UNL     1       4.984   4.820  17.705  0.00  0.00    +0.000 A 
ATOM      3  C   UNL     1       5.016   3.879  18.750  0.00  0.00    +0.000 A 
ATOM      4  C   UNL     1       3.889   3.663  19.554  0.00  0.00    +0.000 A 
ATOM      5  C   UNL     1       2.719   4.381  19.316  0.00  0.00    +0.000 A 
ATOM      6 BR   UNL     1       1.197   4.102  20.400  0.00  0.00    +0.000 Br
ATOM      7  C   UNL     1       2.661   5.304  18.278  0.00  0.00    +0.000 A 
ATOM      8  C   UNL     1       3.784   5.516  17.477  0.00  0.00    +0.000 A 
ENDBRANCH   1   2
BRANCH   1  11
ATOM      9  C   UNL     1       6.916   4.752  14.497  0.00  0.00    +0.000 C 
ATOM     10  O   UNL     1       7.928   5.432  14.590  0.00  0.00    +0.000 OA
ATOM     11  N   UNL     1       6.035   4.554  15.511  0.00  0.00    +0.000 N 
ATOM     12  H   UNL     1       5.235   3.941  15.394  0.00  0.00    +0.000 HD
BRANCH   9  14
ATOM     13  C   UNL     1       5.215   3.761  13.041  0.00  0.00    +0.000 C 
ATOM     14  C   UNL     1       6.503   4.065  13.247  0.00  0.00    +0.000 C 
ENDBRANCH   9  14
ENDBRANCH   1  11
BRANCH   1  15
ATOM     15  N   UNL     1       6.557   6.473  16.792  0.00  0.00    +0.000 N 
ATOM     16  C   UNL     1       7.419   7.058  17.685  0.00  0.00    +0.000 C 
ATOM     17  O   UNL     1       7.895   6.476  18.657  0.00  0.00    +0.000 OA
ATOM     18  H   UNL     1       6.270   6.978  15.971  0.00  0.00    +0.000 HD
BRANCH  16  19
ATOM     19  C   UNL     1       7.713   8.482  17.408  0.00  0.00    +0.000 C 
ATOM     20  C   UNL     1       8.462   9.165  18.283  0.00  0.00    +0.000 C 
ENDBRANCH  16  19
ENDBRANCH   1  15
TORSDOF 5
ENDMDL
MODEL 2
REMARK VINA RESULT:      -7.1      0.085      1.140
REMARK  Name = 
REMARK  5 active torsions:
REMARK  status: ('A' for Active; 'I' for Inactive)
REMARK    1  A    between atoms: C_2  and  C_3
REMARK    2  A    between atoms: N_5  and  C_6
REMARK    3  A    between atoms: C_6  and  N_7
REMARK    4  A    between atoms: C_6  and  C_12
REMARK    5  A    between atoms: C_8  and  C_10
REMARK                            x       y       z     vdW  Elec       q    Type
REMARK                         _______ _______ _______ _____ _____    ______ ____
ROOT
ATOM      1  C   UNL     1       6.147   5.098  16.800  0.00  0.00    +0.000 C 
ENDROOT
BRANCH   1   2
ATOM      2  C   UNL     1       4.922   4.845  17.668  0.00  0.00    +0.000 A 
ATOM      3  C   UNL     1       3.748   5.602  17.499  0.00  0.00    +0.000 A 
ATOM      4  C   UNL     1       2.621   5.361  18.295  0.00  0.00    +0.000 A 
ATOM      5  C   UNL     1       2.659   4.367  19.270  0.00  0.00    +0.000 A 
ATOM      6 BR   UNL     1       1.140   4.031  20.342  0.00  0.00    +0.000 Br
ATOM      7  C   UNL     1       3.815   3.619  19.465  0.00  0.00    +0.000 A 
ATOM      8  C   UNL     1       4.937   3.862  18.673  0.00  0.00    +0.000 A 
ENDBRANCH   1   2
BRANCH   1  11
ATOM      9  C   UNL     1       6.872   4.786  14.468  0.00  0.00    +0.000 C 
ATOM     10  O   UNL     1       7.926   5.393  14.591  0.00  0.00    +0.000 OA
ATOM     11  N   UNL     1       5.962   4.628  15.463  0.00  0.00    +0.000 N 
ATOM     12  H   UNL     1       5.124   4.074  15.321  0.00  0.00    +0.000 HD
BRANCH   9  14
ATOM     13  C   UNL     1       5.194   3.660  13.083  0.00  0.00    +0.000 C 
ATOM     14  C   UNL     1       6.434   4.154  13.197  0.00  0.00    +0.000 C 
ENDBRANCH   9  14
ENDBRANCH   1  11
BRANCH   1  15
ATOM     15  N   UNL     1       6.511   6.504  16.796  0.00  0.00    +0.000 N 
ATOM     16  C   UNL     1       7.406   7.047  17.684  0.00  0.00    +0.000 C 
ATOM     17  O   UNL     1       7.900   6.427  18.621  0.00  0.00    +0.000 OA
ATOM     18  H   UNL     1       6.209   7.041  16.000  0.00  0.00    +0.000 HD
BRANCH  16  19
ATOM     19  C   UNL     1       7.710   8.476  17.447  0.00  0.00    +0.000 C 
ATOM     20  C   UNL     1       8.474   9.126  18.335  0.00  0.00    +0.000 C 
ENDBRANCH  16  19
ENDBRANCH   1  15
TORSDOF 5
ENDMDL
MODEL 3
REMARK VINA RESULT:      -7.1      0.960      1.090
REMARK  Name = 
REMARK  5 active torsions:
REMARK  status: ('A' for Active; 'I' for Inactive)
REMARK    1  A    between atoms: C_2  and  C_3
REMARK    2  A    between atoms: N_5  and  C_6
REMARK    3  A    between atoms: C_6  and  N_7
REMARK    4  A    between atoms: C_6  and  C_12
REMARK    5  A    between atoms: C_8  and  C_10
REMARK                            x       y       z     vdW  Elec       q    Type
REMARK                         _______ _______ _______ _____ _____    ______ ____
ROOT
ATOM      1  C   UNL     1       5.874   4.329  17.027  0.00  0.00    +0.000 C 
ENDROOT
BRANCH   1   2
ATOM      2  C   UNL     1       4.648   4.054  17.887  0.00  0.00    +0.000 A 
ATOM      3  C   UNL     1       4.767   3.385  19.119  0.00  0.00    +0.000 A 
ATOM      4  C   UNL     1       3.638   3.141  19.912  0.00  0.00    +0.000 A 
ATOM      5  C   UNL     1       2.381   3.557  19.478  0.00  0.00    +0.000 A 
ATOM      6 BR   UNL     1       0.854   3.238  20.544  0.00  0.00    +0.000 Br
ATOM      7  C   UNL     1       2.240   4.204  18.255  0.00  0.00    +0.000 A 
ATOM      8  C   UNL     1       3.365   4.445  17.466  0.00  0.00    +0.000 A 
ENDBRANCH   1   2
BRANCH   1  11
ATOM      9  C   UNL     1       6.469   4.534  14.647  0.00  0.00    +0.000 C 
ATOM     10  O   UNL     1       7.615   4.914  14.844  0.00  0.00    +0.000 OA
ATOM     11  N   UNL     1       5.574   4.265  15.631  0.00  0.00    +0.000 N 
ATOM     12  H   UNL     1       4.650   3.907  15.412  0.00  0.00    +0.000 HD
BRANCH   9  14
ATOM     13  C   UNL     1       6.371   3.376  12.491  0.00  0.00    +0.000 C 
ATOM     14  C   UNL     1       5.894   4.338  13.291  0.00  0.00    +0.000 C 
ENDBRANCH   9  14
ENDBRANCH   1  11
BRANCH   1  15
ATOM     15  N   UNL     1       6.475   5.609  17.356  0.00  0.00    +0.000 N 
ATOM     16  C   UNL     1       7.503   5.744  18.255  0.00  0.00    +0.000 C 
ATOM     17  O   UNL     1       7.940   4.821  18.937  0.00  0.00    +0.000 OA
ATOM     18  H   UNL     1       6.222   6.386  16.767  0.00  0.00    +0.000 HD
BRANCH  16  19
ATOM     19  C   UNL     1       8.035   7.120  18.374  0.00  0.00    +0.000 C 
ATOM     20  C   UNL     1       7.636   8.042  17.487  0.00  0.00    +0.000 C 
ENDBRANCH  16  19
ENDBRANCH   1  15
TORSDOF 5
ENDMDL
MODEL 4
REMARK VINA RESULT:      -7.1      0.918      1.480
REMARK  Name = 
REMARK  5 active torsions:
REMARK  status: ('A' for Active; 'I' for Inactive)
REMARK    1  A    between atoms: C_2  and  C_3
REMARK    2  A    between atoms: N_5  and  C_6
REMARK    3  A    between atoms: C_6  and  N_7
REMARK    4  A    between atoms: C_6  and  C_12
REMARK    5  A    between atoms: C_8  and  C_10
REMARK                            x       y       z     vdW  Elec       q    Type
REMARK                         _______ _______ _______ _____ _____    ______ ____
ROOT
ATOM      1  C   UNL     1       6.009   4.426  16.980  0.00  0.00    +0.000 C 
ENDROOT
BRANCH   1   2
ATOM      2  C   UNL     1       4.739   4.118  17.761  0.00  0.00    +0.000 A 
ATOM      3  C   UNL     1       3.470   4.330  17.190  0.00  0.00    +0.000 A 
ATOM      4  C   UNL     1       2.304   4.038  17.908  0.00  0.00    +0.000 A 
ATOM      5  C   UNL     1       2.395   3.539  19.205  0.00  0.00    +0.000 A 
ATOM      6 BR   UNL     1       0.826   3.136  20.179  0.00  0.00    +0.000 Br
ATOM      7  C   UNL     1       3.638   3.339  19.795  0.00  0.00    +0.000 A 
ATOM      8  C   UNL     1       4.798   3.631  19.078  0.00  0.00    +0.000 A 
ENDBRANCH   1   2
BRANCH   1  11
ATOM      9  C   UNL     1       6.714   4.759  14.645  0.00  0.00    +0.000 C 
ATOM     10  O   UNL     1       7.808   5.231  14.919  0.00  0.00    +0.000 OA
ATOM     11  N   UNL     1       5.794   4.380  15.568  0.00  0.00    +0.000 N 
ATOM     12  H   UNL     1       4.919   3.950  15.287  0.00  0.00    +0.000 HD
BRANCH   9  14
ATOM     13  C   UNL     1       6.020   3.318  12.790  0.00  0.00    +0.000 C 
ATOM     14  C   UNL     1       6.235   4.556  13.254  0.00  0.00    +0.000 C 
ENDBRANCH   9  14
ENDBRANCH   1  11
BRANCH   1  15
ATOM     15  N   UNL     1       6.568   5.710  17.365  0.00  0.00    +0.000 N 
ATOM     16  C   UNL     1       7.580   5.841  18.282  0.00  0.00    +0.000 C 
ATOM     17  O   UNL     1       8.036   4.905  18.934  0.00  0.00    +0.000 OA
ATOM     18  H   UNL     1       6.299   6.500  16.802  0.00  0.00    +0.000 HD
BRANCH  16  19
ATOM     19  C   UNL     1       8.070   7.226  18.459  0.00  0.00    +0.000 C 
ATOM     20  C   UNL     1       7.742   8.145  17.541  0.00  0.00    +0.000 C 
ENDBRANCH  16  19
ENDBRANCH   1  15
TORSDOF 5
ENDMDL
MODEL 5
REMARK VINA RESULT:      -7.0      1.343      3.976
REMARK  Name = 
REMARK  5 active torsions:
REMARK  status: ('A' for Active; 'I' for Inactive)
REMARK    1  A    between atoms: C_2  and  C_3
REMARK    2  A    between atoms: N_5  and  C_6
REMARK    3  A    between atoms: C_6  and  N_7
REMARK    4  A    between atoms: C_6  and  C_12
REMARK    5  A    between atoms: C_8  and  C_10
REMARK                            x       y       z     vdW  Elec       q    Type
REMARK                         _______ _______ _______ _____ _____    ______ ____
ROOT
ATOM      1  C   UNL     1       4.728   5.474  17.130  0.00  0.00    +0.000 C 
ENDROOT
BRANCH   1   2
ATOM      2  C   UNL     1       3.955   4.778  18.242  0.00  0.00    +0.000 A 
ATOM      3  C   UNL     1       3.760   3.385  18.223  0.00  0.00    +0.000 A 
ATOM      4  C   UNL     1       3.055   2.747  19.252  0.00  0.00    +0.000 A 
ATOM      5  C   UNL     1       2.534   3.497  20.304  0.00  0.00    +0.000 A 
ATOM      6 BR   UNL     1       1.587   2.643  21.699  0.00  0.00    +0.000 Br
ATOM      7  C   UNL     1       2.700   4.877  20.332  0.00  0.00    +0.000 A 
ATOM      8  C   UNL     1       3.401   5.510  19.306  0.00  0.00    +0.000 A 
ENDBRANCH   1   2
BRANCH   1  11
ATOM      9  C   UNL     1       6.962   5.702  18.140  0.00  0.00    +0.000 C 
ATOM     10  O   UNL     1       7.157   4.501  18.266  0.00  0.00    +0.000 OA
ATOM     11  N   UNL     1       5.823   6.241  17.637  0.00  0.00    +0.000 N 
ATOM     12  H   UNL     1       5.731   7.244  17.510  0.00  0.00    +0.000 HD
BRANCH   9  14
ATOM     13  C   UNL     1       7.983   7.916  17.910  0.00  0.00    +0.000 C 
ATOM     14  C   UNL     1       7.946   6.738  18.546  0.00  0.00    +0.000 C 
ENDBRANCH   9  14
ENDBRANCH   1  11
BRANCH   1  15
ATOM     15  N   UNL     1       5.195   4.524  16.136  0.00  0.00    +0.000 N 
ATOM     16  C   UNL     1       5.822   4.902  14.975  0.00  0.00    +0.000 C 
ATOM     17  O   UNL     1       5.955   6.070  14.621  0.00  0.00    +0.000 OA
ATOM     18  H   UNL     1       5.194   3.555  16.409  0.00  0.00    +0.000 HD
BRANCH  16  19
ATOM     19  C   UNL     1       6.304   3.775  14.145  0.00  0.00    +0.000 C 
ATOM     20  C   UNL     1       5.948   3.731  12.855  0.00  0.00    +0.000 C 
ENDBRANCH  16  19
ENDBRANCH   1  15
TORSDOF 5
ENDMDL
MODEL 6
REMARK VINA RESULT:      -6.9      1.373      4.011
REMARK  Name = 
REMARK  5 active torsions:
REMARK  status: ('A' for Active; 'I' for Inactive)
REMARK    1  A    between atoms: C_2  and  C_3
REMARK    2  A    between atoms: N_5  and  C_6
REMARK    3  A    between atoms: C_6  and  N_7
REMARK    4  A    between atoms: C_6  and  C_12
REMARK    5  A    between atoms: C_8  and  C_10
REMARK                            x       y       z     vdW  Elec       q    Type
REMARK                         _______ _______ _______ _____ _____    ______ ____
ROOT
ATOM      1  C   UNL     1       4.670   5.475  17.057  0.00  0.00    +0.000 C 
ENDROOT
BRANCH   1   2
ATOM      2  C   UNL     1       3.910   4.793  18.186  0.00  0.00    +0.000 A 
ATOM      3  C   UNL     1       3.413   5.535  19.273  0.00  0.00    +0.000 A 
ATOM      4  C   UNL     1       2.708   4.906  20.307  0.00  0.00    +0.000 A 
ATOM      5  C   UNL     1       2.498   3.529  20.266  0.00  0.00    +0.000 A 
ATOM      6 BR   UNL     1       1.542   2.673  21.653  0.00  0.00    +0.000 Br
ATOM      7  C   UNL     1       2.996   2.775  19.209  0.00  0.00    +0.000 A 
ATOM      8  C   UNL     1       3.700   3.403  18.182  0.00  0.00    +0.000 A 
ENDBRANCH   1   2
BRANCH   1  11
ATOM      9  C   UNL     1       6.891   5.685  18.098  0.00  0.00    +0.000 C 
ATOM     10  O   UNL     1       7.041   4.489  18.299  0.00  0.00    +0.000 OA
ATOM     11  N   UNL     1       5.782   6.233  17.540  0.00  0.00    +0.000 N 
ATOM     12  H   UNL     1       5.729   7.228  17.352  0.00  0.00    +0.000 HD
BRANCH   9  14
ATOM     13  C   UNL     1       7.904   7.902  17.852  0.00  0.00    +0.000 C 
ATOM     14  C   UNL     1       7.904   6.709  18.462  0.00  0.00    +0.000 C 
ENDBRANCH   9  14
ENDBRANCH   1  11
BRANCH   1  15
ATOM     15  N   UNL     1       5.109   4.515  16.059  0.00  0.00    +0.000 N 
ATOM     16  C   UNL     1       5.748   4.879  14.901  0.00  0.00    +0.000 C 
ATOM     17  O   UNL     1       5.918   6.044  14.552  0.00  0.00    +0.000 OA
ATOM     18  H   UNL     1       5.078   3.546  16.329  0.00  0.00    +0.000 HD
BRANCH  16  19
ATOM     19  C   UNL     1       6.196   3.742  14.067  0.00  0.00    +0.000 C 
ATOM     20  C   UNL     1       6.611   3.986  12.817  0.00  0.00    +0.000 C 
ENDBRANCH  16  19
ENDBRANCH   1  15
TORSDOF 5
ENDMDL
MODEL 7
REMARK VINA RESULT:      -6.9      0.942      1.090
REMARK  Name = 
REMARK  5 active torsions:
REMARK  status: ('A' for Active; 'I' for Inactive)
REMARK    1  A    between atoms: C_2  and  C_3
REMARK    2  A    between atoms: N_5  and  C_6
REMARK    3  A    between atoms: C_6  and  N_7
REMARK    4  A    between atoms: C_6  and  C_12
REMARK    5  A    between atoms: C_8  and  C_10
REMARK                            x       y       z     vdW  Elec       q    Type
REMARK                         _______ _______ _______ _____ _____    ______ ____
ROOT
ATOM      1  C   UNL     1       6.507   4.943  17.244  0.00  0.00    +0.000 C 
ENDROOT
BRANCH   1   2
ATOM      2  C   UNL     1       5.170   4.676  17.921  0.00  0.00    +0.000 A 
ATOM      3  C   UNL     1       4.207   3.848  17.315  0.00  0.00    +0.000 A 
ATOM      4  C   UNL     1       2.981   3.597  17.945  0.00  0.00    +0.000 A 
ATOM      5  C   UNL     1       2.705   4.176  19.182  0.00  0.00    +0.000 A 
ATOM      6 BR   UNL     1       1.056   3.838  20.041  0.00  0.00    +0.000 Br
ATOM      7  C   UNL     1       3.636   5.011  19.789  0.00  0.00    +0.000 A 
ATOM      8  C   UNL     1       4.855   5.261  19.159  0.00  0.00    +0.000 A 
ENDBRANCH   1   2
BRANCH   1  11
ATOM      9  C   UNL     1       6.213   4.890  14.800  0.00  0.00    +0.000 C 
ATOM     10  O   UNL     1       5.698   5.996  14.719  0.00  0.00    +0.000 OA
ATOM     11  N   UNL     1       6.596   4.310  15.965  0.00  0.00    +0.000 N 
ATOM     12  H   UNL     1       7.062   3.408  15.972  0.00  0.00    +0.000 HD
BRANCH   9  14
ATOM     13  C   UNL     1       5.443   3.537  12.909  0.00  0.00    +0.000 C 
ATOM     14  C   UNL     1       6.468   4.018  13.625  0.00  0.00    +0.000 C 
ENDBRANCH   9  14
ENDBRANCH   1  11
BRANCH   1  15
ATOM     15  N   UNL     1       6.762   6.368  17.120  0.00  0.00    +0.000 N 
ATOM     16  C   UNL     1       7.617   7.050  17.949  0.00  0.00    +0.000 C 
ATOM     17  O   UNL     1       8.164   6.548  18.927  0.00  0.00    +0.000 OA
ATOM     18  H   UNL     1       6.413   6.813  16.287  0.00  0.00    +0.000 HD
BRANCH  16  19
ATOM     19  C   UNL     1       7.808   8.473  17.592  0.00  0.00    +0.000 C 
ATOM     20  C   UNL     1       8.557   9.241  18.395  0.00  0.00    +0.000 C 
ENDBRANCH  16  19
ENDBRANCH   1  15
TORSDOF 5
ENDMDL
MODEL 8
REMARK VINA RESULT:      -6.8      3.754      5.828
REMARK  Name = 
REMARK  5 active torsions:
REMARK  status: ('A' for Active; 'I' for Inactive)
REMARK    1  A    between atoms: C_2  and  C_3
REMARK    2  A    between atoms: N_5  and  C_6
REMARK    3  A    between atoms: C_6  and  N_7
REMARK    4  A    between atoms: C_6  and  C_12
REMARK    5  A    between atoms: C_8  and  C_10
REMARK                            x       y       z     vdW  Elec       q    Type
REMARK                         _______ _______ _______ _____ _____    ______ ____
ROOT
ATOM      1  C   UNL     1       3.273   5.910  19.569  0.00  0.00    +0.000 C 
ENDROOT
BRANCH   1   2
ATOM      2  C   UNL     1       2.471   7.190  19.380  0.00  0.00    +0.000 A 
ATOM      3  C   UNL     1       2.414   7.828  18.128  0.00  0.00    +0.000 A 
ATOM      4  C   UNL     1       1.668   9.002  17.956  0.00  0.00    +0.000 A 
ATOM      5  C   UNL     1       0.979   9.550  19.034  0.00  0.00    +0.000 A 
ATOM      6 BR   UNL     1      -0.035  11.129  18.809  0.00  0.00    +0.000 Br
ATOM      7  C   UNL     1       1.036   8.945  20.285  0.00  0.00    +0.000 A 
ATOM      8  C   UNL     1       1.780   7.777  20.454  0.00  0.00    +0.000 A 
ENDBRANCH   1   2
BRANCH   1  11
ATOM      9  C   UNL     1       1.607   4.106  19.392  0.00  0.00    +0.000 C 
ATOM     10  O   UNL     1       1.365   4.286  18.207  0.00  0.00    +0.000 OA
ATOM     11  N   UNL     1       2.478   4.855  20.115  0.00  0.00    +0.000 N 
ATOM     12  H   UNL     1       2.678   4.633  21.084  0.00  0.00    +0.000 HD
BRANCH   9  14
ATOM     13  C   UNL     1       1.446   2.737  21.416  0.00  0.00    +0.000 C 
ATOM     14  C   UNL     1       0.957   3.050  20.209  0.00  0.00    +0.000 C 
ENDBRANCH   9  14
ENDBRANCH   1  11
BRANCH   1  15
ATOM     15  N   UNL     1       3.892   5.486  18.326  0.00  0.00    +0.000 N 
ATOM     16  C   UNL     1       4.931   4.591  18.275  0.00  0.00    +0.000 C 
ATOM     17  O   UNL     1       5.499   4.146  19.268  0.00  0.00    +0.000 OA
ATOM     18  H   UNL     1       3.415   5.745  17.478  0.00  0.00    +0.000 HD
BRANCH  16  19
ATOM     19  C   UNL     1       5.351   4.220  16.905  0.00  0.00    +0.000 C 
ATOM     20  C   UNL     1       5.288   5.147  15.940  0.00  0.00    +0.000 C 
ENDBRANCH  16  19
ENDBRANCH   1  15
TORSDOF 5
ENDMDL
MODEL 9
REMARK VINA RESULT:      -6.8      3.689      5.752
REMARK  Name = 
REMARK  5 active torsions:
REMARK  status: ('A' for Active; 'I' for Inactive)
REMARK    1  A    between atoms: C_2  and  C_3
REMARK    2  A    between atoms: N_5  and  C_6
REMARK    3  A    between atoms: C_6  and  N_7
REMARK    4  A    between atoms: C_6  and  C_12
REMARK    5  A    between atoms: C_8  and  C_10
REMARK                            x       y       z     vdW  Elec       q    Type
REMARK                         _______ _______ _______ _____ _____    ______ ____
ROOT
ATOM      1  C   UNL     1       3.382   5.716  19.451  0.00  0.00    +0.000 C 
ENDROOT
BRANCH   1   2
ATOM      2  C   UNL     1       2.584   7.004  19.302  0.00  0.00    +0.000 A 
ATOM      3  C   UNL     1       1.886   7.551  20.395  0.00  0.00    +0.000 A 
ATOM      4  C   UNL     1       1.159   8.740  20.256  0.00  0.00    +0.000 A 
ATOM      5  C   UNL     1       1.117   9.389  19.024  0.00  0.00    +0.000 A 
ATOM      6 BR   UNL     1       0.144  10.997  18.831  0.00  0.00    +0.000 Br
ATOM      7  C   UNL     1       1.785   8.855  17.928  0.00  0.00    +0.000 A 
ATOM      8  C   UNL     1       2.507   7.670  18.067  0.00  0.00    +0.000 A 
ENDBRANCH   1   2
BRANCH   1  11
ATOM      9  C   UNL     1       1.670   3.947  19.429  0.00  0.00    +0.000 C 
ATOM     10  O   UNL     1       1.330   4.128  18.268  0.00  0.00    +0.000 OA
ATOM     11  N   UNL     1       2.617   4.679  20.069  0.00  0.00    +0.000 N 
ATOM     12  H   UNL     1       2.896   4.456  21.019  0.00  0.00    +0.000 HD
BRANCH   9  14
ATOM     13  C   UNL     1       1.472   2.789  21.578  0.00  0.00    +0.000 C 
ATOM     14  C   UNL     1       1.073   2.906  20.305  0.00  0.00    +0.000 C 
ENDBRANCH   9  14
ENDBRANCH   1  11
BRANCH   1  15
ATOM     15  N   UNL     1       3.903   5.266  18.173  0.00  0.00    +0.000 N 
ATOM     16  C   UNL     1       4.902   4.332  18.058  0.00  0.00    +0.000 C 
ATOM     17  O   UNL     1       5.516   3.869  19.016  0.00  0.00    +0.000 OA
ATOM     18  H   UNL     1       3.382   5.542  17.356  0.00  0.00    +0.000 HD
BRANCH  16  19
ATOM     19  C   UNL     1       5.219   3.943  16.666  0.00  0.00    +0.000 C 
ATOM     20  C   UNL     1       6.369   4.367  16.126  0.00  0.00    +0.000 C 
ENDBRANCH  16  19
ENDBRANCH   1  15
TORSDOF 5
ENDMDL
