MODEL 1
REMARK VINA RESULT:      -8.4      0.000      0.000
REMARK  Name = 
REMARK  4 active torsions:
REMARK  status: ('A' for Active; 'I' for Inactive)
REMARK    1  A    between atoms: C_1  and  C_2
REMARK    2  A    between atoms: N_5  and  C_6
REMARK    3  A    between atoms: C_12  and  O_13
REMARK    4  A    between atoms: C_12  and  C_14
REMARK                            x       y       z     vdW  Elec       q    Type
REMARK                         _______ _______ _______ _____ _____    ______ ____
ROOT
ATOM      1  C   UNL     1       1.910   8.129  19.244  0.00  0.00    +0.000 A 
ATOM      2  C   UNL     1       2.589   8.828  18.219  0.00  0.00    +0.000 A 
ATOM      3  C   UNL     1       3.468   8.200  17.324  0.00  0.00    +0.000 A 
ATOM      4  C   UNL     1       3.692   6.846  17.463  0.00  0.00    +0.000 A 
ATOM      5  C   UNL     1       3.053   6.129  18.489  0.00  0.00    +0.000 A 
ATOM      6  C   UNL     1       2.177   6.757  19.371  0.00  0.00    +0.000 A 
ATOM      7  C   UNL     1       3.464   4.658  18.441  0.00  0.00    +0.000 C 
ATOM      8  C   UNL     1       4.411   4.648  17.240  0.00  0.00    +0.000 A 
ATOM      9  C   UNL     1       5.120   3.581  16.704  0.00  0.00    +0.000 A 
ATOM     10  C   UNL     1       5.935   3.819  15.595  0.00  0.00    +0.000 A 
ATOM     11  C   UNL     1       6.042   5.108  15.049  0.00  0.00    +0.000 A 
ATOM     12  C   UNL     1       5.337   6.182  15.601  0.00  0.00    +0.000 A 
ATOM     13  C   UNL     1       4.522   5.945  16.696  0.00  0.00    +0.000 A 
ENDROOT
BRANCH   1  18
ATOM     14  C   UNL     1      -0.093   9.583  23.510  0.00  0.00    +0.000 C 
ATOM     15  C   UNL     1      -0.201   9.393  22.006  0.00  0.00    +0.000 C 
ATOM     16  C   UNL     1       0.173  10.645  21.217  0.00  0.00    +0.000 C 
ATOM     17  C   UNL     1       0.497  10.099  19.828  0.00  0.00    +0.000 C 
ATOM     18  N   UNL     1       1.025   8.761  20.091  0.00  0.00    +0.000 N 
ATOM     19  C   UNL     1       0.785   8.350  21.472  0.00  0.00    +0.000 C 
ENDBRANCH   1  18
BRANCH   7  20
ATOM     20  C   UNL     1       2.258   3.676  18.316  0.00  0.00    +0.000 C 
ATOM     21  F   UNL     1       2.627   2.398  18.064  0.00  0.00    +0.000 F 
ATOM     22  F   UNL     1       1.457   3.647  19.406  0.00  0.00    +0.000 F 
ATOM     23  F   UNL     1       1.470   4.052  17.268  0.00  0.00    +0.000 F 
ENDBRANCH   7  20
BRANCH   7  24
ATOM     24  O   UNL     1       4.282   4.409  19.604  0.00  0.00    +0.000 OA
ATOM     25  H   UNL     1       4.702   5.255  19.838  0.00  0.00    +0.000 HD
ENDBRANCH   7  24
TORSDOF 3
ENDMDL
MODEL 2
REMARK VINA RESULT:      -8.2      0.834      1.174
REMARK  Name = 
REMARK  4 active torsions:
REMARK  status: ('A' for Active; 'I' for Inactive)
REMARK    1  A    between atoms: C_1  and  C_2
REMARK    2  A    between atoms: N_5  and  C_6
REMARK    3  A    between atoms: C_12  and  O_13
REMARK    4  A    between atoms: C_12  and  C_14
REMARK                            x       y       z     vdW  Elec       q    Type
REMARK                         _______ _______ _______ _____ _____    ______ ____
ROOT
ATOM      1  C   UNL     1       1.559   8.803  19.263  0.00  0.00    +0.000 A 
ATOM      2  C   UNL     1       2.264   9.353  18.167  0.00  0.00    +0.000 A 
ATOM      3  C   UNL     1       3.148   8.601  17.378  0.00  0.00    +0.000 A 
ATOM      4  C   UNL     1       3.352   7.276  17.698  0.00  0.00    +0.000 A 
ATOM      5  C   UNL     1       2.687   6.707  18.799  0.00  0.00    +0.000 A 
ATOM      6  C   UNL     1       1.806   7.457  19.575  0.00  0.00    +0.000 A 
ATOM      7  C   UNL     1       3.079   5.239  18.953  0.00  0.00    +0.000 C 
ATOM      8  C   UNL     1       4.044   5.059  17.781  0.00  0.00    +0.000 A 
ATOM      9  C   UNL     1       4.747   3.923  17.402  0.00  0.00    +0.000 A 
ATOM     10  C   UNL     1       5.582   4.003  16.286  0.00  0.00    +0.000 A 
ATOM     11  C   UNL     1       5.716   5.207  15.577  0.00  0.00    +0.000 A 
ATOM     12  C   UNL     1       5.017   6.352  15.970  0.00  0.00    +0.000 A 
ATOM     13  C   UNL     1       4.181   6.271  17.072  0.00  0.00    +0.000 A 
ENDROOT
BRANCH   1  18
ATOM     14  C   UNL     1      -0.863  10.403  23.250  0.00  0.00    +0.000 C 
ATOM     15  C   UNL     1      -0.737  10.313  21.738  0.00  0.00    +0.000 C 
ATOM     16  C   UNL     1      -0.009  11.507  21.127  0.00  0.00    +0.000 C 
ATOM     17  C   UNL     1       0.450  10.978  19.769  0.00  0.00    +0.000 C 
ATOM     18  N   UNL     1       0.670   9.552  20.003  0.00  0.00    +0.000 N 
ATOM     19  C   UNL     1       0.120   9.126  21.288  0.00  0.00    +0.000 C 
ENDBRANCH   1  18
BRANCH   7  20
ATOM     20  C   UNL     1       1.862   4.263  18.938  0.00  0.00    +0.000 C 
ATOM     21  F   UNL     1       0.998   4.461  19.962  0.00  0.00    +0.000 F 
ATOM     22  F   UNL     1       1.136   4.308  17.796  0.00  0.00    +0.000 F 
ATOM     23  F   UNL     1       2.304   2.979  19.064  0.00  0.00    +0.000 F 
ENDBRANCH   7  20
BRANCH   7  24
ATOM     24  O   UNL     1       3.875   5.137  20.153  0.00  0.00    +0.000 OA
ATOM     25  H   UNL     1       4.569   4.478  19.974  0.00  0.00    +0.000 HD
ENDBRANCH   7  24
TORSDOF 3
ENDMDL
MODEL 3
REMARK VINA RESULT:      -8.1      2.776      7.035
REMARK  Name = 
REMARK  4 active torsions:
REMARK  status: ('A' for Active; 'I' for Inactive)
REMARK    1  A    between atoms: C_1  and  C_2
REMARK    2  A    between atoms: N_5  and  C_6
REMARK    3  A    between atoms: C_12  and  O_13
REMARK    4  A    between atoms: C_12  and  C_14
REMARK                            x       y       z     vdW  Elec       q    Type
REMARK                         _______ _______ _______ _____ _____    ______ ____
ROOT
ATOM      1  C   UNL     1       5.407   4.948  15.479  0.00  0.00    +0.000 A 
ATOM      2  C   UNL     1       5.357   6.313  15.845  0.00  0.00    +0.000 A 
ATOM      3  C   UNL     1       4.584   6.785  16.917  0.00  0.00    +0.000 A 
ATOM      4  C   UNL     1       3.827   5.880  17.630  0.00  0.00    +0.000 A 
ATOM      5  C   UNL     1       3.834   4.520  17.274  0.00  0.00    +0.000 A 
ATOM      6  C   UNL     1       4.608   4.057  16.212  0.00  0.00    +0.000 A 
ATOM      7  C   UNL     1       2.917   3.725  18.202  0.00  0.00    +0.000 C 
ATOM      8  C   UNL     1       2.407   4.823  19.136  0.00  0.00    +0.000 A 
ATOM      9  C   UNL     1       1.517   4.715  20.196  0.00  0.00    +0.000 A 
ATOM     10  C   UNL     1       1.192   5.872  20.908  0.00  0.00    +0.000 A 
ATOM     11  C   UNL     1       1.744   7.112  20.548  0.00  0.00    +0.000 A 
ATOM     12  C   UNL     1       2.628   7.218  19.471  0.00  0.00    +0.000 A 
ATOM     13  C   UNL     1       2.957   6.069  18.770  0.00  0.00    +0.000 A 
ENDROOT
BRANCH   1  18
ATOM     14  C   UNL     1       6.535   2.890  11.141  0.00  0.00    +0.000 C 
ATOM     15  C   UNL     1       6.967   3.381  12.513  0.00  0.00    +0.000 C 
ATOM     16  C   UNL     1       7.491   4.814  12.498  0.00  0.00    +0.000 C 
ATOM     17  C   UNL     1       7.359   5.250  13.957  0.00  0.00    +0.000 C 
ATOM     18  N   UNL     1       6.200   4.503  14.443  0.00  0.00    +0.000 N 
ATOM     19  C   UNL     1       5.801   3.457  13.505  0.00  0.00    +0.000 C 
ENDBRANCH   1  18
BRANCH   7  20
ATOM     20  C   UNL     1       3.637   2.547  18.930  0.00  0.00    +0.000 C 
ATOM     21  F   UNL     1       2.982   2.115  20.035  0.00  0.00    +0.000 F 
ATOM     22  F   UNL     1       3.846   1.463  18.148  0.00  0.00    +0.000 F 
ATOM     23  F   UNL     1       4.865   2.957  19.359  0.00  0.00    +0.000 F 
ENDBRANCH   7  20
BRANCH   7  24
ATOM     24  O   UNL     1       1.784   3.301  17.416  0.00  0.00    +0.000 OA
ATOM     25  H   UNL     1       1.834   2.331  17.353  0.00  0.00    +0.000 HD
ENDBRANCH   7  24
TORSDOF 3
ENDMDL
MODEL 4
REMARK VINA RESULT:      -8.0      1.183      1.387
REMARK  Name = 
REMARK  4 active torsions:
REMARK  status: ('A' for Active; 'I' for Inactive)
REMARK    1  A    between atoms: C_1  and  C_2
REMARK    2  A    between atoms: N_5  and  C_6
REMARK    3  A    between atoms: C_12  and  O_13
REMARK    4  A    between atoms: C_12  and  C_14
REMARK                            x       y       z     vdW  Elec       q    Type
REMARK                         _______ _______ _______ _____ _____    ______ ____
ROOT
ATOM      1  C   UNL     1       1.305   8.981  19.242  0.00  0.00    +0.000 A 
ATOM      2  C   UNL     1       1.996   9.505  18.125  0.00  0.00    +0.000 A 
ATOM      3  C   UNL     1       2.938   8.763  17.397  0.00  0.00    +0.000 A 
ATOM      4  C   UNL     1       3.214   7.474  17.801  0.00  0.00    +0.000 A 
ATOM      5  C   UNL     1       2.564   6.933  18.924  0.00  0.00    +0.000 A 
ATOM      6  C   UNL     1       1.625   7.673  19.640  0.00  0.00    +0.000 A 
ATOM      7  C   UNL     1       3.041   5.503  19.174  0.00  0.00    +0.000 C 
ATOM      8  C   UNL     1       4.036   5.312  18.029  0.00  0.00    +0.000 A 
ATOM      9  C   UNL     1       4.813   4.200  17.731  0.00  0.00    +0.000 A 
ATOM     10  C   UNL     1       5.662   4.263  16.625  0.00  0.00    +0.000 A 
ATOM     11  C   UNL     1       5.736   5.428  15.845  0.00  0.00    +0.000 A 
ATOM     12  C   UNL     1       4.963   6.550  16.157  0.00  0.00    +0.000 A 
ATOM     13  C   UNL     1       4.114   6.485  17.249  0.00  0.00    +0.000 A 
ENDROOT
BRANCH   1  18
ATOM     14  C   UNL     1      -0.492  12.358  22.355  0.00  0.00    +0.000 C 
ATOM     15  C   UNL     1      -0.700  11.121  21.495  0.00  0.00    +0.000 C 
ATOM     16  C   UNL     1      -1.232  11.444  20.102  0.00  0.00    +0.000 C 
ATOM     17  C   UNL     1      -0.869  10.200  19.293  0.00  0.00    +0.000 C 
ATOM     18  N   UNL     1       0.359   9.717  19.922  0.00  0.00    +0.000 N 
ATOM     19  C   UNL     1       0.609  10.385  21.197  0.00  0.00    +0.000 C 
ENDBRANCH   1  18
BRANCH   7  20
ATOM     20  C   UNL     1       1.884   4.456  19.200  0.00  0.00    +0.000 C 
ATOM     21  F   UNL     1       2.315   3.179  19.337  0.00  0.00    +0.000 F 
ATOM     22  F   UNL     1       0.971   4.670  20.175  0.00  0.00    +0.000 F 
ATOM     23  F   UNL     1       1.204   4.496  18.018  0.00  0.00    +0.000 F 
ENDBRANCH   7  20
BRANCH   7  24
ATOM     24  O   UNL     1       3.819   5.522  20.389  0.00  0.00    +0.000 OA
ATOM     25  H   UNL     1       3.524   4.763  20.922  0.00  0.00    +0.000 HD
ENDBRANCH   7  24
TORSDOF 3
ENDMDL
MODEL 5
REMARK VINA RESULT:      -7.8      3.350      7.771
REMARK  Name = 
REMARK  4 active torsions:
REMARK  status: ('A' for Active; 'I' for Inactive)
REMARK    1  A    between atoms: C_1  and  C_2
REMARK    2  A    between atoms: N_5  and  C_6
REMARK    3  A    between atoms: C_12  and  O_13
REMARK    4  A    between atoms: C_12  and  C_14
REMARK                            x       y       z     vdW  Elec       q    Type
REMARK                         _______ _______ _______ _____ _____    ______ ____
ROOT
ATOM      1  C   UNL     1       2.167   7.581  18.880  0.00  0.00    +0.000 A 
ATOM      2  C   UNL     1       2.136   7.369  20.278  0.00  0.00    +0.000 A 
ATOM      3  C   UNL     1       1.381   8.167  21.151  0.00  0.00    +0.000 A 
ATOM      4  C   UNL     1       0.653   9.212  20.624  0.00  0.00    +0.000 A 
ATOM      5  C   UNL     1       0.685   9.466  19.241  0.00  0.00    +0.000 A 
ATOM      6  C   UNL     1       1.432   8.667  18.378  0.00  0.00    +0.000 A 
ATOM      7  C   UNL     1      -0.190  10.672  18.904  0.00  0.00    +0.000 C 
ATOM      8  C   UNL     1      -0.726  11.051  20.285  0.00  0.00    +0.000 A 
ATOM      9  C   UNL     1      -1.577  12.093  20.628  0.00  0.00    +0.000 A 
ATOM     10  C   UNL     1      -1.928  12.246  21.971  0.00  0.00    +0.000 A 
ATOM     11  C   UNL     1      -1.419  11.374  22.948  0.00  0.00    +0.000 A 
ATOM     12  C   UNL     1      -0.551  10.336  22.599  0.00  0.00    +0.000 A 
ATOM     13  C   UNL     1      -0.210  10.178  21.265  0.00  0.00    +0.000 A 
ENDROOT
BRANCH   1  18
ATOM     14  C   UNL     1       6.106   5.793  16.511  0.00  0.00    +0.000 C 
ATOM     15  C   UNL     1       4.597   5.893  16.660  0.00  0.00    +0.000 C 
ATOM     16  C   UNL     1       4.002   4.761  17.492  0.00  0.00    +0.000 C 
ATOM     17  C   UNL     1       2.653   5.325  17.935  0.00  0.00    +0.000 C 
ATOM     18  N   UNL     1       2.890   6.764  18.037  0.00  0.00    +0.000 N 
ATOM     19  C   UNL     1       4.162   7.144  17.429  0.00  0.00    +0.000 C 
ENDBRANCH   1  18
BRANCH   7  20
ATOM     20  C   UNL     1      -1.297  10.364  17.848  0.00  0.00    +0.000 C 
ATOM     21  F   UNL     1      -1.796  11.473  17.251  0.00  0.00    +0.000 F 
ATOM     22  F   UNL     1      -0.897   9.531  16.860  0.00  0.00    +0.000 F 
ATOM     23  F   UNL     1      -2.356   9.760  18.459  0.00  0.00    +0.000 F 
ENDBRANCH   7  20
BRANCH   7  24
ATOM     24  O   UNL     1       0.696  11.739  18.506  0.00  0.00    +0.000 OA
ATOM     25  H   UNL     1       1.168  11.430  17.712  0.00  0.00    +0.000 HD
ENDBRANCH   7  24
TORSDOF 3
ENDMDL
MODEL 6
REMARK VINA RESULT:      -7.7      0.613      1.354
REMARK  Name = 
REMARK  4 active torsions:
REMARK  status: ('A' for Active; 'I' for Inactive)
REMARK    1  A    between atoms: C_1  and  C_2
REMARK    2  A    between atoms: N_5  and  C_6
REMARK    3  A    between atoms: C_12  and  O_13
REMARK    4  A    between atoms: C_12  and  C_14
REMARK                            x       y       z     vdW  Elec       q    Type
REMARK                         _______ _______ _______ _____ _____    ______ ____
ROOT
ATOM      1  C   UNL     1       2.184   7.944  19.401  0.00  0.00    +0.000 A 
ATOM      2  C   UNL     1       2.688   8.641  18.278  0.00  0.00    +0.000 A 
ATOM      3  C   UNL     1       3.478   8.027  17.294  0.00  0.00    +0.000 A 
ATOM      4  C   UNL     1       3.790   6.692  17.439  0.00  0.00    +0.000 A 
ATOM      5  C   UNL     1       3.327   5.978  18.558  0.00  0.00    +0.000 A 
ATOM      6  C   UNL     1       2.538   6.591  19.530  0.00  0.00    +0.000 A 
ATOM      7  C   UNL     1       3.807   4.529  18.498  0.00  0.00    +0.000 C 
ATOM      8  C   UNL     1       4.591   4.526  17.185  0.00  0.00    +0.000 A 
ATOM      9  C   UNL     1       5.282   3.478  16.590  0.00  0.00    +0.000 A 
ATOM     10  C   UNL     1       5.935   3.719  15.379  0.00  0.00    +0.000 A 
ATOM     11  C   UNL     1       5.902   4.993  14.790  0.00  0.00    +0.000 A 
ATOM     12  C   UNL     1       5.217   6.048  15.399  0.00  0.00    +0.000 A 
ATOM     13  C   UNL     1       4.562   5.807  16.596  0.00  0.00    +0.000 A 
ENDROOT
BRANCH   1  18
ATOM     14  C   UNL     1      -1.117  11.131  21.210  0.00  0.00    +0.000 C 
ATOM     15  C   UNL     1      -0.011  10.114  21.440  0.00  0.00    +0.000 C 
ATOM     16  C   UNL     1      -0.538   8.704  21.693  0.00  0.00    +0.000 C 
ATOM     17  C   UNL     1       0.665   7.819  21.374  0.00  0.00    +0.000 C 
ATOM     18  N   UNL     1       1.382   8.559  20.337  0.00  0.00    +0.000 N 
ATOM     19  C   UNL     1       0.881   9.925  20.208  0.00  0.00    +0.000 C 
ENDBRANCH   1  18
BRANCH   7  20
ATOM     20  C   UNL     1       2.648   3.485  18.555  0.00  0.00    +0.000 C 
ATOM     21  F   UNL     1       1.866   3.607  19.654  0.00  0.00    +0.000 F 
ATOM     22  F   UNL     1       1.826   3.517  17.481  0.00  0.00    +0.000 F 
ATOM     23  F   UNL     1       3.170   2.226  18.606  0.00  0.00    +0.000 F 
ENDBRANCH   7  20
BRANCH   7  24
ATOM     24  O   UNL     1       4.778   4.360  19.551  0.00  0.00    +0.000 OA
ATOM     25  H   UNL     1       4.314   3.939  20.296  0.00  0.00    +0.000 HD
ENDBRANCH   7  24
TORSDOF 3
ENDMDL
MODEL 7
REMARK VINA RESULT:      -7.6      1.015      1.736
REMARK  Name = 
REMARK  4 active torsions:
REMARK  status: ('A' for Active; 'I' for Inactive)
REMARK    1  A    between atoms: C_1  and  C_2
REMARK    2  A    between atoms: N_5  and  C_6
REMARK    3  A    between atoms: C_12  and  O_13
REMARK    4  A    between atoms: C_12  and  C_14
REMARK                            x       y       z     vdW  Elec       q    Type
REMARK                         _______ _______ _______ _____ _____    ______ ____
ROOT
ATOM      1  C   UNL     1       1.757   8.824  19.461  0.00  0.00    +0.000 A 
ATOM      2  C   UNL     1       2.393   9.278  18.282  0.00  0.00    +0.000 A 
ATOM      3  C   UNL     1       3.172   8.442  17.469  0.00  0.00    +0.000 A 
ATOM      4  C   UNL     1       3.340   7.126  17.846  0.00  0.00    +0.000 A 
ATOM      5  C   UNL     1       2.743   6.652  19.027  0.00  0.00    +0.000 A 
ATOM      6  C   UNL     1       1.965   7.485  19.828  0.00  0.00    +0.000 A 
ATOM      7  C   UNL     1       3.077   5.175  19.233  0.00  0.00    +0.000 C 
ATOM      8  C   UNL     1       3.932   4.885  17.998  0.00  0.00    +0.000 A 
ATOM      9  C   UNL     1       4.547   3.696  17.630  0.00  0.00    +0.000 A 
ATOM     10  C   UNL     1       5.290   3.674  16.448  0.00  0.00    +0.000 A 
ATOM     11  C   UNL     1       5.420   4.830  15.662  0.00  0.00    +0.000 A 
ATOM     12  C   UNL     1       4.810   6.028  16.045  0.00  0.00    +0.000 A 
ATOM     13  C   UNL     1       4.066   6.049  17.213  0.00  0.00    +0.000 A 
ENDROOT
BRANCH   1  18
ATOM     14  C   UNL     1      -1.881  11.983  20.516  0.00  0.00    +0.000 C 
ATOM     15  C   UNL     1      -0.568  11.317  20.896  0.00  0.00    +0.000 C 
ATOM     16  C   UNL     1      -0.756  10.083  21.772  0.00  0.00    +0.000 C 
ATOM     17  C   UNL     1       0.555   9.321  21.588  0.00  0.00    +0.000 C 
ATOM     18  N   UNL     1       0.968   9.655  20.226  0.00  0.00    +0.000 N 
ATOM     19  C   UNL     1       0.183  10.760  19.682  0.00  0.00    +0.000 C 
ENDBRANCH   1  18
BRANCH   7  20
ATOM     20  C   UNL     1       1.818   4.263  19.371  0.00  0.00    +0.000 C 
ATOM     21  F   UNL     1       0.983   4.644  20.367  0.00  0.00    +0.000 F 
ATOM     22  F   UNL     1       1.075   4.180  18.243  0.00  0.00    +0.000 F 
ATOM     23  F   UNL     1       2.206   2.991  19.673  0.00  0.00    +0.000 F 
ENDBRANCH   7  20
BRANCH   7  24
ATOM     24  O   UNL     1       3.964   5.096  20.368  0.00  0.00    +0.000 OA
ATOM     25  H   UNL     1       4.814   4.757  20.037  0.00  0.00    +0.000 HD
ENDBRANCH   7  24
TORSDOF 3
ENDMDL
MODEL 8
REMARK VINA RESULT:      -7.6      3.542      7.956
REMARK  Name = 
REMARK  4 active torsions:
REMARK  status: ('A' for Active; 'I' for Inactive)
REMARK    1  A    between atoms: C_1  and  C_2
REMARK    2  A    between atoms: N_5  and  C_6
REMARK    3  A    between atoms: C_12  and  O_13
REMARK    4  A    between atoms: C_12  and  C_14
REMARK                            x       y       z     vdW  Elec       q    Type
REMARK                         _______ _______ _______ _____ _____    ______ ____
ROOT
ATOM      1  C   UNL     1       1.888   7.997  19.527  0.00  0.00    +0.000 A 
ATOM      2  C   UNL     1       1.753   7.971  20.935  0.00  0.00    +0.000 A 
ATOM      3  C   UNL     1       0.926   8.861  21.636  0.00  0.00    +0.000 A 
ATOM      4  C   UNL     1       0.230   9.814  20.923  0.00  0.00    +0.000 A 
ATOM      5  C   UNL     1       0.365   9.884  19.525  0.00  0.00    +0.000 A 
ATOM      6  C   UNL     1       1.183   8.994  18.833  0.00  0.00    +0.000 A 
ATOM      7  C   UNL     1      -0.493  11.019  18.967  0.00  0.00    +0.000 C 
ATOM      8  C   UNL     1      -1.137  11.565  20.242  0.00  0.00    +0.000 A 
ATOM      9  C   UNL     1      -2.021  12.627  20.380  0.00  0.00    +0.000 A 
ATOM     10  C   UNL     1      -2.474  12.948  21.661  0.00  0.00    +0.000 A 
ATOM     11  C   UNL     1      -2.032  12.223  22.779  0.00  0.00    +0.000 A 
ATOM     12  C   UNL     1      -1.131  11.164  22.636  0.00  0.00    +0.000 A 
ATOM     13  C   UNL     1      -0.688  10.839  21.365  0.00  0.00    +0.000 A 
ENDROOT
BRANCH   1  18
ATOM     14  C   UNL     1       5.460   6.380  16.536  0.00  0.00    +0.000 C 
ATOM     15  C   UNL     1       4.187   6.116  17.324  0.00  0.00    +0.000 C 
ATOM     16  C   UNL     1       4.452   5.547  18.715  0.00  0.00    +0.000 C 
ATOM     17  C   UNL     1       3.160   5.854  19.470  0.00  0.00    +0.000 C 
ATOM     18  N   UNL     1       2.680   7.091  18.857  0.00  0.00    +0.000 N 
ATOM     19  C   UNL     1       3.405   7.398  17.626  0.00  0.00    +0.000 C 
ENDBRANCH   1  18
BRANCH   7  20
ATOM     20  C   UNL     1      -1.514  10.554  17.882  0.00  0.00    +0.000 C 
ATOM     21  F   UNL     1      -0.994   9.671  16.995  0.00  0.00    +0.000 F 
ATOM     22  F   UNL     1      -2.634   9.989  18.388  0.00  0.00    +0.000 F 
ATOM     23  F   UNL     1      -1.920  11.628  17.147  0.00  0.00    +0.000 F 
ENDBRANCH   7  20
BRANCH   7  24
ATOM     24  O   UNL     1       0.410  12.041  18.497  0.00  0.00    +0.000 OA
ATOM     25  H   UNL     1       0.663  11.797  17.590  0.00  0.00    +0.000 HD
ENDBRANCH   7  24
TORSDOF 3
ENDMDL
MODEL 9
REMARK VINA RESULT:      -7.6      4.479      6.677
REMARK  Name = 
REMARK  4 active torsions:
REMARK  status: ('A' for Active; 'I' for Inactive)
REMARK    1  A    between atoms: C_1  and  C_2
REMARK    2  A    between atoms: N_5  and  C_6
REMARK    3  A    between atoms: C_12  and  O_13
REMARK    4  A    between atoms: C_12  and  C_14
REMARK                            x       y       z     vdW  Elec       q    Type
REMARK                         _______ _______ _______ _____ _____    ______ ____
ROOT
ATOM      1  C   UNL     1      -1.048  11.473  22.492  0.00  0.00    +0.000 A 
ATOM      2  C   UNL     1      -0.691  10.226  23.056  0.00  0.00    +0.000 A 
ATOM      3  C   UNL     1       0.066   9.268  22.363  0.00  0.00    +0.000 A 
ATOM      4  C   UNL     1       0.460   9.549  21.072  0.00  0.00    +0.000 A 
ATOM      5  C   UNL     1       0.097  10.769  20.475  0.00  0.00    +0.000 A 
ATOM      6  C   UNL     1      -0.649  11.719  21.169  0.00  0.00    +0.000 A 
ATOM      7  C   UNL     1       0.642  10.843  19.049  0.00  0.00    +0.000 C 
ATOM      8  C   UNL     1       1.372   9.503  18.936  0.00  0.00    +0.000 A 
ATOM      9  C   UNL     1       2.065   8.983  17.850  0.00  0.00    +0.000 A 
ATOM     10  C   UNL     1       2.650   7.722  17.982  0.00  0.00    +0.000 A 
ATOM     11  C   UNL     1       2.526   6.997  19.178  0.00  0.00    +0.000 A 
ATOM     12  C   UNL     1       1.815   7.519  20.262  0.00  0.00    +0.000 A 
ATOM     13  C   UNL     1       1.241   8.773  20.135  0.00  0.00    +0.000 A 
ENDROOT
BRANCH   1  18
ATOM     14  C   UNL     1      -2.538  15.941  23.956  0.00  0.00    +0.000 C 
ATOM     15  C   UNL     1      -2.467  14.440  24.186  0.00  0.00    +0.000 C 
ATOM     16  C   UNL     1      -3.687  13.695  23.651  0.00  0.00    +0.000 C 
ATOM     17  C   UNL     1      -3.185  12.259  23.509  0.00  0.00    +0.000 C 
ATOM     18  N   UNL     1      -1.764  12.412  23.203  0.00  0.00    +0.000 N 
ATOM     19  C   UNL     1      -1.310  13.783  23.427  0.00  0.00    +0.000 C 
ENDBRANCH   1  18
BRANCH   7  20
ATOM     20  C   UNL     1       1.545  12.089  18.790  0.00  0.00    +0.000 C 
ATOM     21  F   UNL     1       2.209  12.513  19.892  0.00  0.00    +0.000 F 
ATOM     22  F   UNL     1       2.470  11.905  17.820  0.00  0.00    +0.000 F 
ATOM     23  F   UNL     1       0.771  13.139  18.392  0.00  0.00    +0.000 F 
ENDBRANCH   7  20
BRANCH   7  24
ATOM     24  O   UNL     1      -0.490  10.765  18.159  0.00  0.00    +0.000 OA
ATOM     25  H   UNL     1      -0.827   9.854  18.212  0.00  0.00    +0.000 HD
ENDBRANCH   7  24
TORSDOF 3
ENDMDL
