MODEL 1
REMARK VINA RESULT:      -8.7      0.000      0.000
REMARK  Name = 
REMARK  3 active torsions:
REMARK  status: ('A' for Active; 'I' for Inactive)
REMARK    1  A    between atoms: C_1  and  N_2
REMARK    2  A    between atoms: C_9  and  C_10
REMARK    3  A    between atoms: C_11  and  C_12
REMARK                            x       y       z     vdW  Elec       q    Type
REMARK                         _______ _______ _______ _____ _____    ______ ____
ROOT
ATOM      1  C   UNL     1       3.912   1.729  17.486  0.00  0.00    +0.000 C 
ATOM      2  N   UNL     1       3.653   3.149  17.843  0.00  0.00    +0.000 N 
ATOM      3  C   UNL     1       4.192   4.209  17.123  0.00  0.00    +0.000 A 
ATOM      4  C   UNL     1       5.047   4.017  15.998  0.00  0.00    +0.000 A 
ATOM      5  C   UNL     1       5.606   5.093  15.314  0.00  0.00    +0.000 A 
ATOM      6  C   UNL     1       5.340   6.390  15.714  0.00  0.00    +0.000 A 
ATOM      7  C   UNL     1       4.504   6.626  16.797  0.00  0.00    +0.000 A 
ATOM      8  C   UNL     1       3.917   5.556  17.515  0.00  0.00    +0.000 A 
ATOM      9  C   UNL     1       3.078   5.814  18.622  0.00  0.00    +0.000 A 
ATOM     10  C   UNL     1       2.541   4.729  19.343  0.00  0.00    +0.000 A 
ATOM     11  C   UNL     1       1.703   4.946  20.464  0.00  0.00    +0.000 A 
ATOM     12  C   UNL     1       1.191   3.876  21.193  0.00  0.00    +0.000 A 
ATOM     13  C   UNL     1       1.501   2.575  20.831  0.00  0.00    +0.000 A 
ATOM     14  C   UNL     1       2.311   2.331  19.727  0.00  0.00    +0.000 A 
ATOM     15  C   UNL     1       2.849   3.395  18.947  0.00  0.00    +0.000 A 
ENDROOT
BRANCH   9  16
ATOM     16  C   UNL     1       2.828   7.223  19.060  0.00  0.00    +0.000 C 
ATOM     17  C   UNL     1       1.793   7.952  18.594  0.00  0.00    +0.000 C 
BRANCH  17  18
ATOM     18  C   UNL     1       1.515   9.386  18.958  0.00  0.00    +0.000 A 
ATOM     19  C   UNL     1       1.910  10.463  18.129  0.00  0.00    +0.000 A 
ATOM     20  C   UNL     1       1.623  11.787  18.480  0.00  0.00    +0.000 A 
ATOM     21  C   UNL     1       0.941  12.068  19.661  0.00  0.00    +0.000 A 
ATOM     22 CL   UNL     1       0.578  13.733  20.095  0.00  0.00    +0.000 Cl
ATOM     23  C   UNL     1       0.543  11.025  20.498  0.00  0.00    +0.000 A 
ATOM     24  C   UNL     1       0.820   9.695  20.158  0.00  0.00    +0.000 A 
ATOM     25 CL   UNL     1       0.273   8.450  21.277  0.00  0.00    +0.000 Cl
ENDBRANCH  17  18
ENDBRANCH   9  16
TORSDOF 2
ENDMDL
MODEL 2
REMARK VINA RESULT:      -8.5      0.123      3.660
REMARK  Name = 
REMARK  3 active torsions:
REMARK  status: ('A' for Active; 'I' for Inactive)
REMARK    1  A    between atoms: C_1  and  N_2
REMARK    2  A    between atoms: C_9  and  C_10
REMARK    3  A    between atoms: C_11  and  C_12
REMARK                            x       y       z     vdW  Elec       q    Type
REMARK                         _______ _______ _______ _____ _____    ______ ____
ROOT
ATOM      1  C   UNL     1       4.008   1.781  17.374  0.00  0.00    +0.000 C 
ATOM      2  N   UNL     1       3.704   3.150  17.870  0.00  0.00    +0.000 N 
ATOM      3  C   UNL     1       2.913   3.378  18.990  0.00  0.00    +0.000 A 
ATOM      4  C   UNL     1       2.320   2.320  19.739  0.00  0.00    +0.000 A 
ATOM      5  C   UNL     1       1.500   2.572  20.836  0.00  0.00    +0.000 A 
ATOM      6  C   UNL     1       1.240   3.872  21.231  0.00  0.00    +0.000 A 
ATOM      7  C   UNL     1       1.805   4.935  20.537  0.00  0.00    +0.000 A 
ATOM      8  C   UNL     1       2.644   4.715  19.418  0.00  0.00    +0.000 A 
ATOM      9  C   UNL     1       3.200   5.808  18.718  0.00  0.00    +0.000 A 
ATOM     10  C   UNL     1       3.999   5.562  17.583  0.00  0.00    +0.000 A 
ATOM     11  C   UNL     1       4.568   6.630  16.849  0.00  0.00    +0.000 A 
ATOM     12  C   UNL     1       5.336   6.390  15.713  0.00  0.00    +0.000 A 
ATOM     13  C   UNL     1       5.552   5.090  15.281  0.00  0.00    +0.000 A 
ATOM     14  C   UNL     1       5.017   4.021  15.989  0.00  0.00    +0.000 A 
ATOM     15  C   UNL     1       4.232   4.220  17.161  0.00  0.00    +0.000 A 
ENDROOT
BRANCH   9  16
ATOM     16  C   UNL     1       2.882   7.209  19.139  0.00  0.00    +0.000 C 
ATOM     17  C   UNL     1       1.816   7.883  18.660  0.00  0.00    +0.000 C 
BRANCH  17  18
ATOM     18  C   UNL     1       1.469   9.306  19.006  0.00  0.00    +0.000 A 
ATOM     19  C   UNL     1       1.817  10.392  18.166  0.00  0.00    +0.000 A 
ATOM     20  C   UNL     1       1.467  11.704  18.500  0.00  0.00    +0.000 A 
ATOM     21  C   UNL     1       0.767  11.966  19.675  0.00  0.00    +0.000 A 
ATOM     22 CL   UNL     1       0.324  13.617  20.089  0.00  0.00    +0.000 Cl
ATOM     23  C   UNL     1       0.415  10.915  20.523  0.00  0.00    +0.000 A 
ATOM     24  C   UNL     1       0.756   9.596  20.199  0.00  0.00    +0.000 A 
ATOM     25 CL   UNL     1       0.262   8.340  21.331  0.00  0.00    +0.000 Cl
ENDBRANCH  17  18
ENDBRANCH   9  16
TORSDOF 2
ENDMDL
MODEL 3
REMARK VINA RESULT:      -8.0      1.176      1.612
REMARK  Name = 
REMARK  3 active torsions:
REMARK  status: ('A' for Active; 'I' for Inactive)
REMARK    1  A    between atoms: C_1  and  N_2
REMARK    2  A    between atoms: C_9  and  C_10
REMARK    3  A    between atoms: C_11  and  C_12
REMARK                            x       y       z     vdW  Elec       q    Type
REMARK                         _______ _______ _______ _____ _____    ______ ____
ROOT
ATOM      1  C   UNL     1       4.074   1.894  17.496  0.00  0.00    +0.000 C 
ATOM      2  N   UNL     1       3.725   3.241  18.019  0.00  0.00    +0.000 N 
ATOM      3  C   UNL     1       4.126   4.413  17.387  0.00  0.00    +0.000 A 
ATOM      4  C   UNL     1       4.916   4.413  16.200  0.00  0.00    +0.000 A 
ATOM      5  C   UNL     1       5.339   5.598  15.604  0.00  0.00    +0.000 A 
ATOM      6  C   UNL     1       4.996   6.819  16.156  0.00  0.00    +0.000 A 
ATOM      7  C   UNL     1       4.219   6.869  17.306  0.00  0.00    +0.000 A 
ATOM      8  C   UNL     1       3.770   5.683  17.938  0.00  0.00    +0.000 A 
ATOM      9  C   UNL     1       2.991   5.752  19.114  0.00  0.00    +0.000 A 
ATOM     10  C   UNL     1       2.593   4.556  19.744  0.00  0.00    +0.000 A 
ATOM     11  C   UNL     1       1.818   4.582  20.929  0.00  0.00    +0.000 A 
ATOM     12  C   UNL     1       1.445   3.402  21.567  0.00  0.00    +0.000 A 
ATOM     13  C   UNL     1       1.835   2.177  21.049  0.00  0.00    +0.000 A 
ATOM     14  C   UNL     1       2.585   2.120  19.880  0.00  0.00    +0.000 A 
ATOM     15  C   UNL     1       2.981   3.301  19.189  0.00  0.00    +0.000 A 
ENDROOT
BRANCH   9  16
ATOM     16  C   UNL     1       2.657   7.080  19.715  0.00  0.00    +0.000 C 
ATOM     17  C   UNL     1       1.416   7.607  19.662  0.00  0.00    +0.000 C 
BRANCH  17  18
ATOM     18  C   UNL     1       1.028   8.956  20.205  0.00  0.00    +0.000 A 
ATOM     19  C   UNL     1       0.493   9.119  21.506  0.00  0.00    +0.000 A 
ATOM     20  C   UNL     1       0.157  10.386  21.995  0.00  0.00    +0.000 A 
ATOM     21  C   UNL     1       0.344  11.516  21.203  0.00  0.00    +0.000 A 
ATOM     22 CL   UNL     1      -0.074  13.107  21.825  0.00  0.00    +0.000 Cl
ATOM     23  C   UNL     1       0.867  11.384  19.917  0.00  0.00    +0.000 A 
ATOM     24  C   UNL     1       1.211  10.122  19.415  0.00  0.00    +0.000 A 
ATOM     25 CL   UNL     1       1.868  10.061  17.782  0.00  0.00    +0.000 Cl
ENDBRANCH  17  18
ENDBRANCH   9  16
TORSDOF 2
ENDMDL
MODEL 4
REMARK VINA RESULT:      -7.9      1.249      4.027
REMARK  Name = 
REMARK  3 active torsions:
REMARK  status: ('A' for Active; 'I' for Inactive)
REMARK    1  A    between atoms: C_1  and  N_2
REMARK    2  A    between atoms: C_9  and  C_10
REMARK    3  A    between atoms: C_11  and  C_12
REMARK                            x       y       z     vdW  Elec       q    Type
REMARK                         _______ _______ _______ _____ _____    ______ ____
ROOT
ATOM      1  C   UNL     1       4.159   2.078  17.345  0.00  0.00    +0.000 C 
ATOM      2  N   UNL     1       3.768   3.347  18.013  0.00  0.00    +0.000 N 
ATOM      3  C   UNL     1       3.032   3.372  19.193  0.00  0.00    +0.000 A 
ATOM      4  C   UNL     1       2.583   2.185  19.843  0.00  0.00    +0.000 A 
ATOM      5  C   UNL     1       1.816   2.234  21.003  0.00  0.00    +0.000 A 
ATOM      6  C   UNL     1       1.468   3.451  21.562  0.00  0.00    +0.000 A 
ATOM      7  C   UNL     1       1.893   4.634  20.970  0.00  0.00    +0.000 A 
ATOM      8  C   UNL     1       2.676   4.622  19.790  0.00  0.00    +0.000 A 
ATOM      9  C   UNL     1       3.089   5.834  19.194  0.00  0.00    +0.000 A 
ATOM     10  C   UNL     1       3.832   5.793  17.998  0.00  0.00    +0.000 A 
ATOM     11  C   UNL     1       4.257   6.986  17.365  0.00  0.00    +0.000 A 
ATOM     12  C   UNL     1       4.970   6.949  16.170  0.00  0.00    +0.000 A 
ATOM     13  C   UNL     1       5.271   5.732  15.577  0.00  0.00    +0.000 A 
ATOM     14  C   UNL     1       4.877   4.544  16.182  0.00  0.00    +0.000 A 
ATOM     15  C   UNL     1       4.155   4.535  17.409  0.00  0.00    +0.000 A 
ENDROOT
BRANCH   9  16
ATOM     16  C   UNL     1       2.676   7.142  19.793  0.00  0.00    +0.000 C 
ATOM     17  C   UNL     1       1.383   7.476  19.980  0.00  0.00    +0.000 C 
BRANCH  17  18
ATOM     18  C   UNL     1       0.903   8.791  20.533  0.00  0.00    +0.000 A 
ATOM     19  C   UNL     1       0.407   8.917  21.853  0.00  0.00    +0.000 A 
ATOM     20  C   UNL     1      -0.016  10.155  22.350  0.00  0.00    +0.000 A 
ATOM     21  C   UNL     1       0.043  11.291  21.547  0.00  0.00    +0.000 A 
ATOM     22 CL   UNL     1      -0.485  12.845  22.178  0.00  0.00    +0.000 Cl
ATOM     23  C   UNL     1       0.523  11.194  20.240  0.00  0.00    +0.000 A 
ATOM     24  C   UNL     1       0.953   9.962  19.731  0.00  0.00    +0.000 A 
ATOM     25 CL   UNL     1       1.548   9.944  18.073  0.00  0.00    +0.000 Cl
ENDBRANCH  17  18
ENDBRANCH   9  16
TORSDOF 2
ENDMDL
MODEL 5
REMARK VINA RESULT:      -7.3      1.302      1.311
REMARK  Name = 
REMARK  3 active torsions:
REMARK  status: ('A' for Active; 'I' for Inactive)
REMARK    1  A    between atoms: C_1  and  N_2
REMARK    2  A    between atoms: C_9  and  C_10
REMARK    3  A    between atoms: C_11  and  C_12
REMARK                            x       y       z     vdW  Elec       q    Type
REMARK                         _______ _______ _______ _____ _____    ______ ____
ROOT
ATOM      1  C   UNL     1       5.238   2.348  19.317  0.00  0.00    +0.000 C 
ATOM      2  N   UNL     1       4.530   3.637  19.094  0.00  0.00    +0.000 N 
ATOM      3  C   UNL     1       5.118   4.703  18.422  0.00  0.00    +0.000 A 
ATOM      4  C   UNL     1       6.448   4.648  17.910  0.00  0.00    +0.000 A 
ATOM      5  C   UNL     1       7.030   5.741  17.274  0.00  0.00    +0.000 A 
ATOM      6  C   UNL     1       6.322   6.919  17.119  0.00  0.00    +0.000 A 
ATOM      7  C   UNL     1       5.019   7.015  17.591  0.00  0.00    +0.000 A 
ATOM      8  C   UNL     1       4.395   5.923  18.242  0.00  0.00    +0.000 A 
ATOM      9  C   UNL     1       3.074   6.042  18.727  0.00  0.00    +0.000 A 
ATOM     10  C   UNL     1       2.492   4.954  19.408  0.00  0.00    +0.000 A 
ATOM     11  C   UNL     1       1.174   5.035  19.916  0.00  0.00    +0.000 A 
ATOM     12  C   UNL     1       0.606   3.971  20.611  0.00  0.00    +0.000 A 
ATOM     13  C   UNL     1       1.333   2.809  20.819  0.00  0.00    +0.000 A 
ATOM     14  C   UNL     1       2.625   2.695  20.319  0.00  0.00    +0.000 A 
ATOM     15  C   UNL     1       3.242   3.756  19.596  0.00  0.00    +0.000 A 
ENDROOT
BRANCH   9  16
ATOM     16  C   UNL     1       2.335   7.335  18.580  0.00  0.00    +0.000 C 
ATOM     17  C   UNL     1       1.984   8.092  19.640  0.00  0.00    +0.000 C 
BRANCH  17  18
ATOM     18  C   UNL     1       1.200   9.375  19.561  0.00  0.00    +0.000 A 
ATOM     19  C   UNL     1       1.484  10.373  18.598  0.00  0.00    +0.000 A 
ATOM     20  C   UNL     1       0.730  11.549  18.533  0.00  0.00    +0.000 A 
ATOM     21  C   UNL     1      -0.321  11.759  19.423  0.00  0.00    +0.000 A 
ATOM     22 CL   UNL     1      -1.270  13.236  19.334  0.00  0.00    +0.000 Cl
ATOM     23  C   UNL     1      -0.620  10.793  20.385  0.00  0.00    +0.000 A 
ATOM     24  C   UNL     1       0.125   9.609  20.459  0.00  0.00    +0.000 A 
ATOM     25 CL   UNL     1      -0.334   8.451  21.704  0.00  0.00    +0.000 Cl
ENDBRANCH  17  18
ENDBRANCH   9  16
TORSDOF 2
ENDMDL
MODEL 6
REMARK VINA RESULT:      -7.1      1.803      4.271
REMARK  Name = 
REMARK  3 active torsions:
REMARK  status: ('A' for Active; 'I' for Inactive)
REMARK    1  A    between atoms: C_1  and  N_2
REMARK    2  A    between atoms: C_9  and  C_10
REMARK    3  A    between atoms: C_11  and  C_12
REMARK                            x       y       z     vdW  Elec       q    Type
REMARK                         _______ _______ _______ _____ _____    ______ ____
ROOT
ATOM      1  C   UNL     1       5.101   3.205  17.918  0.00  0.00    +0.000 C 
ATOM      2  N   UNL     1       4.140   4.132  18.573  0.00  0.00    +0.000 N 
ATOM      3  C   UNL     1       3.383   3.762  19.678  0.00  0.00    +0.000 A 
ATOM      4  C   UNL     1       3.456   2.461  20.258  0.00  0.00    +0.000 A 
ATOM      5  C   UNL     1       2.661   2.099  21.341  0.00  0.00    +0.000 A 
ATOM      6  C   UNL     1       1.770   3.005  21.889  0.00  0.00    +0.000 A 
ATOM      7  C   UNL     1       1.672   4.287  21.364  0.00  0.00    +0.000 A 
ATOM      8  C   UNL     1       2.467   4.690  20.264  0.00  0.00    +0.000 A 
ATOM      9  C   UNL     1       2.345   5.994  19.735  0.00  0.00    +0.000 A 
ATOM     10  C   UNL     1       3.118   6.355  18.613  0.00  0.00    +0.000 A 
ATOM     11  C   UNL     1       3.019   7.649  18.049  0.00  0.00    +0.000 A 
ATOM     12  C   UNL     1       3.763   8.000  16.925  0.00  0.00    +0.000 A 
ATOM     13  C   UNL     1       4.614   7.076  16.338  0.00  0.00    +0.000 A 
ATOM     14  C   UNL     1       4.742   5.802  16.879  0.00  0.00    +0.000 A 
ATOM     15  C   UNL     1       4.007   5.404  18.032  0.00  0.00    +0.000 A 
ENDROOT
BRANCH   9  16
ATOM     16  C   UNL     1       1.353   6.950  20.319  0.00  0.00    +0.000 C 
ATOM     17  C   UNL     1       1.685   8.209  20.674  0.00  0.00    +0.000 C 
BRANCH  17  18
ATOM     18  C   UNL     1       0.748   9.201  21.309  0.00  0.00    +0.000 A 
ATOM     19  C   UNL     1       0.249   9.031  22.624  0.00  0.00    +0.000 A 
ATOM     20  C   UNL     1      -0.606   9.976  23.199  0.00  0.00    +0.000 A 
ATOM     21  C   UNL     1      -0.985  11.108  22.482  0.00  0.00    +0.000 A 
ATOM     22 CL   UNL     1      -2.056  12.297  23.212  0.00  0.00    +0.000 Cl
ATOM     23  C   UNL     1      -0.511  11.299  21.183  0.00  0.00    +0.000 A 
ATOM     24  C   UNL     1       0.348  10.362  20.596  0.00  0.00    +0.000 A 
ATOM     25 CL   UNL     1       0.895  10.695  18.955  0.00  0.00    +0.000 Cl
ENDBRANCH  17  18
ENDBRANCH   9  16
TORSDOF 2
ENDMDL
MODEL 7
REMARK VINA RESULT:      -7.0      3.795      8.368
REMARK  Name = 
REMARK  3 active torsions:
REMARK  status: ('A' for Active; 'I' for Inactive)
REMARK    1  A    between atoms: C_1  and  N_2
REMARK    2  A    between atoms: C_9  and  C_10
REMARK    3  A    between atoms: C_11  and  C_12
REMARK                            x       y       z     vdW  Elec       q    Type
REMARK                         _______ _______ _______ _____ _____    ______ ____
ROOT
ATOM      1  C   UNL     1      -3.221  13.770  20.279  0.00  0.00    +0.000 C 
ATOM      2  N   UNL     1      -2.149  12.829  19.859  0.00  0.00    +0.000 N 
ATOM      3  C   UNL     1      -0.832  12.962  20.285  0.00  0.00    +0.000 A 
ATOM      4  C   UNL     1      -0.405  14.019  21.142  0.00  0.00    +0.000 A 
ATOM      5  C   UNL     1       0.926  14.155  21.525  0.00  0.00    +0.000 A 
ATOM      6  C   UNL     1       1.878  13.255  21.080  0.00  0.00    +0.000 A 
ATOM      7  C   UNL     1       1.507  12.203  20.253  0.00  0.00    +0.000 A 
ATOM      8  C   UNL     1       0.161  12.033  19.844  0.00  0.00    +0.000 A 
ATOM      9  C   UNL     1      -0.196  10.964  18.993  0.00  0.00    +0.000 A 
ATOM     10  C   UNL     1      -1.535  10.843  18.568  0.00  0.00    +0.000 A 
ATOM     11  C   UNL     1      -1.932   9.791  17.709  0.00  0.00    +0.000 A 
ATOM     12  C   UNL     1      -3.248   9.684  17.268  0.00  0.00    +0.000 A 
ATOM     13  C   UNL     1      -4.193  10.617  17.665  0.00  0.00    +0.000 A 
ATOM     14  C   UNL     1      -3.835  11.654  18.520  0.00  0.00    +0.000 A 
ATOM     15  C   UNL     1      -2.502  11.796  19.002  0.00  0.00    +0.000 A 
ENDROOT
BRANCH   9  16
ATOM     16  C   UNL     1       0.852  10.020  18.495  0.00  0.00    +0.000 C 
ATOM     17  C   UNL     1       1.138   8.861  19.123  0.00  0.00    +0.000 C 
BRANCH  17  18
ATOM     18  C   UNL     1       2.211   7.893  18.701  0.00  0.00    +0.000 A 
ATOM     19  C   UNL     1       3.045   8.135  17.582  0.00  0.00    +0.000 A 
ATOM     20  C   UNL     1       4.047   7.229  17.220  0.00  0.00    +0.000 A 
ATOM     21  C   UNL     1       4.241   6.065  17.960  0.00  0.00    +0.000 A 
ATOM     22 CL   UNL     1       5.507   4.931  17.504  0.00  0.00    +0.000 Cl
ATOM     23  C   UNL     1       3.431   5.800  19.064  0.00  0.00    +0.000 A 
ATOM     24  C   UNL     1       2.426   6.700  19.440  0.00  0.00    +0.000 A 
ATOM     25 CL   UNL     1       1.461   6.279  20.852  0.00  0.00    +0.000 Cl
ENDBRANCH  17  18
ENDBRANCH   9  16
TORSDOF 2
ENDMDL
MODEL 8
REMARK VINA RESULT:      -7.0      3.950      8.128
REMARK  Name = 
REMARK  3 active torsions:
REMARK  status: ('A' for Active; 'I' for Inactive)
REMARK    1  A    between atoms: C_1  and  N_2
REMARK    2  A    between atoms: C_9  and  C_10
REMARK    3  A    between atoms: C_11  and  C_12
REMARK                            x       y       z     vdW  Elec       q    Type
REMARK                         _______ _______ _______ _____ _____    ______ ____
ROOT
ATOM      1  C   UNL     1      -3.943  12.852  19.782  0.00  0.00    +0.000 C 
ATOM      2  N   UNL     1      -2.782  12.040  19.331  0.00  0.00    +0.000 N 
ATOM      3  C   UNL     1      -2.803  11.298  18.156  0.00  0.00    +0.000 A 
ATOM      4  C   UNL     1      -3.944  11.245  17.302  0.00  0.00    +0.000 A 
ATOM      5  C   UNL     1      -3.958  10.465  16.149  0.00  0.00    +0.000 A 
ATOM      6  C   UNL     1      -2.849   9.715  15.798  0.00  0.00    +0.000 A 
ATOM      7  C   UNL     1      -1.711   9.744  16.594  0.00  0.00    +0.000 A 
ATOM      8  C   UNL     1      -1.662  10.527  17.773  0.00  0.00    +0.000 A 
ATOM      9  C   UNL     1      -0.501  10.535  18.577  0.00  0.00    +0.000 A 
ATOM     10  C   UNL     1      -0.494  11.291  19.766  0.00  0.00    +0.000 A 
ATOM     11  C   UNL     1       0.647  11.318  20.603  0.00  0.00    +0.000 A 
ATOM     12  C   UNL     1       0.647  12.043  21.791  0.00  0.00    +0.000 A 
ATOM     13  C   UNL     1      -0.482  12.751  22.175  0.00  0.00    +0.000 A 
ATOM     14  C   UNL     1      -1.613  12.753  21.366  0.00  0.00    +0.000 A 
ATOM     15  C   UNL     1      -1.653  12.032  20.138  0.00  0.00    +0.000 A 
ENDROOT
BRANCH   9  16
ATOM     16  C   UNL     1       0.677   9.692  18.200  0.00  0.00    +0.000 C 
ATOM     17  C   UNL     1       1.023   8.584  18.887  0.00  0.00    +0.000 C 
BRANCH  17  18
ATOM     18  C   UNL     1       2.221   7.723  18.589  0.00  0.00    +0.000 A 
ATOM     19  C   UNL     1       3.106   8.009  17.522  0.00  0.00    +0.000 A 
ATOM     20  C   UNL     1       4.224   7.203  17.276  0.00  0.00    +0.000 A 
ATOM     21  C   UNL     1       4.483   6.098  18.082  0.00  0.00    +0.000 A 
ATOM     22 CL   UNL     1       5.892   5.092  17.773  0.00  0.00    +0.000 Cl
ATOM     23  C   UNL     1       3.625   5.791  19.138  0.00  0.00    +0.000 A 
ATOM     24  C   UNL     1       2.504   6.591  19.399  0.00  0.00    +0.000 A 
ATOM     25 CL   UNL     1       1.485   6.124  20.757  0.00  0.00    +0.000 Cl
ENDBRANCH  17  18
ENDBRANCH   9  16
TORSDOF 2
ENDMDL
MODEL 9
REMARK VINA RESULT:      -7.0      1.287      3.909
REMARK  Name = 
REMARK  3 active torsions:
REMARK  status: ('A' for Active; 'I' for Inactive)
REMARK    1  A    between atoms: C_1  and  N_2
REMARK    2  A    between atoms: C_9  and  C_10
REMARK    3  A    between atoms: C_11  and  C_12
REMARK                            x       y       z     vdW  Elec       q    Type
REMARK                         _______ _______ _______ _____ _____    ______ ____
ROOT
ATOM      1  C   UNL     1       4.196   2.413  17.327  0.00  0.00    +0.000 C 
ATOM      2  N   UNL     1       3.686   3.652  17.973  0.00  0.00    +0.000 N 
ATOM      3  C   UNL     1       2.861   3.623  19.091  0.00  0.00    +0.000 A 
ATOM      4  C   UNL     1       2.428   2.406  19.695  0.00  0.00    +0.000 A 
ATOM      5  C   UNL     1       1.571   2.400  20.792  0.00  0.00    +0.000 A 
ATOM      6  C   UNL     1       1.115   3.590  21.331  0.00  0.00    +0.000 A 
ATOM      7  C   UNL     1       1.520   4.801  20.783  0.00  0.00    +0.000 A 
ATOM      8  C   UNL     1       2.392   4.844  19.668  0.00  0.00    +0.000 A 
ATOM      9  C   UNL     1       2.784   6.084  19.117  0.00  0.00    +0.000 A 
ATOM     10  C   UNL     1       3.619   6.097  17.982  0.00  0.00    +0.000 A 
ATOM     11  C   UNL     1       4.027   7.319  17.394  0.00  0.00    +0.000 A 
ATOM     12  C   UNL     1       4.832   7.334  16.258  0.00  0.00    +0.000 A 
ATOM     13  C   UNL     1       5.243   6.143  15.680  0.00  0.00    +0.000 A 
ATOM     14  C   UNL     1       4.869   4.928  16.243  0.00  0.00    +0.000 A 
ATOM     15  C   UNL     1       4.054   4.866  17.410  0.00  0.00    +0.000 A 
ENDROOT
BRANCH   9  16
ATOM     16  C   UNL     1       2.256   7.361  19.692  0.00  0.00    +0.000 C 
ATOM     17  C   UNL     1       1.390   8.151  19.025  0.00  0.00    +0.000 C 
BRANCH  17  18
ATOM     18  C   UNL     1       0.860   9.467  19.528  0.00  0.00    +0.000 A 
ATOM     19  C   UNL     1       1.339  10.066  20.718  0.00  0.00    +0.000 A 
ATOM     20  C   UNL     1       0.844  11.299  21.155  0.00  0.00    +0.000 A 
ATOM     21  C   UNL     1      -0.136  11.962  20.421  0.00  0.00    +0.000 A 
ATOM     22 CL   UNL     1      -0.751  13.516  20.971  0.00  0.00    +0.000 Cl
ATOM     23  C   UNL     1      -0.628  11.393  19.246  0.00  0.00    +0.000 A 
ATOM     24  C   UNL     1      -0.139  10.161  18.794  0.00  0.00    +0.000 A 
ATOM     25 CL   UNL     1      -0.820   9.529  17.298  0.00  0.00    +0.000 Cl
ENDBRANCH  17  18
ENDBRANCH   9  16
TORSDOF 2
ENDMDL
