MODEL 1
REMARK VINA RESULT:      -6.9      0.000      0.000
REMARK  Name = 
REMARK  7 active torsions:
REMARK  status: ('A' for Active; 'I' for Inactive)
REMARK    1  A    between atoms: C_2  and  C_3
REMARK    2  A    between atoms: C_3  and  C_4
REMARK    3  A    between atoms: C_4  and  C_5
REMARK    4  A    between atoms: C_5  and  O_6
REMARK    5  A    between atoms: O_6  and  C_7
REMARK    6  A    between atoms: N_15  and  C_16
REMARK    7  A    between atoms: C_16  and  C_17
REMARK                            x       y       z     vdW  Elec       q    Type
REMARK                         _______ _______ _______ _____ _____    ______ ____
ROOT
ATOM      1  C   UNL     1       4.637   2.879  19.459  0.00  0.00    +0.000 C 
ENDROOT
BRANCH   1   3
ATOM      2  O   UNL     1       5.027   5.245  19.765  0.00  0.00    +0.000 OA
ATOM      3  C   UNL     1       5.368   4.193  19.234  0.00  0.00    +0.000 C 
ATOM      4  N   UNL     1       6.440   4.093  18.382  0.00  0.00    +0.000 N 
ATOM      5  H   UNL     1       6.662   3.212  17.931  0.00  0.00    +0.000 HD
BRANCH   4   6
ATOM      6  C   UNL     1       7.252   5.238  17.992  0.00  0.00    +0.000 C 
BRANCH   6   7
ATOM      7  C   UNL     1       6.986   5.660  16.543  0.00  0.00    +0.000 C 
ATOM      8  C   UNL     1       5.513   5.726  16.165  0.00  0.00    +0.000 C 
ATOM      9  C   UNL     1       5.543   5.402  14.692  0.00  0.00    +0.000 C 
ATOM     10  C   UNL     1       6.677   4.406  14.596  0.00  0.00    +0.000 C 
ATOM     11  O   UNL     1       7.606   4.718  15.641  0.00  0.00    +0.000 OA
ENDBRANCH   6   7
ENDBRANCH   4   6
ENDBRANCH   1   3
BRANCH   1  12
ATOM     12  C   UNL     1       3.912   2.390  18.202  0.00  0.00    +0.000 C 
BRANCH  12  13
ATOM     13  C   UNL     1       2.521   1.862  18.545  0.00  0.00    +0.000 C 
BRANCH  13  14
ATOM     14  O   UNL     1       1.521   2.779  18.102  0.00  0.00    +0.000 OA
BRANCH  14  15
ATOM     15  C   UNL     1       1.629   4.048  18.620  0.00  0.00    +0.000 A 
ATOM     16  C   UNL     1       2.001   5.163  17.855  0.00  0.00    +0.000 A 
ATOM     17  C   UNL     1       2.099   6.427  18.441  0.00  0.00    +0.000 A 
ATOM     18  C   UNL     1       1.845   6.583  19.797  0.00  0.00    +0.000 A 
ATOM     19 CL   UNL     1       1.971   8.145  20.509  0.00  0.00    +0.000 Cl
ATOM     20  C   UNL     1       1.499   5.486  20.582  0.00  0.00    +0.000 A 
ATOM     21  C   UNL     1       1.399   4.220  19.993  0.00  0.00    +0.000 A 
ATOM     22 CL   UNL     1       0.955   2.892  21.007  0.00  0.00    +0.000 Cl
ENDBRANCH  14  15
ENDBRANCH  13  14
ENDBRANCH  12  13
ENDBRANCH   1  12
TORSDOF 7
ENDMDL
MODEL 2
REMARK VINA RESULT:      -6.6      2.433      3.710
REMARK  Name = 
REMARK  7 active torsions:
REMARK  status: ('A' for Active; 'I' for Inactive)
REMARK    1  A    between atoms: C_2  and  C_3
REMARK    2  A    between atoms: C_3  and  C_4
REMARK    3  A    between atoms: C_4  and  C_5
REMARK    4  A    between atoms: C_5  and  O_6
REMARK    5  A    between atoms: O_6  and  C_7
REMARK    6  A    between atoms: N_15  and  C_16
REMARK    7  A    between atoms: C_16  and  C_17
REMARK                            x       y       z     vdW  Elec       q    Type
REMARK                         _______ _______ _______ _____ _____    ______ ____
ROOT
ATOM      1  C   UNL     1       1.914   3.032  18.905  0.00  0.00    +0.000 C 
ENDROOT
BRANCH   1   3
ATOM      2  O   UNL     1       4.151   2.297  19.457  0.00  0.00    +0.000 OA
ATOM      3  C   UNL     1       3.429   3.010  18.767  0.00  0.00    +0.000 C 
ATOM      4  N   UNL     1       3.911   3.861  17.804  0.00  0.00    +0.000 N 
ATOM      5  H   UNL     1       3.283   4.464  17.285  0.00  0.00    +0.000 HD
BRANCH   4   6
ATOM      6  C   UNL     1       5.333   4.031  17.537  0.00  0.00    +0.000 C 
BRANCH   6   7
ATOM      7  C   UNL     1       5.872   5.340  18.124  0.00  0.00    +0.000 C 
ATOM      8  C   UNL     1       6.853   6.079  17.225  0.00  0.00    +0.000 C 
ATOM      9  C   UNL     1       7.734   6.789  18.223  0.00  0.00    +0.000 C 
ATOM     10  C   UNL     1       7.794   5.805  19.369  0.00  0.00    +0.000 C 
ATOM     11  O   UNL     1       6.564   5.069  19.362  0.00  0.00    +0.000 OA
ENDBRANCH   6   7
ENDBRANCH   4   6
ENDBRANCH   1   3
BRANCH   1  12
ATOM     12  C   UNL     1       1.379   4.426  19.244  0.00  0.00    +0.000 C 
BRANCH  12  13
ATOM     13  C   UNL     1       2.148   5.037  20.413  0.00  0.00    +0.000 C 
BRANCH  13  14
ATOM     14  O   UNL     1       2.906   6.162  19.973  0.00  0.00    +0.000 OA
BRANCH  14  15
ATOM     15  C   UNL     1       2.195   7.335  19.871  0.00  0.00    +0.000 A 
ATOM     16  C   UNL     1       1.375   7.829  20.896  0.00  0.00    +0.000 A 
ATOM     17  C   UNL     1       0.671   9.024  20.732  0.00  0.00    +0.000 A 
ATOM     18  C   UNL     1       0.766   9.723  19.535  0.00  0.00    +0.000 A 
ATOM     19 CL   UNL     1      -0.106  11.194  19.343  0.00  0.00    +0.000 Cl
ATOM     20  C   UNL     1       1.553   9.239  18.494  0.00  0.00    +0.000 A 
ATOM     21  C   UNL     1       2.260   8.043  18.662  0.00  0.00    +0.000 A 
ATOM     22 CL   UNL     1       3.233   7.488  17.344  0.00  0.00    +0.000 Cl
ENDBRANCH  14  15
ENDBRANCH  13  14
ENDBRANCH  12  13
ENDBRANCH   1  12
TORSDOF 7
ENDMDL
MODEL 3
REMARK VINA RESULT:      -6.4      2.615      4.115
REMARK  Name = 
REMARK  7 active torsions:
REMARK  status: ('A' for Active; 'I' for Inactive)
REMARK    1  A    between atoms: C_2  and  C_3
REMARK    2  A    between atoms: C_3  and  C_4
REMARK    3  A    between atoms: C_4  and  C_5
REMARK    4  A    between atoms: C_5  and  O_6
REMARK    5  A    between atoms: O_6  and  C_7
REMARK    6  A    between atoms: N_15  and  C_16
REMARK    7  A    between atoms: C_16  and  C_17
REMARK                            x       y       z     vdW  Elec       q    Type
REMARK                         _______ _______ _______ _____ _____    ______ ____
ROOT
ATOM      1  C   UNL     1       2.768   5.380  18.021  0.00  0.00    +0.000 C 
ENDROOT
BRANCH   1   3
ATOM      2  O   UNL     1       4.221   3.489  18.417  0.00  0.00    +0.000 OA
ATOM      3  C   UNL     1       4.006   4.526  17.798  0.00  0.00    +0.000 C 
ATOM      4  N   UNL     1       4.859   5.023  16.843  0.00  0.00    +0.000 N 
ATOM      5  H   UNL     1       4.663   5.905  16.385  0.00  0.00    +0.000 HD
BRANCH   4   6
ATOM      6  C   UNL     1       6.125   4.387  16.504  0.00  0.00    +0.000 C 
BRANCH   6   7
ATOM      7  C   UNL     1       7.324   5.200  17.003  0.00  0.00    +0.000 C 
ATOM      8  C   UNL     1       7.343   5.439  18.507  0.00  0.00    +0.000 C 
ATOM      9  C   UNL     1       8.061   6.762  18.615  0.00  0.00    +0.000 C 
ATOM     10  C   UNL     1       7.596   7.491  17.374  0.00  0.00    +0.000 C 
ATOM     11  O   UNL     1       7.325   6.501  16.375  0.00  0.00    +0.000 OA
ENDBRANCH   6   7
ENDBRANCH   4   6
ENDBRANCH   1   3
BRANCH   1  12
ATOM     12  C   UNL     1       1.959   4.931  19.240  0.00  0.00    +0.000 C 
BRANCH  12  13
ATOM     13  C   UNL     1       2.058   5.954  20.369  0.00  0.00    +0.000 C 
BRANCH  13  14
ATOM     14  O   UNL     1       2.435   7.229  19.850  0.00  0.00    +0.000 OA
BRANCH  14  15
ATOM     15  C   UNL     1       1.663   8.281  20.283  0.00  0.00    +0.000 A 
ATOM     16  C   UNL     1       1.245   8.433  21.613  0.00  0.00    +0.000 A 
ATOM     17  C   UNL     1       0.456   9.521  21.992  0.00  0.00    +0.000 A 
ATOM     18  C   UNL     1       0.063  10.454  21.042  0.00  0.00    +0.000 A 
ATOM     19 CL   UNL     1      -0.911  11.791  21.519  0.00  0.00    +0.000 Cl
ATOM     20  C   UNL     1       0.444  10.311  19.710  0.00  0.00    +0.000 A 
ATOM     21  C   UNL     1       1.237   9.221  19.333  0.00  0.00    +0.000 A 
ATOM     22 CL   UNL     1       1.694   9.093  17.670  0.00  0.00    +0.000 Cl
ENDBRANCH  14  15
ENDBRANCH  13  14
ENDBRANCH  12  13
ENDBRANCH   1  12
TORSDOF 7
ENDMDL
MODEL 4
REMARK VINA RESULT:      -6.4      2.296      3.459
REMARK  Name = 
REMARK  7 active torsions:
REMARK  status: ('A' for Active; 'I' for Inactive)
REMARK    1  A    between atoms: C_2  and  C_3
REMARK    2  A    between atoms: C_3  and  C_4
REMARK    3  A    between atoms: C_4  and  C_5
REMARK    4  A    between atoms: C_5  and  O_6
REMARK    5  A    between atoms: O_6  and  C_7
REMARK    6  A    between atoms: N_15  and  C_16
REMARK    7  A    between atoms: C_16  and  C_17
REMARK                            x       y       z     vdW  Elec       q    Type
REMARK                         _______ _______ _______ _____ _____    ______ ____
ROOT
ATOM      1  C   UNL     1       2.672   3.237  19.769  0.00  0.00    +0.000 C 
ENDROOT
BRANCH   1   3
ATOM      2  O   UNL     1       5.074   2.970  19.706  0.00  0.00    +0.000 OA
ATOM      3  C   UNL     1       4.079   3.552  19.286  0.00  0.00    +0.000 C 
ATOM      4  N   UNL     1       4.132   4.547  18.342  0.00  0.00    +0.000 N 
ATOM      5  H   UNL     1       3.289   5.031  18.053  0.00  0.00    +0.000 HD
BRANCH   4   6
ATOM      6  C   UNL     1       5.382   5.038  17.777  0.00  0.00    +0.000 C 
BRANCH   6   7
ATOM      7  C   UNL     1       5.372   4.999  16.246  0.00  0.00    +0.000 C 
ATOM      8  C   UNL     1       5.543   3.609  15.649  0.00  0.00    +0.000 C 
ATOM      9  C   UNL     1       6.229   3.902  14.338  0.00  0.00    +0.000 C 
ATOM     10  C   UNL     1       7.106   5.085  14.682  0.00  0.00    +0.000 C 
ATOM     11  O   UNL     1       6.452   5.808  15.732  0.00  0.00    +0.000 OA
ENDBRANCH   6   7
ENDBRANCH   4   6
ENDBRANCH   1   3
BRANCH   1  12
ATOM     12  C   UNL     1       1.686   4.372  19.479  0.00  0.00    +0.000 C 
BRANCH  12  13
ATOM     13  C   UNL     1       1.808   5.479  20.524  0.00  0.00    +0.000 C 
BRANCH  13  14
ATOM     14  O   UNL     1       2.600   6.552  20.017  0.00  0.00    +0.000 OA
BRANCH  14  15
ATOM     15  C   UNL     1       1.935   7.749  19.882  0.00  0.00    +0.000 A 
ATOM     16  C   UNL     1       1.094   8.277  20.872  0.00  0.00    +0.000 A 
ATOM     17  C   UNL     1       0.441   9.496  20.675  0.00  0.00    +0.000 A 
ATOM     18  C   UNL     1       0.608  10.185  19.480  0.00  0.00    +0.000 A 
ATOM     19 CL   UNL     1      -0.203  11.685  19.247  0.00  0.00    +0.000 Cl
ATOM     20  C   UNL     1       1.417   9.667  18.473  0.00  0.00    +0.000 A 
ATOM     21  C   UNL     1       2.074   8.447  18.674  0.00  0.00    +0.000 A 
ATOM     22 CL   UNL     1       3.078   7.852  17.397  0.00  0.00    +0.000 Cl
ENDBRANCH  14  15
ENDBRANCH  13  14
ENDBRANCH  12  13
ENDBRANCH   1  12
TORSDOF 7
ENDMDL
MODEL 5
REMARK VINA RESULT:      -6.3      4.330      5.704
REMARK  Name = 
REMARK  7 active torsions:
REMARK  status: ('A' for Active; 'I' for Inactive)
REMARK    1  A    between atoms: C_2  and  C_3
REMARK    2  A    between atoms: C_3  and  C_4
REMARK    3  A    between atoms: C_4  and  C_5
REMARK    4  A    between atoms: C_5  and  O_6
REMARK    5  A    between atoms: O_6  and  C_7
REMARK    6  A    between atoms: N_15  and  C_16
REMARK    7  A    between atoms: C_16  and  C_17
REMARK                            x       y       z     vdW  Elec       q    Type
REMARK                         _______ _______ _______ _____ _____    ______ ____
ROOT
ATOM      1  C   UNL     1       7.915   6.381  18.943  0.00  0.00    +0.000 C 
ENDROOT
BRANCH   1   3
ATOM      2  O   UNL     1       7.668   7.730  16.951  0.00  0.00    +0.000 OA
ATOM      3  C   UNL     1       8.038   7.653  18.118  0.00  0.00    +0.000 C 
ATOM      4  N   UNL     1       8.602   8.704  18.799  0.00  0.00    +0.000 N 
ATOM      5  H   UNL     1       8.933   8.586  19.750  0.00  0.00    +0.000 HD
BRANCH   4   6
ATOM      6  C   UNL     1       8.856  10.001  18.186  0.00  0.00    +0.000 C 
BRANCH   6   7
ATOM      7  C   UNL     1       9.750  10.883  19.064  0.00  0.00    +0.000 C 
ATOM      8  C   UNL     1       9.460  10.789  20.555  0.00  0.00    +0.000 C 
ATOM      9  C   UNL     1       9.850  12.161  21.047  0.00  0.00    +0.000 C 
ATOM     10  C   UNL     1       9.459  13.050  19.887  0.00  0.00    +0.000 C 
ATOM     11  O   UNL     1       9.580  12.268  18.693  0.00  0.00    +0.000 OA
ENDBRANCH   6   7
ENDBRANCH   4   6
ENDBRANCH   1   3
BRANCH   1  12
ATOM     12  C   UNL     1       7.805   5.128  18.072  0.00  0.00    +0.000 C 
BRANCH  12  13
ATOM     13  C   UNL     1       6.343   4.756  17.832  0.00  0.00    +0.000 C 
BRANCH  13  14
ATOM     14  O   UNL     1       5.858   3.945  18.901  0.00  0.00    +0.000 OA
BRANCH  14  15
ATOM     15  C   UNL     1       4.522   3.627  18.825  0.00  0.00    +0.000 A 
ATOM     16  C   UNL     1       3.613   4.314  18.007  0.00  0.00    +0.000 A 
ATOM     17  C   UNL     1       2.265   3.948  17.976  0.00  0.00    +0.000 A 
ATOM     18  C   UNL     1       1.814   2.906  18.775  0.00  0.00    +0.000 A 
ATOM     19 CL   UNL     1       0.151   2.464  18.730  0.00  0.00    +0.000 Cl
ATOM     20  C   UNL     1       2.692   2.225  19.614  0.00  0.00    +0.000 A 
ATOM     21  C   UNL     1       4.043   2.592  19.641  0.00  0.00    +0.000 A 
ATOM     22 CL   UNL     1       5.097   1.710  20.690  0.00  0.00    +0.000 Cl
ENDBRANCH  14  15
ENDBRANCH  13  14
ENDBRANCH  12  13
ENDBRANCH   1  12
TORSDOF 7
ENDMDL
MODEL 6
REMARK VINA RESULT:      -6.3      2.855      5.003
REMARK  Name = 
REMARK  7 active torsions:
REMARK  status: ('A' for Active; 'I' for Inactive)
REMARK    1  A    between atoms: C_2  and  C_3
REMARK    2  A    between atoms: C_3  and  C_4
REMARK    3  A    between atoms: C_4  and  C_5
REMARK    4  A    between atoms: C_5  and  O_6
REMARK    5  A    between atoms: O_6  and  C_7
REMARK    6  A    between atoms: N_15  and  C_16
REMARK    7  A    between atoms: C_16  and  C_17
REMARK                            x       y       z     vdW  Elec       q    Type
REMARK                         _______ _______ _______ _____ _____    ______ ____
ROOT
ATOM      1  C   UNL     1       5.684   4.663  18.461  0.00  0.00    +0.000 C 
ENDROOT
BRANCH   1   3
ATOM      2  O   UNL     1       5.073   2.879  19.973  0.00  0.00    +0.000 OA
ATOM      3  C   UNL     1       4.902   3.433  18.893  0.00  0.00    +0.000 C 
ATOM      4  N   UNL     1       3.990   3.000  17.961  0.00  0.00    +0.000 N 
ATOM      5  H   UNL     1       3.910   3.462  17.063  0.00  0.00    +0.000 HD
BRANCH   4   6
ATOM      6  C   UNL     1       3.167   1.813  18.150  0.00  0.00    +0.000 C 
BRANCH   6   7
ATOM      7  C   UNL     1       1.849   2.138  18.860  0.00  0.00    +0.000 C 
ATOM      8  C   UNL     1       1.404   3.588  18.733  0.00  0.00    +0.000 C 
ATOM      9  C   UNL     1       0.639   3.805  20.014  0.00  0.00    +0.000 C 
ATOM     10  C   UNL     1       1.405   2.955  21.004  0.00  0.00    +0.000 C 
ATOM     11  O   UNL     1       1.978   1.865  20.272  0.00  0.00    +0.000 OA
ENDBRANCH   6   7
ENDBRANCH   4   6
ENDBRANCH   1   3
BRANCH   1  12
ATOM     12  C   UNL     1       4.773   5.805  18.002  0.00  0.00    +0.000 C 
BRANCH  12  13
ATOM     13  C   UNL     1       3.886   6.288  19.147  0.00  0.00    +0.000 C 
BRANCH  13  14
ATOM     14  O   UNL     1       2.691   6.874  18.633  0.00  0.00    +0.000 OA
BRANCH  14  15
ATOM     15  C   UNL     1       2.002   7.661  19.526  0.00  0.00    +0.000 A 
ATOM     16  C   UNL     1       1.644   7.232  20.812  0.00  0.00    +0.000 A 
ATOM     17  C   UNL     1       0.939   8.075  21.674  0.00  0.00    +0.000 A 
ATOM     18  C   UNL     1       0.571   9.346  21.250  0.00  0.00    +0.000 A 
ATOM     19 CL   UNL     1      -0.299  10.377  22.319  0.00  0.00    +0.000 Cl
ATOM     20  C   UNL     1       0.893   9.785  19.969  0.00  0.00    +0.000 A 
ATOM     21  C   UNL     1       1.602   8.939  19.108  0.00  0.00    +0.000 A 
ATOM     22 CL   UNL     1       1.989   9.533  17.530  0.00  0.00    +0.000 Cl
ENDBRANCH  14  15
ENDBRANCH  13  14
ENDBRANCH  12  13
ENDBRANCH   1  12
TORSDOF 7
ENDMDL
MODEL 7
REMARK VINA RESULT:      -6.3      5.816      8.574
REMARK  Name = 
REMARK  7 active torsions:
REMARK  status: ('A' for Active; 'I' for Inactive)
REMARK    1  A    between atoms: C_2  and  C_3
REMARK    2  A    between atoms: C_3  and  C_4
REMARK    3  A    between atoms: C_4  and  C_5
REMARK    4  A    between atoms: C_5  and  O_6
REMARK    5  A    between atoms: O_6  and  C_7
REMARK    6  A    between atoms: N_15  and  C_16
REMARK    7  A    between atoms: C_16  and  C_17
REMARK                            x       y       z     vdW  Elec       q    Type
REMARK                         _______ _______ _______ _____ _____    ______ ____
ROOT
ATOM      1  C   UNL     1       7.969   7.195  18.227  0.00  0.00    +0.000 C 
ENDROOT
BRANCH   1   3
ATOM      2  O   UNL     1       7.359   6.013  16.208  0.00  0.00    +0.000 OA
ATOM      3  C   UNL     1       7.088   6.300  17.369  0.00  0.00    +0.000 C 
ATOM      4  N   UNL     1       5.962   5.849  18.013  0.00  0.00    +0.000 N 
ATOM      5  H   UNL     1       5.754   6.146  18.960  0.00  0.00    +0.000 HD
BRANCH   4   6
ATOM      6  C   UNL     1       4.957   5.018  17.363  0.00  0.00    +0.000 C 
BRANCH   6   7
ATOM      7  C   UNL     1       4.602   3.788  18.205  0.00  0.00    +0.000 C 
ATOM      8  C   UNL     1       3.512   2.908  17.610  0.00  0.00    +0.000 C 
ATOM      9  C   UNL     1       2.866   2.318  18.838  0.00  0.00    +0.000 C 
ATOM     10  C   UNL     1       2.966   3.448  19.838  0.00  0.00    +0.000 C 
ATOM     11  O   UNL     1       4.134   4.208  19.505  0.00  0.00    +0.000 OA
ENDBRANCH   6   7
ENDBRANCH   4   6
ENDBRANCH   1   3
BRANCH   1  12
ATOM     12  C   UNL     1       7.960   8.651  17.755  0.00  0.00    +0.000 C 
BRANCH  12  13
ATOM     13  C   UNL     1       8.788   9.532  18.687  0.00  0.00    +0.000 C 
BRANCH  13  14
ATOM     14  O   UNL     1       9.480  10.532  17.939  0.00  0.00    +0.000 OA
BRANCH  14  15
ATOM     15  C   UNL     1       9.819  11.657  18.653  0.00  0.00    +0.000 A 
ATOM     16  C   UNL     1      10.832  11.677  19.622  0.00  0.00    +0.000 A 
ATOM     17  C   UNL     1      11.127  12.850  20.320  0.00  0.00    +0.000 A 
ATOM     18  C   UNL     1      10.400  14.007  20.068  0.00  0.00    +0.000 A 
ATOM     19 CL   UNL     1      10.771  15.447  20.934  0.00  0.00    +0.000 Cl
ATOM     20  C   UNL     1       9.373  14.005  19.128  0.00  0.00    +0.000 A 
ATOM     21  C   UNL     1       9.080  12.828  18.428  0.00  0.00    +0.000 A 
ATOM     22 CL   UNL     1       7.803  12.878  17.264  0.00  0.00    +0.000 Cl
ENDBRANCH  14  15
ENDBRANCH  13  14
ENDBRANCH  12  13
ENDBRANCH   1  12
TORSDOF 7
ENDMDL
MODEL 8
REMARK VINA RESULT:      -6.2      6.020      8.666
REMARK  Name = 
REMARK  7 active torsions:
REMARK  status: ('A' for Active; 'I' for Inactive)
REMARK    1  A    between atoms: C_2  and  C_3
REMARK    2  A    between atoms: C_3  and  C_4
REMARK    3  A    between atoms: C_4  and  C_5
REMARK    4  A    between atoms: C_5  and  O_6
REMARK    5  A    between atoms: O_6  and  C_7
REMARK    6  A    between atoms: N_15  and  C_16
REMARK    7  A    between atoms: C_16  and  C_17
REMARK                            x       y       z     vdW  Elec       q    Type
REMARK                         _______ _______ _______ _____ _____    ______ ____
ROOT
ATOM      1  C   UNL     1       7.911   7.289  18.250  0.00  0.00    +0.000 C 
ENDROOT
BRANCH   1   3
ATOM      2  O   UNL     1       7.441   6.197  16.145  0.00  0.00    +0.000 OA
ATOM      3  C   UNL     1       7.049   6.520  17.261  0.00  0.00    +0.000 C 
ATOM      4  N   UNL     1       5.793   6.225  17.732  0.00  0.00    +0.000 N 
ATOM      5  H   UNL     1       5.495   6.547  18.646  0.00  0.00    +0.000 HD
BRANCH   4   6
ATOM      6  C   UNL     1       4.789   5.535  16.933  0.00  0.00    +0.000 C 
BRANCH   6   7
ATOM      7  C   UNL     1       3.491   5.310  17.716  0.00  0.00    +0.000 C 
ATOM      8  C   UNL     1       3.127   6.438  18.672  0.00  0.00    +0.000 C 
ATOM      9  C   UNL     1       2.376   5.711  19.759  0.00  0.00    +0.000 C 
ATOM     10  C   UNL     1       3.094   4.381  19.823  0.00  0.00    +0.000 C 
ATOM     11  O   UNL     1       3.606   4.111  18.512  0.00  0.00    +0.000 OA
ENDBRANCH   6   7
ENDBRANCH   4   6
ENDBRANCH   1   3
BRANCH   1  12
ATOM     12  C   UNL     1       8.067   8.763  17.868  0.00  0.00    +0.000 C 
BRANCH  12  13
ATOM     13  C   UNL     1       8.958   9.495  18.870  0.00  0.00    +0.000 C 
BRANCH  13  14
ATOM     14  O   UNL     1       9.394  10.740  18.325  0.00  0.00    +0.000 OA
BRANCH  14  15
ATOM     15  C   UNL     1       9.617  11.730  19.253  0.00  0.00    +0.000 A 
ATOM     16  C   UNL     1       9.351  11.576  20.622  0.00  0.00    +0.000 A 
ATOM     17  C   UNL     1       9.593  12.621  21.516  0.00  0.00    +0.000 A 
ATOM     18  C   UNL     1      10.084  13.833  21.047  0.00  0.00    +0.000 A 
ATOM     19 CL   UNL     1      10.378  15.114  22.158  0.00  0.00    +0.000 Cl
ATOM     20  C   UNL     1      10.332  14.018  19.690  0.00  0.00    +0.000 A 
ATOM     21  C   UNL     1      10.091  12.968  18.796  0.00  0.00    +0.000 A 
ATOM     22 CL   UNL     1      10.425  13.242  17.121  0.00  0.00    +0.000 Cl
ENDBRANCH  14  15
ENDBRANCH  13  14
ENDBRANCH  12  13
ENDBRANCH   1  12
TORSDOF 7
ENDMDL
MODEL 9
REMARK VINA RESULT:      -6.2      5.904      8.455
REMARK  Name = 
REMARK  7 active torsions:
REMARK  status: ('A' for Active; 'I' for Inactive)
REMARK    1  A    between atoms: C_2  and  C_3
REMARK    2  A    between atoms: C_3  and  C_4
REMARK    3  A    between atoms: C_4  and  C_5
REMARK    4  A    between atoms: C_5  and  O_6
REMARK    5  A    between atoms: O_6  and  C_7
REMARK    6  A    between atoms: N_15  and  C_16
REMARK    7  A    between atoms: C_16  and  C_17
REMARK                            x       y       z     vdW  Elec       q    Type
REMARK                         _______ _______ _______ _____ _____    ______ ____
ROOT
ATOM      1  C   UNL     1       7.956   7.391  18.175  0.00  0.00    +0.000 C 
ENDROOT
BRANCH   1   3
ATOM      2  O   UNL     1       7.520   6.128  16.159  0.00  0.00    +0.000 OA
ATOM      3  C   UNL     1       7.103   6.559  17.229  0.00  0.00    +0.000 C 
ATOM      4  N   UNL     1       5.826   6.338  17.683  0.00  0.00    +0.000 N 
ATOM      5  H   UNL     1       5.509   6.748  18.554  0.00  0.00    +0.000 HD
BRANCH   4   6
ATOM      6  C   UNL     1       4.827   5.606  16.915  0.00  0.00    +0.000 C 
BRANCH   6   7
ATOM      7  C   UNL     1       3.562   5.335  17.736  0.00  0.00    +0.000 C 
ATOM      8  C   UNL     1       3.304   6.340  18.849  0.00  0.00    +0.000 C 
ATOM      9  C   UNL     1       2.573   5.508  19.873  0.00  0.00    +0.000 C 
ATOM     10  C   UNL     1       3.227   4.152  19.722  0.00  0.00    +0.000 C 
ATOM     11  O   UNL     1       3.657   4.037  18.361  0.00  0.00    +0.000 OA
ENDBRANCH   6   7
ENDBRANCH   4   6
ENDBRANCH   1   3
BRANCH   1  12
ATOM     12  C   UNL     1       8.042   8.858  17.747  0.00  0.00    +0.000 C 
BRANCH  12  13
ATOM     13  C   UNL     1       8.862   9.670  18.747  0.00  0.00    +0.000 C 
BRANCH  13  14
ATOM     14  O   UNL     1       9.671  10.626  18.062  0.00  0.00    +0.000 OA
BRANCH  14  15
ATOM     15  C   UNL     1       9.346  11.940  18.307  0.00  0.00    +0.000 A 
ATOM     16  C   UNL     1       8.355  12.633  17.597  0.00  0.00    +0.000 A 
ATOM     17  C   UNL     1       8.073  13.970  17.887  0.00  0.00    +0.000 A 
ATOM     18  C   UNL     1       8.792  14.628  18.877  0.00  0.00    +0.000 A 
ATOM     19 CL   UNL     1       8.437  16.276  19.226  0.00  0.00    +0.000 Cl
ATOM     20  C   UNL     1       9.797  13.969  19.578  0.00  0.00    +0.000 A 
ATOM     21  C   UNL     1      10.076  12.628  19.287  0.00  0.00    +0.000 A 
ATOM     22 CL   UNL     1      11.326  11.849  20.193  0.00  0.00    +0.000 Cl
ENDBRANCH  14  15
ENDBRANCH  13  14
ENDBRANCH  12  13
ENDBRANCH   1  12
TORSDOF 7
ENDMDL
