MODEL 1
REMARK VINA RESULT:      -8.2      0.000      0.000
REMARK  Name = 
REMARK  7 active torsions:
REMARK  status: ('A' for Active; 'I' for Inactive)
REMARK    1  A    between atoms: C_1  and  C_2
REMARK    2  A    between atoms: N_6  and  C_7
REMARK    3  A    between atoms: C_7  and  C_8
REMARK    4  A    between atoms: C_8  and  C_9
REMARK    5  A    between atoms: C_13  and  N_14
REMARK    6  A    between atoms: N_14  and  C_15
REMARK    7  A    between atoms: C_19  and  C_20
REMARK                            x       y       z     vdW  Elec       q    Type
REMARK                         _______ _______ _______ _____ _____    ______ ____
ROOT
ATOM      1  C   UNL     1       4.607   4.517  17.617  0.00  0.00    +0.000 A 
ATOM      2  C   UNL     1       4.605   5.751  17.016  0.00  0.00    +0.000 A 
ATOM      3  C   UNL     1       5.786   6.393  17.438  0.00  0.00    +0.000 A 
ATOM      4  C   UNL     1       6.382   7.624  17.148  0.00  0.00    +0.000 A 
ATOM      5  C   UNL     1       7.598   7.955  17.755  0.00  0.00    +0.000 A 
ATOM      6  C   UNL     1       8.199   7.043  18.643  0.00  0.00    +0.000 A 
ATOM      7  C   UNL     1       7.630   5.796  18.938  0.00  0.00    +0.000 A 
ATOM      8  C   UNL     1       6.423   5.517  18.307  0.00  0.00    +0.000 A 
ATOM      9  O   UNL     1       5.698   4.368  18.423  0.00  0.00    +0.000 OA
ENDROOT
BRANCH   5  10
ATOM     10  N   UNL     1       8.218   9.172  17.390  0.00  0.00    +0.000 N 
ATOM     11  H   UNL     1       7.731   9.637  16.623  0.00  0.00    +0.000 HD
BRANCH  10  12
ATOM     12  C   UNL     1       8.785  10.130  18.254  0.00  0.00    +0.000 A 
ATOM     13  C   UNL     1       9.069   9.830  19.591  0.00  0.00    +0.000 A 
ATOM     14  C   UNL     1       9.555  10.803  20.455  0.00  0.00    +0.000 A 
ATOM     15  C   UNL     1       9.769  12.096  19.987  0.00  0.00    +0.000 A 
ATOM     16  C   UNL     1       9.503  12.411  18.649  0.00  0.00    +0.000 A 
ATOM     17  C   UNL     1       9.009  11.429  17.785  0.00  0.00    +0.000 A 
BRANCH  16  18
ATOM     18  C   UNL     1       9.701  13.756  18.177  0.00  0.00    +0.000 C 
ATOM     19  N   UNL     1       9.876  14.832  17.807  0.00  0.00    +0.000 NA
ENDBRANCH  16  18
ENDBRANCH  10  12
ENDBRANCH   5  10
BRANCH   1  20
ATOM     20  C   UNL     1       3.663   3.386  17.526  0.00  0.00    +0.000 C 
BRANCH  20  21
ATOM     21  C   UNL     1       2.244   3.845  17.893  0.00  0.00    +0.000 C 
BRANCH  21  27
ATOM     22  C   UNL     1       1.814   5.453  20.257  0.00  0.00    +0.000 C 
ATOM     23  C   UNL     1       1.201   4.048  20.143  0.00  0.00    +0.000 C 
ATOM     24  C   UNL     1       1.485   3.256  21.419  0.00  0.00    +0.000 C 
ATOM     25  C   UNL     1       2.822   2.612  21.120  0.00  0.00    +0.000 C 
ATOM     26  C   UNL     1       2.690   2.228  19.663  0.00  0.00    +0.000 C 
ATOM     27  N   UNL     1       1.720   3.165  19.076  0.00  0.00    +0.000 NA
ENDBRANCH  21  27
ENDBRANCH  20  21
ENDBRANCH   1  20
TORSDOF 6
ENDMDL
MODEL 2
REMARK VINA RESULT:      -8.1      5.162      8.012
REMARK  Name = 
REMARK  7 active torsions:
REMARK  status: ('A' for Active; 'I' for Inactive)
REMARK    1  A    between atoms: C_1  and  C_2
REMARK    2  A    between atoms: N_6  and  C_7
REMARK    3  A    between atoms: C_7  and  C_8
REMARK    4  A    between atoms: C_8  and  C_9
REMARK    5  A    between atoms: C_13  and  N_14
REMARK    6  A    between atoms: N_14  and  C_15
REMARK    7  A    between atoms: C_19  and  C_20
REMARK                            x       y       z     vdW  Elec       q    Type
REMARK                         _______ _______ _______ _____ _____    ______ ____
ROOT
ATOM      1  C   UNL     1       1.046  10.161  18.957  0.00  0.00    +0.000 A 
ATOM      2  C   UNL     1       1.738   9.480  17.986  0.00  0.00    +0.000 A 
ATOM      3  C   UNL     1       2.052   8.222  18.537  0.00  0.00    +0.000 A 
ATOM      4  C   UNL     1       2.687   7.076  18.050  0.00  0.00    +0.000 A 
ATOM      5  C   UNL     1       2.832   5.966  18.888  0.00  0.00    +0.000 A 
ATOM      6  C   UNL     1       2.332   6.021  20.203  0.00  0.00    +0.000 A 
ATOM      7  C   UNL     1       1.676   7.152  20.710  0.00  0.00    +0.000 A 
ATOM      8  C   UNL     1       1.559   8.227  19.835  0.00  0.00    +0.000 A 
ATOM      9  O   UNL     1       0.947   9.418  20.097  0.00  0.00    +0.000 OA
ENDROOT
BRANCH   5  10
ATOM     10  N   UNL     1       3.411   4.794  18.351  0.00  0.00    +0.000 N 
ATOM     11  H   UNL     1       2.736   4.237  17.826  0.00  0.00    +0.000 HD
BRANCH  10  12
ATOM     12  C   UNL     1       4.693   4.663  17.781  0.00  0.00    +0.000 A 
ATOM     13  C   UNL     1       5.851   4.902  18.529  0.00  0.00    +0.000 A 
ATOM     14  C   UNL     1       7.108   4.847  17.939  0.00  0.00    +0.000 A 
ATOM     15  C   UNL     1       7.221   4.547  16.584  0.00  0.00    +0.000 A 
ATOM     16  C   UNL     1       6.074   4.292  15.824  0.00  0.00    +0.000 A 
ATOM     17  C   UNL     1       4.812   4.353  16.422  0.00  0.00    +0.000 A 
BRANCH  16  18
ATOM     18  C   UNL     1       6.195   4.007  14.418  0.00  0.00    +0.000 C 
ATOM     19  N   UNL     1       6.299   3.763  13.298  0.00  0.00    +0.000 NA
ENDBRANCH  16  18
ENDBRANCH  10  12
ENDBRANCH   5  10
BRANCH   1  20
ATOM     20  C   UNL     1       0.422  11.498  18.955  0.00  0.00    +0.000 C 
BRANCH  20  21
ATOM     21  C   UNL     1      -0.733  11.545  17.943  0.00  0.00    +0.000 C 
BRANCH  21  27
ATOM     22  C   UNL     1      -2.510  10.356  15.995  0.00  0.00    +0.000 C 
ATOM     23  C   UNL     1      -2.659  10.036  17.492  0.00  0.00    +0.000 C 
ATOM     24  C   UNL     1      -4.123  10.181  17.906  0.00  0.00    +0.000 C 
ATOM     25  C   UNL     1      -4.218  11.642  18.291  0.00  0.00    +0.000 C 
ATOM     26  C   UNL     1      -2.904  11.886  19.000  0.00  0.00    +0.000 C 
ATOM     27  N   UNL     1      -1.950  10.912  18.449  0.00  0.00    +0.000 NA
ENDBRANCH  21  27
ENDBRANCH  20  21
ENDBRANCH   1  20
TORSDOF 6
ENDMDL
MODEL 3
REMARK VINA RESULT:      -8.1      4.774      6.173
REMARK  Name = 
REMARK  7 active torsions:
REMARK  status: ('A' for Active; 'I' for Inactive)
REMARK    1  A    between atoms: C_1  and  C_2
REMARK    2  A    between atoms: N_6  and  C_7
REMARK    3  A    between atoms: C_7  and  C_8
REMARK    4  A    between atoms: C_8  and  C_9
REMARK    5  A    between atoms: C_13  and  N_14
REMARK    6  A    between atoms: N_14  and  C_15
REMARK    7  A    between atoms: C_19  and  C_20
REMARK                            x       y       z     vdW  Elec       q    Type
REMARK                         _______ _______ _______ _____ _____    ______ ____
ROOT
ATOM      1  C   UNL     1       3.307   5.859  18.897  0.00  0.00    +0.000 A 
ATOM      2  C   UNL     1       3.144   6.765  17.879  0.00  0.00    +0.000 A 
ATOM      3  C   UNL     1       2.382   7.822  18.414  0.00  0.00    +0.000 A 
ATOM      4  C   UNL     1       1.928   9.047  17.914  0.00  0.00    +0.000 A 
ATOM      5  C   UNL     1       1.177   9.887  18.741  0.00  0.00    +0.000 A 
ATOM      6  C   UNL     1       0.895   9.487  20.062  0.00  0.00    +0.000 A 
ATOM      7  C   UNL     1       1.352   8.272  20.592  0.00  0.00    +0.000 A 
ATOM      8  C   UNL     1       2.094   7.475  19.728  0.00  0.00    +0.000 A 
ATOM      9  O   UNL     1       2.656   6.268  20.024  0.00  0.00    +0.000 OA
ENDROOT
BRANCH   5  10
ATOM     10  N   UNL     1       0.793  11.151  18.238  0.00  0.00    +0.000 N 
ATOM     11  H   UNL     1      -0.212  11.206  18.066  0.00  0.00    +0.000 HD
BRANCH  10  12
ATOM     12  C   UNL     1       1.287  12.410  18.633  0.00  0.00    +0.000 A 
ATOM     13  C   UNL     1       0.498  13.309  19.358  0.00  0.00    +0.000 A 
ATOM     14  C   UNL     1       0.966  14.578  19.675  0.00  0.00    +0.000 A 
ATOM     15  C   UNL     1       2.241  14.964  19.269  0.00  0.00    +0.000 A 
ATOM     16  C   UNL     1       3.049  14.073  18.554  0.00  0.00    +0.000 A 
ATOM     17  C   UNL     1       2.571  12.799  18.234  0.00  0.00    +0.000 A 
BRANCH  16  18
ATOM     18  C   UNL     1       4.356  14.486  18.115  0.00  0.00    +0.000 C 
ATOM     19  N   UNL     1       5.410  14.804  17.776  0.00  0.00    +0.000 NA
ENDBRANCH  16  18
ENDBRANCH  10  12
ENDBRANCH   5  10
BRANCH   1  20
ATOM     20  C   UNL     1       4.045   4.582  18.959  0.00  0.00    +0.000 C 
BRANCH  20  21
ATOM     21  C   UNL     1       5.559   4.841  18.949  0.00  0.00    +0.000 C 
BRANCH  21  27
ATOM     22  C   UNL     1       6.828   6.846  17.297  0.00  0.00    +0.000 C 
ATOM     23  C   UNL     1       7.113   5.352  17.074  0.00  0.00    +0.000 C 
ATOM     24  C   UNL     1       6.984   5.018  15.588  0.00  0.00    +0.000 C 
ATOM     25  C   UNL     1       5.515   4.678  15.450  0.00  0.00    +0.000 C 
ATOM     26  C   UNL     1       5.230   3.908  16.720  0.00  0.00    +0.000 C 
ATOM     27  N   UNL     1       6.201   4.383  17.718  0.00  0.00    +0.000 NA
ENDBRANCH  21  27
ENDBRANCH  20  21
ENDBRANCH   1  20
TORSDOF 6
ENDMDL
MODEL 4
REMARK VINA RESULT:      -7.9      5.466      8.474
REMARK  Name = 
REMARK  7 active torsions:
REMARK  status: ('A' for Active; 'I' for Inactive)
REMARK    1  A    between atoms: C_1  and  C_2
REMARK    2  A    between atoms: N_6  and  C_7
REMARK    3  A    between atoms: C_7  and  C_8
REMARK    4  A    between atoms: C_8  and  C_9
REMARK    5  A    between atoms: C_13  and  N_14
REMARK    6  A    between atoms: N_14  and  C_15
REMARK    7  A    between atoms: C_19  and  C_20
REMARK                            x       y       z     vdW  Elec       q    Type
REMARK                         _______ _______ _______ _____ _____    ______ ____
ROOT
ATOM      1  C   UNL     1       3.407   5.752  19.003  0.00  0.00    +0.000 A 
ATOM      2  C   UNL     1       2.957   6.506  17.948  0.00  0.00    +0.000 A 
ATOM      3  C   UNL     1       2.172   7.533  18.508  0.00  0.00    +0.000 A 
ATOM      4  C   UNL     1       1.489   8.634  17.982  0.00  0.00    +0.000 A 
ATOM      5  C   UNL     1       0.794   9.485  18.847  0.00  0.00    +0.000 A 
ATOM      6  C   UNL     1       0.798   9.219  20.230  0.00  0.00    +0.000 A 
ATOM      7  C   UNL     1       1.489   8.133  20.784  0.00  0.00    +0.000 A 
ATOM      8  C   UNL     1       2.164   7.320  19.880  0.00  0.00    +0.000 A 
ATOM      9  O   UNL     1       2.916   6.223  20.185  0.00  0.00    +0.000 OA
ENDROOT
BRANCH   5  10
ATOM     10  N   UNL     1       0.172  10.631  18.301  0.00  0.00    +0.000 N 
ATOM     11  H   UNL     1       0.681  10.997  17.496  0.00  0.00    +0.000 HD
BRANCH  10  12
ATOM     12  C   UNL     1      -1.210  10.855  18.144  0.00  0.00    +0.000 A 
ATOM     13  C   UNL     1      -1.896  10.414  17.008  0.00  0.00    +0.000 A 
ATOM     14  C   UNL     1      -3.242  10.708  16.825  0.00  0.00    +0.000 A 
ATOM     15  C   UNL     1      -3.922  11.451  17.787  0.00  0.00    +0.000 A 
ATOM     16  C   UNL     1      -3.255  11.889  18.936  0.00  0.00    +0.000 A 
ATOM     17  C   UNL     1      -1.900  11.594  19.113  0.00  0.00    +0.000 A 
BRANCH  16  18
ATOM     18  C   UNL     1      -3.956  12.678  19.915  0.00  0.00    +0.000 C 
ATOM     19  N   UNL     1      -4.502  13.321  20.699  0.00  0.00    +0.000 NA
ENDBRANCH  16  18
ENDBRANCH  10  12
ENDBRANCH   5  10
BRANCH   1  20
ATOM     20  C   UNL     1       4.298   4.577  19.052  0.00  0.00    +0.000 C 
BRANCH  20  21
ATOM     21  C   UNL     1       5.765   5.015  18.915  0.00  0.00    +0.000 C 
BRANCH  21  27
ATOM     22  C   UNL     1       6.809   7.067  17.167  0.00  0.00    +0.000 C 
ATOM     23  C   UNL     1       7.179   5.590  16.951  0.00  0.00    +0.000 C 
ATOM     24  C   UNL     1       6.994   5.222  15.480  0.00  0.00    +0.000 C 
ATOM     25  C   UNL     1       5.545   4.784  15.426  0.00  0.00    +0.000 C 
ATOM     26  C   UNL     1       5.379   4.021  16.722  0.00  0.00    +0.000 C 
ATOM     27  N   UNL     1       6.368   4.576  17.658  0.00  0.00    +0.000 NA
ENDBRANCH  21  27
ENDBRANCH  20  21
ENDBRANCH   1  20
TORSDOF 6
ENDMDL
MODEL 5
REMARK VINA RESULT:      -7.9      1.838      9.618
REMARK  Name = 
REMARK  7 active torsions:
REMARK  status: ('A' for Active; 'I' for Inactive)
REMARK    1  A    between atoms: C_1  and  C_2
REMARK    2  A    between atoms: N_6  and  C_7
REMARK    3  A    between atoms: C_7  and  C_8
REMARK    4  A    between atoms: C_8  and  C_9
REMARK    5  A    between atoms: C_13  and  N_14
REMARK    6  A    between atoms: N_14  and  C_15
REMARK    7  A    between atoms: C_19  and  C_20
REMARK                            x       y       z     vdW  Elec       q    Type
REMARK                         _______ _______ _______ _____ _____    ______ ____
ROOT
ATOM      1  C   UNL     1       8.417   8.705  18.037  0.00  0.00    +0.000 A 
ATOM      2  C   UNL     1       8.477   7.617  18.872  0.00  0.00    +0.000 A 
ATOM      3  C   UNL     1       7.457   6.742  18.449  0.00  0.00    +0.000 A 
ATOM      4  C   UNL     1       7.039   5.468  18.847  0.00  0.00    +0.000 A 
ATOM      5  C   UNL     1       5.963   4.865  18.188  0.00  0.00    +0.000 A 
ATOM      6  C   UNL     1       5.324   5.549  17.136  0.00  0.00    +0.000 A 
ATOM      7  C   UNL     1       5.734   6.819  16.706  0.00  0.00    +0.000 A 
ATOM      8  C   UNL     1       6.809   7.372  17.394  0.00  0.00    +0.000 A 
ATOM      9  O   UNL     1       7.392   8.579  17.144  0.00  0.00    +0.000 OA
ENDROOT
BRANCH   5  10
ATOM     10  N   UNL     1       5.605   3.549  18.559  0.00  0.00    +0.000 N 
ATOM     11  H   UNL     1       6.211   3.178  19.292  0.00  0.00    +0.000 HD
BRANCH  10  12
ATOM     12  C   UNL     1       4.303   3.029  18.698  0.00  0.00    +0.000 A 
ATOM     13  C   UNL     1       3.575   2.580  17.590  0.00  0.00    +0.000 A 
ATOM     14  C   UNL     1       2.263   2.142  17.726  0.00  0.00    +0.000 A 
ATOM     15  C   UNL     1       1.662   2.144  18.982  0.00  0.00    +0.000 A 
ATOM     16  C   UNL     1       2.380   2.577  20.103  0.00  0.00    +0.000 A 
ATOM     17  C   UNL     1       3.697   3.021  19.960  0.00  0.00    +0.000 A 
BRANCH  16  18
ATOM     18  C   UNL     1       1.745   2.601  21.395  0.00  0.00    +0.000 C 
ATOM     19  N   UNL     1       1.254   2.612  22.435  0.00  0.00    +0.000 NA
ENDBRANCH  16  18
ENDBRANCH  10  12
ENDBRANCH   5  10
BRANCH   1  20
ATOM     20  C   UNL     1       9.249   9.921  17.957  0.00  0.00    +0.000 C 
BRANCH  20  21
ATOM     21  C   UNL     1       8.411  11.163  18.296  0.00  0.00    +0.000 C 
BRANCH  21  27
ATOM     22  C   UNL     1      10.330  13.134  17.405  0.00  0.00    +0.000 C 
ATOM     23  C   UNL     1       9.741  13.198  18.824  0.00  0.00    +0.000 C 
ATOM     24  C   UNL     1      10.867  13.385  19.841  0.00  0.00    +0.000 C 
ATOM     25  C   UNL     1      11.270  11.961  20.158  0.00  0.00    +0.000 C 
ATOM     26  C   UNL     1       9.941  11.238  20.194  0.00  0.00    +0.000 C 
ATOM     27  N   UNL     1       9.034  11.999  19.322  0.00  0.00    +0.000 NA
ENDBRANCH  21  27
ENDBRANCH  20  21
ENDBRANCH   1  20
TORSDOF 6
ENDMDL
MODEL 6
REMARK VINA RESULT:      -7.7      5.516      6.241
REMARK  Name = 
REMARK  7 active torsions:
REMARK  status: ('A' for Active; 'I' for Inactive)
REMARK    1  A    between atoms: C_1  and  C_2
REMARK    2  A    between atoms: N_6  and  C_7
REMARK    3  A    between atoms: C_7  and  C_8
REMARK    4  A    between atoms: C_8  and  C_9
REMARK    5  A    between atoms: C_13  and  N_14
REMARK    6  A    between atoms: N_14  and  C_15
REMARK    7  A    between atoms: C_19  and  C_20
REMARK                            x       y       z     vdW  Elec       q    Type
REMARK                         _______ _______ _______ _____ _____    ______ ____
ROOT
ATOM      1  C   UNL     1       3.709   6.388  18.499  0.00  0.00    +0.000 A 
ATOM      2  C   UNL     1       3.395   7.358  17.579  0.00  0.00    +0.000 A 
ATOM      3  C   UNL     1       2.475   8.215  18.213  0.00  0.00    +0.000 A 
ATOM      4  C   UNL     1       1.826   9.396  17.839  0.00  0.00    +0.000 A 
ATOM      5  C   UNL     1       0.953  10.012  18.741  0.00  0.00    +0.000 A 
ATOM      6  C   UNL     1       0.747   9.435  20.009  0.00  0.00    +0.000 A 
ATOM      7  C   UNL     1       1.398   8.262  20.415  0.00  0.00    +0.000 A 
ATOM      8  C   UNL     1       2.255   7.691  19.480  0.00  0.00    +0.000 A 
ATOM      9  O   UNL     1       3.007   6.566  19.655  0.00  0.00    +0.000 OA
ENDROOT
BRANCH   5  10
ATOM     10  N   UNL     1       0.366  11.243  18.369  0.00  0.00    +0.000 N 
ATOM     11  H   UNL     1      -0.643  11.248  18.521  0.00  0.00    +0.000 HD
BRANCH  10  12
ATOM     12  C   UNL     1       0.893  12.533  18.572  0.00  0.00    +0.000 A 
ATOM     13  C   UNL     1       2.256  12.734  18.820  0.00  0.00    +0.000 A 
ATOM     14  C   UNL     1       2.754  14.001  19.097  0.00  0.00    +0.000 A 
ATOM     15  C   UNL     1       1.888  15.091  19.125  0.00  0.00    +0.000 A 
ATOM     16  C   UNL     1       0.525  14.911  18.867  0.00  0.00    +0.000 A 
ATOM     17  C   UNL     1       0.028  13.633  18.593  0.00  0.00    +0.000 A 
BRANCH  16  18
ATOM     18  C   UNL     1      -0.370  16.037  18.922  0.00  0.00    +0.000 C 
ATOM     19  N   UNL     1      -1.087  16.936  18.986  0.00  0.00    +0.000 NA
ENDBRANCH  16  18
ENDBRANCH  10  12
ENDBRANCH   5  10
BRANCH   1  20
ATOM     20  C   UNL     1       4.644   5.248  18.435  0.00  0.00    +0.000 C 
BRANCH  20  21
ATOM     21  C   UNL     1       4.152   4.213  17.411  0.00  0.00    +0.000 C 
BRANCH  21  27
ATOM     22  C   UNL     1       1.297   3.953  17.790  0.00  0.00    +0.000 C 
ATOM     23  C   UNL     1       2.220   2.730  17.920  0.00  0.00    +0.000 C 
ATOM     24  C   UNL     1       1.891   1.971  19.205  0.00  0.00    +0.000 C 
ATOM     25  C   UNL     1       2.777   2.650  20.229  0.00  0.00    +0.000 C 
ATOM     26  C   UNL     1       4.056   2.889  19.457  0.00  0.00    +0.000 C 
ATOM     27  N   UNL     1       3.671   2.984  18.041  0.00  0.00    +0.000 NA
ENDBRANCH  21  27
ENDBRANCH  20  21
ENDBRANCH   1  20
TORSDOF 6
ENDMDL
MODEL 7
REMARK VINA RESULT:      -7.7      6.606     10.326
REMARK  Name = 
REMARK  7 active torsions:
REMARK  status: ('A' for Active; 'I' for Inactive)
REMARK    1  A    between atoms: C_1  and  C_2
REMARK    2  A    between atoms: N_6  and  C_7
REMARK    3  A    between atoms: C_7  and  C_8
REMARK    4  A    between atoms: C_8  and  C_9
REMARK    5  A    between atoms: C_13  and  N_14
REMARK    6  A    between atoms: N_14  and  C_15
REMARK    7  A    between atoms: C_19  and  C_20
REMARK                            x       y       z     vdW  Elec       q    Type
REMARK                         _______ _______ _______ _____ _____    ______ ____
ROOT
ATOM      1  C   UNL     1      -0.673  11.598  21.063  0.00  0.00    +0.000 A 
ATOM      2  C   UNL     1      -0.151  10.468  21.642  0.00  0.00    +0.000 A 
ATOM      3  C   UNL     1       0.540   9.788  20.620  0.00  0.00    +0.000 A 
ATOM      4  C   UNL     1       1.313   8.623  20.574  0.00  0.00    +0.000 A 
ATOM      5  C   UNL     1       1.877   8.224  19.359  0.00  0.00    +0.000 A 
ATOM      6  C   UNL     1       1.659   9.003  18.205  0.00  0.00    +0.000 A 
ATOM      7  C   UNL     1       0.903  10.183  18.228  0.00  0.00    +0.000 A 
ATOM      8  C   UNL     1       0.366  10.535  19.462  0.00  0.00    +0.000 A 
ATOM      9  O   UNL     1      -0.383  11.642  19.730  0.00  0.00    +0.000 OA
ENDROOT
BRANCH   5  10
ATOM     10  N   UNL     1       2.713   7.085  19.352  0.00  0.00    +0.000 N 
ATOM     11  H   UNL     1       3.475   7.164  20.027  0.00  0.00    +0.000 HD
BRANCH  10  12
ATOM     12  C   UNL     1       2.317   5.739  19.224  0.00  0.00    +0.000 A 
ATOM     13  C   UNL     1       2.039   5.177  17.973  0.00  0.00    +0.000 A 
ATOM     14  C   UNL     1       1.573   3.872  17.863  0.00  0.00    +0.000 A 
ATOM     15  C   UNL     1       1.382   3.109  19.011  0.00  0.00    +0.000 A 
ATOM     16  C   UNL     1       1.668   3.651  20.269  0.00  0.00    +0.000 A 
ATOM     17  C   UNL     1       2.132   4.965  20.375  0.00  0.00    +0.000 A 
BRANCH  16  18
ATOM     18  C   UNL     1       1.445   2.866  21.455  0.00  0.00    +0.000 C 
ATOM     19  N   UNL     1       1.271   2.223  22.394  0.00  0.00    +0.000 NA
ENDBRANCH  16  18
ENDBRANCH  10  12
ENDBRANCH   5  10
BRANCH   1  20
ATOM     20  C   UNL     1      -1.451  12.716  21.632  0.00  0.00    +0.000 C 
BRANCH  20  21
ATOM     21  C   UNL     1      -2.911  12.643  21.159  0.00  0.00    +0.000 C 
BRANCH  21  27
ATOM     22  C   UNL     1      -5.079  14.463  21.750  0.00  0.00    +0.000 C 
ATOM     23  C   UNL     1      -5.096  13.022  22.286  0.00  0.00    +0.000 C 
ATOM     24  C   UNL     1      -5.431  13.031  23.777  0.00  0.00    +0.000 C 
ATOM     25  C   UNL     1      -4.069  13.170  24.423  0.00  0.00    +0.000 C 
ATOM     26  C   UNL     1      -3.196  12.291  23.555  0.00  0.00    +0.000 C 
ATOM     27  N   UNL     1      -3.831  12.260  22.229  0.00  0.00    +0.000 NA
ENDBRANCH  21  27
ENDBRANCH  20  21
ENDBRANCH   1  20
TORSDOF 6
ENDMDL
MODEL 8
REMARK VINA RESULT:      -7.7      6.229      9.887
REMARK  Name = 
REMARK  7 active torsions:
REMARK  status: ('A' for Active; 'I' for Inactive)
REMARK    1  A    between atoms: C_1  and  C_2
REMARK    2  A    between atoms: N_6  and  C_7
REMARK    3  A    between atoms: C_7  and  C_8
REMARK    4  A    between atoms: C_8  and  C_9
REMARK    5  A    between atoms: C_13  and  N_14
REMARK    6  A    between atoms: N_14  and  C_15
REMARK    7  A    between atoms: C_19  and  C_20
REMARK                            x       y       z     vdW  Elec       q    Type
REMARK                         _______ _______ _______ _____ _____    ______ ____
ROOT
ATOM      1  C   UNL     1      -0.264  10.092  22.051  0.00  0.00    +0.000 A 
ATOM      2  C   UNL     1       0.402   8.896  22.145  0.00  0.00    +0.000 A 
ATOM      3  C   UNL     1       0.975   8.666  20.878  0.00  0.00    +0.000 A 
ATOM      4  C   UNL     1       1.799   7.669  20.348  0.00  0.00    +0.000 A 
ATOM      5  C   UNL     1       2.201   7.753  19.011  0.00  0.00    +0.000 A 
ATOM      6  C   UNL     1       1.771   8.841  18.226  0.00  0.00    +0.000 A 
ATOM      7  C   UNL     1       0.959   9.862  18.739  0.00  0.00    +0.000 A 
ATOM      8  C   UNL     1       0.589   9.730  20.073  0.00  0.00    +0.000 A 
ATOM      9  O   UNL     1      -0.176  10.603  20.789  0.00  0.00    +0.000 OA
ENDROOT
BRANCH   5  10
ATOM     10  N   UNL     1       3.093   6.774  18.518  0.00  0.00    +0.000 N 
ATOM     11  H   UNL     1       4.065   6.993  18.739  0.00  0.00    +0.000 HD
BRANCH  10  12
ATOM     12  C   UNL     1       2.902   5.378  18.507  0.00  0.00    +0.000 A 
ATOM     13  C   UNL     1       1.808   4.797  17.856  0.00  0.00    +0.000 A 
ATOM     14  C   UNL     1       1.585   3.426  17.917  0.00  0.00    +0.000 A 
ATOM     15  C   UNL     1       2.463   2.616  18.631  0.00  0.00    +0.000 A 
ATOM     16  C   UNL     1       3.570   3.179  19.277  0.00  0.00    +0.000 A 
ATOM     17  C   UNL     1       3.787   4.558  19.217  0.00  0.00    +0.000 A 
BRANCH  16  18
ATOM     18  C   UNL     1       4.460   2.340  20.036  0.00  0.00    +0.000 C 
ATOM     19  N   UNL     1       5.158   1.665  20.654  0.00  0.00    +0.000 NA
ENDBRANCH  16  18
ENDBRANCH  10  12
ENDBRANCH   5  10
BRANCH   1  20
ATOM     20  C   UNL     1      -1.014  10.873  23.055  0.00  0.00    +0.000 C 
BRANCH  20  21
ATOM     21  C   UNL     1      -1.384  12.252  22.488  0.00  0.00    +0.000 C 
BRANCH  21  27
ATOM     22  C   UNL     1      -2.814  14.556  23.494  0.00  0.00    +0.000 C 
ATOM     23  C   UNL     1      -1.339  14.325  23.864  0.00  0.00    +0.000 C 
ATOM     24  C   UNL     1      -0.546  15.614  23.651  0.00  0.00    +0.000 C 
ATOM     25  C   UNL     1      -0.118  15.506  22.203  0.00  0.00    +0.000 C 
ATOM     26  C   UNL     1       0.221  14.039  22.063  0.00  0.00    +0.000 C 
ATOM     27  N   UNL     1      -0.586  13.331  23.069  0.00  0.00    +0.000 NA
ENDBRANCH  21  27
ENDBRANCH  20  21
ENDBRANCH   1  20
TORSDOF 6
ENDMDL
MODEL 9
REMARK VINA RESULT:      -7.7      6.153      9.750
REMARK  Name = 
REMARK  7 active torsions:
REMARK  status: ('A' for Active; 'I' for Inactive)
REMARK    1  A    between atoms: C_1  and  C_2
REMARK    2  A    between atoms: N_6  and  C_7
REMARK    3  A    between atoms: C_7  and  C_8
REMARK    4  A    between atoms: C_8  and  C_9
REMARK    5  A    between atoms: C_13  and  N_14
REMARK    6  A    between atoms: N_14  and  C_15
REMARK    7  A    between atoms: C_19  and  C_20
REMARK                            x       y       z     vdW  Elec       q    Type
REMARK                         _______ _______ _______ _____ _____    ______ ____
ROOT
ATOM      1  C   UNL     1      -0.085  10.355  21.306  0.00  0.00    +0.000 A 
ATOM      2  C   UNL     1       0.507   9.144  21.570  0.00  0.00    +0.000 A 
ATOM      3  C   UNL     1       1.138   8.748  20.375  0.00  0.00    +0.000 A 
ATOM      4  C   UNL     1       1.935   7.659  20.009  0.00  0.00    +0.000 A 
ATOM      5  C   UNL     1       2.418   7.575  18.699  0.00  0.00    +0.000 A 
ATOM      6  C   UNL     1       2.095   8.589  17.776  0.00  0.00    +0.000 A 
ATOM      7  C   UNL     1       1.313   9.698  18.122  0.00  0.00    +0.000 A 
ATOM      8  C   UNL     1       0.860   9.733  19.437  0.00  0.00    +0.000 A 
ATOM      9  O   UNL     1       0.104  10.717  20.005  0.00  0.00    +0.000 OA
ENDROOT
BRANCH   5  10
ATOM     10  N   UNL     1       3.281   6.504  18.372  0.00  0.00    +0.000 N 
ATOM     11  H   UNL     1       4.251   6.704  18.617  0.00  0.00    +0.000 HD
BRANCH  10  12
ATOM     12  C   UNL     1       3.019   5.127  18.514  0.00  0.00    +0.000 A 
ATOM     13  C   UNL     1       1.875   4.541  17.963  0.00  0.00    +0.000 A 
ATOM     14  C   UNL     1       1.585   3.199  18.174  0.00  0.00    +0.000 A 
ATOM     15  C   UNL     1       2.447   2.421  18.943  0.00  0.00    +0.000 A 
ATOM     16  C   UNL     1       3.603   2.987  19.491  0.00  0.00    +0.000 A 
ATOM     17  C   UNL     1       3.887   4.339  19.279  0.00  0.00    +0.000 A 
BRANCH  16  18
ATOM     18  C   UNL     1       4.477   2.184  20.306  0.00  0.00    +0.000 C 
ATOM     19  N   UNL     1       5.178   1.530  20.944  0.00  0.00    +0.000 NA
ENDBRANCH  16  18
ENDBRANCH  10  12
ENDBRANCH   5  10
BRANCH   1  20
ATOM     20  C   UNL     1      -0.847  11.277  22.170  0.00  0.00    +0.000 C 
BRANCH  20  21
ATOM     21  C   UNL     1      -1.761  12.172  21.317  0.00  0.00    +0.000 C 
BRANCH  21  27
ATOM     22  C   UNL     1      -2.324  14.985  21.681  0.00  0.00    +0.000 C 
ATOM     23  C   UNL     1      -3.427  13.931  21.881  0.00  0.00    +0.000 C 
ATOM     24  C   UNL     1      -4.156  14.192  23.198  0.00  0.00    +0.000 C 
ATOM     25  C   UNL     1      -3.333  13.404  24.195  0.00  0.00    +0.000 C 
ATOM     26  C   UNL     1      -2.988  12.149  23.425  0.00  0.00    +0.000 C 
ATOM     27  N   UNL     1      -3.005  12.520  22.002  0.00  0.00    +0.000 NA
ENDBRANCH  21  27
ENDBRANCH  20  21
ENDBRANCH   1  20
TORSDOF 6
ENDMDL
