MODEL 1
REMARK VINA RESULT:      -8.6      0.000      0.000
REMARK  Name = 
REMARK  5 active torsions:
REMARK  status: ('A' for Active; 'I' for Inactive)
REMARK    1  A    between atoms: C_2  and  C_3
REMARK    2  A    between atoms: C_3  and  C_4
REMARK    3  A    between atoms: N_10  and  C_11
REMARK    4  A    between atoms: C_16  and  O_17
REMARK    5  A    between atoms: O_17  and  C_18
REMARK                            x       y       z     vdW  Elec       q    Type
REMARK                         _______ _______ _______ _____ _____    ______ ____
ROOT
ATOM      1  C   UNL     1       2.326   4.326  18.380  0.00  0.00    +0.000 A 
ATOM      2  C   UNL     1       1.471   3.216  18.329  0.00  0.00    +0.000 A 
ATOM      3  C   UNL     1       0.732   2.809  19.443  0.00  0.00    +0.000 A 
ATOM      4  C   UNL     1       0.890   3.463  20.658  0.00  0.00    +0.000 A 
ATOM      5  C   UNL     1       1.730   4.568  20.732  0.00  0.00    +0.000 A 
ATOM      6  C   UNL     1       2.379   5.058  19.585  0.00  0.00    +0.000 A 
ENDROOT
BRANCH   1   9
ATOM      7  O   UNL     1       4.479   2.703  17.164  0.00  0.00    +0.000 OA
ATOM      8  C   UNL     1       4.292   3.890  16.886  0.00  0.00    +0.000 C 
ATOM      9  N   UNL     1       3.191   4.640  17.288  0.00  0.00    +0.000 N 
ATOM     10  H   UNL     1       2.977   5.494  16.785  0.00  0.00    +0.000 HD
BRANCH   8  11
ATOM     11  C   UNL     1       5.344   4.649  16.090  0.00  0.00    +0.000 C 
BRANCH  11  12
ATOM     12  C   UNL     1       6.333   5.438  16.911  0.00  0.00    +0.000 A 
ATOM     13  C   UNL     1       6.497   6.812  16.684  0.00  0.00    +0.000 A 
ATOM     14  C   UNL     1       7.347   7.570  17.494  0.00  0.00    +0.000 A 
ATOM     15  C   UNL     1       8.035   6.965  18.544  0.00  0.00    +0.000 A 
ATOM     16  C   UNL     1       7.876   5.602  18.784  0.00  0.00    +0.000 A 
ATOM     17  C   UNL     1       7.028   4.842  17.973  0.00  0.00    +0.000 A 
ENDBRANCH  11  12
ENDBRANCH   8  11
ENDBRANCH   1   9
BRANCH   6  18
ATOM     18  O   UNL     1       3.062   6.265  19.637  0.00  0.00    +0.000 OA
BRANCH  18  19
ATOM     19  C   UNL     1       2.339   7.438  19.440  0.00  0.00    +0.000 A 
ATOM     20  C   UNL     1       2.364   7.983  18.153  0.00  0.00    +0.000 A 
ATOM     21  C   UNL     1       1.655   9.157  17.864  0.00  0.00    +0.000 A 
ATOM     22  C   UNL     1       0.924   9.798  18.861  0.00  0.00    +0.000 A 
ATOM     23  C   UNL     1       0.885   9.260  20.145  0.00  0.00    +0.000 A 
ATOM     24  C   UNL     1       1.571   8.074  20.427  0.00  0.00    +0.000 A 
ENDBRANCH  18  19
ENDBRANCH   6  18
TORSDOF 5
ENDMDL
MODEL 2
REMARK VINA RESULT:      -8.6      0.082      1.008
REMARK  Name = 
REMARK  5 active torsions:
REMARK  status: ('A' for Active; 'I' for Inactive)
REMARK    1  A    between atoms: C_2  and  C_3
REMARK    2  A    between atoms: C_3  and  C_4
REMARK    3  A    between atoms: N_10  and  C_11
REMARK    4  A    between atoms: C_16  and  O_17
REMARK    5  A    between atoms: O_17  and  C_18
REMARK                            x       y       z     vdW  Elec       q    Type
REMARK                         _______ _______ _______ _____ _____    ______ ____
ROOT
ATOM      1  C   UNL     1       2.302   4.297  18.396  0.00  0.00    +0.000 A 
ATOM      2  C   UNL     1       1.443   3.192  18.333  0.00  0.00    +0.000 A 
ATOM      3  C   UNL     1       0.719   2.763  19.449  0.00  0.00    +0.000 A 
ATOM      4  C   UNL     1       0.897   3.390  20.675  0.00  0.00    +0.000 A 
ATOM      5  C   UNL     1       1.741   4.490  20.761  0.00  0.00    +0.000 A 
ATOM      6  C   UNL     1       2.375   5.003  19.615  0.00  0.00    +0.000 A 
ENDROOT
BRANCH   1   9
ATOM      7  O   UNL     1       4.475   2.720  17.155  0.00  0.00    +0.000 OA
ATOM      8  C   UNL     1       4.264   3.904  16.884  0.00  0.00    +0.000 C 
ATOM      9  N   UNL     1       3.153   4.633  17.299  0.00  0.00    +0.000 N 
ATOM     10  H   UNL     1       2.919   5.485  16.801  0.00  0.00    +0.000 HD
BRANCH   8  11
ATOM     11  C   UNL     1       5.295   4.687  16.084  0.00  0.00    +0.000 C 
BRANCH  11  12
ATOM     12  C   UNL     1       6.298   5.463  16.901  0.00  0.00    +0.000 A 
ATOM     13  C   UNL     1       6.385   6.855  16.769  0.00  0.00    +0.000 A 
ATOM     14  C   UNL     1       7.250   7.594  17.582  0.00  0.00    +0.000 A 
ATOM     15  C   UNL     1       8.029   6.950  18.539  0.00  0.00    +0.000 A 
ATOM     16  C   UNL     1       7.948   5.567  18.685  0.00  0.00    +0.000 A 
ATOM     17  C   UNL     1       7.085   4.826  17.872  0.00  0.00    +0.000 A 
ENDBRANCH  11  12
ENDBRANCH   8  11
ENDBRANCH   1   9
BRANCH   6  18
ATOM     18  O   UNL     1       3.063   6.207  19.683  0.00  0.00    +0.000 OA
BRANCH  18  19
ATOM     19  C   UNL     1       2.374   7.375  19.369  0.00  0.00    +0.000 A 
ATOM     20  C   UNL     1       1.641   7.969  20.401  0.00  0.00    +0.000 A 
ATOM     21  C   UNL     1       0.926   9.153  20.176  0.00  0.00    +0.000 A 
ATOM     22  C   UNL     1       0.932   9.746  18.915  0.00  0.00    +0.000 A 
ATOM     23  C   UNL     1       1.665   9.168  17.882  0.00  0.00    +0.000 A 
ATOM     24  C   UNL     1       2.400   8.001  18.114  0.00  0.00    +0.000 A 
ENDBRANCH  18  19
ENDBRANCH   6  18
TORSDOF 5
ENDMDL
MODEL 3
REMARK VINA RESULT:      -8.6      0.129      1.427
REMARK  Name = 
REMARK  5 active torsions:
REMARK  status: ('A' for Active; 'I' for Inactive)
REMARK    1  A    between atoms: C_2  and  C_3
REMARK    2  A    between atoms: C_3  and  C_4
REMARK    3  A    between atoms: N_10  and  C_11
REMARK    4  A    between atoms: C_16  and  O_17
REMARK    5  A    between atoms: O_17  and  C_18
REMARK                            x       y       z     vdW  Elec       q    Type
REMARK                         _______ _______ _______ _____ _____    ______ ____
ROOT
ATOM      1  C   UNL     1       2.375   4.357  18.394  0.00  0.00    +0.000 A 
ATOM      2  C   UNL     1       1.540   3.236  18.292  0.00  0.00    +0.000 A 
ATOM      3  C   UNL     1       0.763   2.802  19.370  0.00  0.00    +0.000 A 
ATOM      4  C   UNL     1       0.861   3.441  20.599  0.00  0.00    +0.000 A 
ATOM      5  C   UNL     1       1.680   4.556  20.723  0.00  0.00    +0.000 A 
ATOM      6  C   UNL     1       2.369   5.072  19.610  0.00  0.00    +0.000 A 
ENDROOT
BRANCH   1   9
ATOM      7  O   UNL     1       4.521   2.737  17.162  0.00  0.00    +0.000 OA
ATOM      8  C   UNL     1       4.373   3.940  16.937  0.00  0.00    +0.000 C 
ATOM      9  N   UNL     1       3.280   4.700  17.343  0.00  0.00    +0.000 N 
ATOM     10  H   UNL     1       3.102   5.582  16.876  0.00  0.00    +0.000 HD
BRANCH   8  11
ATOM     11  C   UNL     1       5.466   4.708  16.207  0.00  0.00    +0.000 C 
BRANCH  11  12
ATOM     12  C   UNL     1       6.347   5.566  17.081  0.00  0.00    +0.000 A 
ATOM     13  C   UNL     1       7.031   4.997  18.164  0.00  0.00    +0.000 A 
ATOM     14  C   UNL     1       7.916   5.762  18.928  0.00  0.00    +0.000 A 
ATOM     15  C   UNL     1       8.133   7.102  18.612  0.00  0.00    +0.000 A 
ATOM     16  C   UNL     1       7.464   7.678  17.535  0.00  0.00    +0.000 A 
ATOM     17  C   UNL     1       6.577   6.914  16.771  0.00  0.00    +0.000 A 
ENDBRANCH  11  12
ENDBRANCH   8  11
ENDBRANCH   1   9
BRANCH   6  18
ATOM     18  O   UNL     1       3.031   6.288  19.707  0.00  0.00    +0.000 OA
BRANCH  18  19
ATOM     19  C   UNL     1       2.324   7.447  19.399  0.00  0.00    +0.000 A 
ATOM     20  C   UNL     1       1.623   8.052  20.447  0.00  0.00    +0.000 A 
ATOM     21  C   UNL     1       0.893   9.228  20.229  0.00  0.00    +0.000 A 
ATOM     22  C   UNL     1       0.852   9.802  18.960  0.00  0.00    +0.000 A 
ATOM     23  C   UNL     1       1.552   9.213  17.911  0.00  0.00    +0.000 A 
ATOM     24  C   UNL     1       2.302   8.054  18.134  0.00  0.00    +0.000 A 
ENDBRANCH  18  19
ENDBRANCH   6  18
TORSDOF 5
ENDMDL
MODEL 4
REMARK VINA RESULT:      -8.6      0.168      1.017
REMARK  Name = 
REMARK  5 active torsions:
REMARK  status: ('A' for Active; 'I' for Inactive)
REMARK    1  A    between atoms: C_2  and  C_3
REMARK    2  A    between atoms: C_3  and  C_4
REMARK    3  A    between atoms: N_10  and  C_11
REMARK    4  A    between atoms: C_16  and  O_17
REMARK    5  A    between atoms: O_17  and  C_18
REMARK                            x       y       z     vdW  Elec       q    Type
REMARK                         _______ _______ _______ _____ _____    ______ ____
ROOT
ATOM      1  C   UNL     1       2.380   4.394  18.386  0.00  0.00    +0.000 A 
ATOM      2  C   UNL     1       1.546   3.274  18.269  0.00  0.00    +0.000 A 
ATOM      3  C   UNL     1       0.767   2.826  19.339  0.00  0.00    +0.000 A 
ATOM      4  C   UNL     1       0.861   3.450  20.575  0.00  0.00    +0.000 A 
ATOM      5  C   UNL     1       1.678   4.566  20.715  0.00  0.00    +0.000 A 
ATOM      6  C   UNL     1       2.369   5.095  19.610  0.00  0.00    +0.000 A 
ENDROOT
BRANCH   1   9
ATOM      7  O   UNL     1       4.530   2.790  17.139  0.00  0.00    +0.000 OA
ATOM      8  C   UNL     1       4.381   3.996  16.928  0.00  0.00    +0.000 C 
ATOM      9  N   UNL     1       3.287   4.751  17.342  0.00  0.00    +0.000 N 
ATOM     10  H   UNL     1       3.111   5.639  16.885  0.00  0.00    +0.000 HD
BRANCH   8  11
ATOM     11  C   UNL     1       5.476   4.773  16.212  0.00  0.00    +0.000 C 
BRANCH  11  12
ATOM     12  C   UNL     1       6.366   5.607  17.100  0.00  0.00    +0.000 A 
ATOM     13  C   UNL     1       6.989   5.028  18.214  0.00  0.00    +0.000 A 
ATOM     14  C   UNL     1       7.881   5.767  18.995  0.00  0.00    +0.000 A 
ATOM     15  C   UNL     1       8.166   7.090  18.666  0.00  0.00    +0.000 A 
ATOM     16  C   UNL     1       7.558   7.677  17.558  0.00  0.00    +0.000 A 
ATOM     17  C   UNL     1       6.664   6.939  16.778  0.00  0.00    +0.000 A 
ENDBRANCH  11  12
ENDBRANCH   8  11
ENDBRANCH   1   9
BRANCH   6  18
ATOM     18  O   UNL     1       3.029   6.311  19.723  0.00  0.00    +0.000 OA
BRANCH  18  19
ATOM     19  C   UNL     1       2.293   7.477  19.536  0.00  0.00    +0.000 A 
ATOM     20  C   UNL     1       2.289   8.018  18.247  0.00  0.00    +0.000 A 
ATOM     21  C   UNL     1       1.566   9.185  17.967  0.00  0.00    +0.000 A 
ATOM     22  C   UNL     1       0.849   9.825  18.975  0.00  0.00    +0.000 A 
ATOM     23  C   UNL     1       0.839   9.292  20.262  0.00  0.00    +0.000 A 
ATOM     24  C   UNL     1       1.540   8.112  20.535  0.00  0.00    +0.000 A 
ENDBRANCH  18  19
ENDBRANCH   6  18
TORSDOF 5
ENDMDL
MODEL 5
REMARK VINA RESULT:      -8.3      1.369      4.977
REMARK  Name = 
REMARK  5 active torsions:
REMARK  status: ('A' for Active; 'I' for Inactive)
REMARK    1  A    between atoms: C_2  and  C_3
REMARK    2  A    between atoms: C_3  and  C_4
REMARK    3  A    between atoms: N_10  and  C_11
REMARK    4  A    between atoms: C_16  and  O_17
REMARK    5  A    between atoms: O_17  and  C_18
REMARK                            x       y       z     vdW  Elec       q    Type
REMARK                         _______ _______ _______ _____ _____    ______ ____
ROOT
ATOM      1  C   UNL     1       5.971   5.263  18.270  0.00  0.00    +0.000 A 
ATOM      2  C   UNL     1       7.290   5.420  18.716  0.00  0.00    +0.000 A 
ATOM      3  C   UNL     1       8.021   6.580  18.446  0.00  0.00    +0.000 A 
ATOM      4  C   UNL     1       7.469   7.582  17.659  0.00  0.00    +0.000 A 
ATOM      5  C   UNL     1       6.161   7.451  17.209  0.00  0.00    +0.000 A 
ATOM      6  C   UNL     1       5.378   6.342  17.581  0.00  0.00    +0.000 A 
ENDROOT
BRANCH   1   9
ATOM      7  O   UNL     1       4.998   3.404  16.185  0.00  0.00    +0.000 OA
ATOM      8  C   UNL     1       4.712   3.286  17.378  0.00  0.00    +0.000 C 
ATOM      9  N   UNL     1       5.287   4.018  18.414  0.00  0.00    +0.000 N 
ATOM     10  H   UNL     1       5.211   3.660  19.360  0.00  0.00    +0.000 HD
BRANCH   8  11
ATOM     11  C   UNL     1       3.616   2.315  17.795  0.00  0.00    +0.000 C 
BRANCH  11  12
ATOM     12  C   UNL     1       2.825   2.718  19.015  0.00  0.00    +0.000 A 
ATOM     13  C   UNL     1       1.530   3.236  18.873  0.00  0.00    +0.000 A 
ATOM     14  C   UNL     1       0.756   3.533  19.998  0.00  0.00    +0.000 A 
ATOM     15  C   UNL     1       1.263   3.307  21.275  0.00  0.00    +0.000 A 
ATOM     16  C   UNL     1       2.546   2.787  21.430  0.00  0.00    +0.000 A 
ATOM     17  C   UNL     1       3.323   2.492  20.306  0.00  0.00    +0.000 A 
ENDBRANCH  11  12
ENDBRANCH   8  11
ENDBRANCH   1   9
BRANCH   6  18
ATOM     18  O   UNL     1       4.024   6.317  17.279  0.00  0.00    +0.000 OA
BRANCH  18  19
ATOM     19  C   UNL     1       3.159   7.057  18.080  0.00  0.00    +0.000 A 
ATOM     20  C   UNL     1       2.879   6.538  19.348  0.00  0.00    +0.000 A 
ATOM     21  C   UNL     1       2.026   7.223  20.224  0.00  0.00    +0.000 A 
ATOM     22  C   UNL     1       1.440   8.425  19.836  0.00  0.00    +0.000 A 
ATOM     23  C   UNL     1       1.718   8.956  18.578  0.00  0.00    +0.000 A 
ATOM     24  C   UNL     1       2.590   8.286  17.714  0.00  0.00    +0.000 A 
ENDBRANCH  18  19
ENDBRANCH   6  18
TORSDOF 5
ENDMDL
MODEL 6
REMARK VINA RESULT:      -8.3      1.357      4.907
REMARK  Name = 
REMARK  5 active torsions:
REMARK  status: ('A' for Active; 'I' for Inactive)
REMARK    1  A    between atoms: C_2  and  C_3
REMARK    2  A    between atoms: C_3  and  C_4
REMARK    3  A    between atoms: N_10  and  C_11
REMARK    4  A    between atoms: C_16  and  O_17
REMARK    5  A    between atoms: O_17  and  C_18
REMARK                            x       y       z     vdW  Elec       q    Type
REMARK                         _______ _______ _______ _____ _____    ______ ____
ROOT
ATOM      1  C   UNL     1       5.999   5.300  18.248  0.00  0.00    +0.000 A 
ATOM      2  C   UNL     1       7.322   5.447  18.687  0.00  0.00    +0.000 A 
ATOM      3  C   UNL     1       8.050   6.614  18.438  0.00  0.00    +0.000 A 
ATOM      4  C   UNL     1       7.491   7.633  17.679  0.00  0.00    +0.000 A 
ATOM      5  C   UNL     1       6.179   7.512  17.236  0.00  0.00    +0.000 A 
ATOM      6  C   UNL     1       5.400   6.395  17.589  0.00  0.00    +0.000 A 
ENDROOT
BRANCH   1   9
ATOM      7  O   UNL     1       4.926   3.535  16.131  0.00  0.00    +0.000 OA
ATOM      8  C   UNL     1       4.694   3.366  17.330  0.00  0.00    +0.000 C 
ATOM      9  N   UNL     1       5.317   4.051  18.369  0.00  0.00    +0.000 N 
ATOM     10  H   UNL     1       5.282   3.654  19.301  0.00  0.00    +0.000 HD
BRANCH   8  11
ATOM     11  C   UNL     1       3.613   2.381  17.753  0.00  0.00    +0.000 C 
BRANCH  11  12
ATOM     12  C   UNL     1       2.821   2.775  18.975  0.00  0.00    +0.000 A 
ATOM     13  C   UNL     1       1.545   3.337  18.833  0.00  0.00    +0.000 A 
ATOM     14  C   UNL     1       0.767   3.627  19.958  0.00  0.00    +0.000 A 
ATOM     15  C   UNL     1       1.253   3.352  21.234  0.00  0.00    +0.000 A 
ATOM     16  C   UNL     1       2.517   2.789  21.388  0.00  0.00    +0.000 A 
ATOM     17  C   UNL     1       3.297   2.500  20.265  0.00  0.00    +0.000 A 
ENDBRANCH  11  12
ENDBRANCH   8  11
ENDBRANCH   1   9
BRANCH   6  18
ATOM     18  O   UNL     1       4.044   6.375  17.297  0.00  0.00    +0.000 OA
BRANCH  18  19
ATOM     19  C   UNL     1       3.178   7.049  18.154  0.00  0.00    +0.000 A 
ATOM     20  C   UNL     1       2.608   8.230  17.670  0.00  0.00    +0.000 A 
ATOM     21  C   UNL     1       1.717   8.967  18.461  0.00  0.00    +0.000 A 
ATOM     22  C   UNL     1       1.398   8.534  19.746  0.00  0.00    +0.000 A 
ATOM     23  C   UNL     1       1.954   7.355  20.237  0.00  0.00    +0.000 A 
ATOM     24  C   UNL     1       2.822   6.605  19.437  0.00  0.00    +0.000 A 
ENDBRANCH  18  19
ENDBRANCH   6  18
TORSDOF 5
ENDMDL
MODEL 7
REMARK VINA RESULT:      -8.2      1.363      4.989
REMARK  Name = 
REMARK  5 active torsions:
REMARK  status: ('A' for Active; 'I' for Inactive)
REMARK    1  A    between atoms: C_2  and  C_3
REMARK    2  A    between atoms: C_3  and  C_4
REMARK    3  A    between atoms: N_10  and  C_11
REMARK    4  A    between atoms: C_16  and  O_17
REMARK    5  A    between atoms: O_17  and  C_18
REMARK                            x       y       z     vdW  Elec       q    Type
REMARK                         _______ _______ _______ _____ _____    ______ ____
ROOT
ATOM      1  C   UNL     1       5.872   5.217  18.271  0.00  0.00    +0.000 A 
ATOM      2  C   UNL     1       7.194   5.347  18.719  0.00  0.00    +0.000 A 
ATOM      3  C   UNL     1       7.943   6.499  18.463  0.00  0.00    +0.000 A 
ATOM      4  C   UNL     1       7.406   7.519  17.688  0.00  0.00    +0.000 A 
ATOM      5  C   UNL     1       6.097   7.414  17.236  0.00  0.00    +0.000 A 
ATOM      6  C   UNL     1       5.297   6.313  17.595  0.00  0.00    +0.000 A 
ENDROOT
BRANCH   1   9
ATOM      7  O   UNL     1       5.034   3.306  16.174  0.00  0.00    +0.000 OA
ATOM      8  C   UNL     1       4.663   3.224  17.347  0.00  0.00    +0.000 C 
ATOM      9  N   UNL     1       5.169   3.981  18.400  0.00  0.00    +0.000 N 
ATOM     10  H   UNL     1       5.023   3.651  19.348  0.00  0.00    +0.000 HD
BRANCH   8  11
ATOM     11  C   UNL     1       3.532   2.273  17.712  0.00  0.00    +0.000 C 
BRANCH  11  12
ATOM     12  C   UNL     1       2.748   2.643  18.946  0.00  0.00    +0.000 A 
ATOM     13  C   UNL     1       3.273   2.378  20.218  0.00  0.00    +0.000 A 
ATOM     14  C   UNL     1       2.596   2.792  21.368  0.00  0.00    +0.000 A 
ATOM     15  C   UNL     1       1.390   3.482  21.259  0.00  0.00    +0.000 A 
ATOM     16  C   UNL     1       0.859   3.756  20.001  0.00  0.00    +0.000 A 
ATOM     17  C   UNL     1       1.535   3.341  18.850  0.00  0.00    +0.000 A 
ENDBRANCH  11  12
ENDBRANCH   8  11
ENDBRANCH   1   9
BRANCH   6  18
ATOM     18  O   UNL     1       3.943   6.313  17.292  0.00  0.00    +0.000 OA
BRANCH  18  19
ATOM     19  C   UNL     1       3.099   7.115  18.056  0.00  0.00    +0.000 A 
ATOM     20  C   UNL     1       2.828   6.682  19.357  0.00  0.00    +0.000 A 
ATOM     21  C   UNL     1       1.998   7.434  20.199  0.00  0.00    +0.000 A 
ATOM     22  C   UNL     1       1.425   8.619  19.742  0.00  0.00    +0.000 A 
ATOM     23  C   UNL     1       1.693   9.065  18.450  0.00  0.00    +0.000 A 
ATOM     24  C   UNL     1       2.544   8.328  17.619  0.00  0.00    +0.000 A 
ENDBRANCH  18  19
ENDBRANCH   6  18
TORSDOF 5
ENDMDL
MODEL 8
REMARK VINA RESULT:      -8.2      1.329      4.921
REMARK  Name = 
REMARK  5 active torsions:
REMARK  status: ('A' for Active; 'I' for Inactive)
REMARK    1  A    between atoms: C_2  and  C_3
REMARK    2  A    between atoms: C_3  and  C_4
REMARK    3  A    between atoms: N_10  and  C_11
REMARK    4  A    between atoms: C_16  and  O_17
REMARK    5  A    between atoms: O_17  and  C_18
REMARK                            x       y       z     vdW  Elec       q    Type
REMARK                         _______ _______ _______ _____ _____    ______ ____
ROOT
ATOM      1  C   UNL     1       5.726   5.364  18.252  0.00  0.00    +0.000 A 
ATOM      2  C   UNL     1       7.046   5.395  18.723  0.00  0.00    +0.000 A 
ATOM      3  C   UNL     1       7.886   6.484  18.476  0.00  0.00    +0.000 A 
ATOM      4  C   UNL     1       7.443   7.538  17.687  0.00  0.00    +0.000 A 
ATOM      5  C   UNL     1       6.138   7.531  17.213  0.00  0.00    +0.000 A 
ATOM      6  C   UNL     1       5.249   6.498  17.562  0.00  0.00    +0.000 A 
ENDROOT
BRANCH   1   9
ATOM      7  O   UNL     1       5.095   3.306  16.224  0.00  0.00    +0.000 OA
ATOM      8  C   UNL     1       4.541   3.359  17.324  0.00  0.00    +0.000 C 
ATOM      9  N   UNL     1       4.927   4.186  18.374  0.00  0.00    +0.000 N 
ATOM     10  H   UNL     1       4.613   3.959  19.311  0.00  0.00    +0.000 HD
BRANCH   8  11
ATOM     11  C   UNL     1       3.304   2.511  17.583  0.00  0.00    +0.000 C 
BRANCH  11  12
ATOM     12  C   UNL     1       2.609   2.764  18.897  0.00  0.00    +0.000 A 
ATOM     13  C   UNL     1       3.233   2.413  20.102  0.00  0.00    +0.000 A 
ATOM     14  C   UNL     1       2.637   2.720  21.328  0.00  0.00    +0.000 A 
ATOM     15  C   UNL     1       1.415   3.387  21.363  0.00  0.00    +0.000 A 
ATOM     16  C   UNL     1       0.786   3.746  20.174  0.00  0.00    +0.000 A 
ATOM     17  C   UNL     1       1.380   3.438  18.946  0.00  0.00    +0.000 A 
ENDBRANCH  11  12
ENDBRANCH   8  11
ENDBRANCH   1   9
BRANCH   6  18
ATOM     18  O   UNL     1       3.904   6.600  17.235  0.00  0.00    +0.000 OA
BRANCH  18  19
ATOM     19  C   UNL     1       3.063   7.269  18.120  0.00  0.00    +0.000 A 
ATOM     20  C   UNL     1       2.494   8.462  17.664  0.00  0.00    +0.000 A 
ATOM     21  C   UNL     1       1.627   9.196  18.484  0.00  0.00    +0.000 A 
ATOM     22  C   UNL     1       1.329   8.747  19.769  0.00  0.00    +0.000 A 
ATOM     23  C   UNL     1       1.884   7.556  20.231  0.00  0.00    +0.000 A 
ATOM     24  C   UNL     1       2.729   6.810  19.403  0.00  0.00    +0.000 A 
ENDBRANCH  18  19
ENDBRANCH   6  18
TORSDOF 5
ENDMDL
MODEL 9
REMARK VINA RESULT:      -8.0      1.528      2.734
REMARK  Name = 
REMARK  5 active torsions:
REMARK  status: ('A' for Active; 'I' for Inactive)
REMARK    1  A    between atoms: C_2  and  C_3
REMARK    2  A    between atoms: C_3  and  C_4
REMARK    3  A    between atoms: N_10  and  C_11
REMARK    4  A    between atoms: C_16  and  O_17
REMARK    5  A    between atoms: O_17  and  C_18
REMARK                            x       y       z     vdW  Elec       q    Type
REMARK                         _______ _______ _______ _____ _____    ______ ____
ROOT
ATOM      1  C   UNL     1       2.510   4.407  18.267  0.00  0.00    +0.000 A 
ATOM      2  C   UNL     1       1.711   3.267  18.108  0.00  0.00    +0.000 A 
ATOM      3  C   UNL     1       0.890   2.799  19.138  0.00  0.00    +0.000 A 
ATOM      4  C   UNL     1       0.908   3.423  20.378  0.00  0.00    +0.000 A 
ATOM      5  C   UNL     1       1.689   4.557  20.558  0.00  0.00    +0.000 A 
ATOM      6  C   UNL     1       2.421   5.106  19.489  0.00  0.00    +0.000 A 
ENDROOT
BRANCH   1   9
ATOM      7  O   UNL     1       5.431   3.951  18.183  0.00  0.00    +0.000 OA
ATOM      8  C   UNL     1       4.841   4.684  17.386  0.00  0.00    +0.000 C 
ATOM      9  N   UNL     1       3.458   4.788  17.269  0.00  0.00    +0.000 N 
ATOM     10  H   UNL     1       3.072   5.178  16.416  0.00  0.00    +0.000 HD
BRANCH   8  11
ATOM     11  C   UNL     1       5.644   5.603  16.477  0.00  0.00    +0.000 C 
BRANCH  11  12
ATOM     12  C   UNL     1       6.070   5.002  15.161  0.00  0.00    +0.000 A 
ATOM     13  C   UNL     1       5.219   4.118  14.484  0.00  0.00    +0.000 A 
ATOM     14  C   UNL     1       5.565   3.621  13.224  0.00  0.00    +0.000 A 
ATOM     15  C   UNL     1       6.761   4.010  12.625  0.00  0.00    +0.000 A 
ATOM     16  C   UNL     1       7.613   4.892  13.284  0.00  0.00    +0.000 A 
ATOM     17  C   UNL     1       7.269   5.388  14.545  0.00  0.00    +0.000 A 
ENDBRANCH  11  12
ENDBRANCH   8  11
ENDBRANCH   1   9
BRANCH   6  18
ATOM     18  O   UNL     1       3.044   6.337  19.635  0.00  0.00    +0.000 OA
BRANCH  18  19
ATOM     19  C   UNL     1       2.306   7.484  19.358  0.00  0.00    +0.000 A 
ATOM     20  C   UNL     1       1.628   8.069  20.431  0.00  0.00    +0.000 A 
ATOM     21  C   UNL     1       0.869   9.232  20.244  0.00  0.00    +0.000 A 
ATOM     22  C   UNL     1       0.775   9.813  18.982  0.00  0.00    +0.000 A 
ATOM     23  C   UNL     1       1.453   9.244  17.906  0.00  0.00    +0.000 A 
ATOM     24  C   UNL     1       2.232   8.098  18.098  0.00  0.00    +0.000 A 
ENDBRANCH  18  19
ENDBRANCH   6  18
TORSDOF 5
ENDMDL
