MODEL 1
REMARK VINA RESULT:      -8.6      0.000      0.000
REMARK  Name = 
REMARK  10 active torsions:
REMARK  status: ('A' for Active; 'I' for Inactive)
REMARK    1  A    between atoms: C_1  and  O_2
REMARK    2  A    between atoms: O_2  and  C_3
REMARK    3  A    between atoms: C_7  and  N_8
REMARK    4  A    between atoms: C_9  and  S_10
REMARK    5  A    between atoms: C_13  and  C_14
REMARK    6  A    between atoms: C_17  and  C_18
REMARK    7  A    between atoms: C_21  and  S_22
REMARK    8  A    between atoms: N_23  and  C_24
REMARK    9  A    between atoms: C_28  and  O_29
REMARK   10  A    between atoms: O_29  and  C_30
REMARK                            x       y       z     vdW  Elec       q    Type
REMARK                         _______ _______ _______ _____ _____    ______ ____
ROOT
ATOM      1  C   UNL     1       2.711   7.459  18.681  0.00  0.00    +0.000 A 
ATOM      2  C   UNL     1       2.378   6.818  19.875  0.00  0.00    +0.000 A 
ATOM      3  C   UNL     1       1.530   7.438  20.793  0.00  0.00    +0.000 A 
ATOM      4  C   UNL     1       1.084   8.731  20.528  0.00  0.00    +0.000 A 
ATOM      5  N   UNL     1       1.398   9.379  19.383  0.00  0.00    +0.000 NA
ATOM      6  C   UNL     1       2.199   8.738  18.493  0.00  0.00    +0.000 A 
ENDROOT
BRANCH   1  11
ATOM      7  N   UNL     1       3.746   5.410  17.492  0.00  0.00    +0.000 N 
ATOM      8  C   UNL     1       4.676   5.358  16.460  0.00  0.00    +0.000 A 
ATOM      9  N   UNL     1       5.037   6.566  16.104  0.00  0.00    +0.000 NA
ATOM     10  N   UNL     1       4.378   7.454  16.901  0.00  0.00    +0.000 NA
ATOM     11  C   UNL     1       3.593   6.786  17.726  0.00  0.00    +0.000 A 
BRANCH   7  16
ATOM     12  C   UNL     1       3.070   2.726  19.987  0.00  0.00    +0.000 A 
ATOM     13  C   UNL     1       1.810   2.292  19.580  0.00  0.00    +0.000 A 
ATOM     14  C   UNL     1       1.178   2.896  18.493  0.00  0.00    +0.000 A 
ATOM     15  C   UNL     1       1.803   3.939  17.807  0.00  0.00    +0.000 A 
ATOM     16  C   UNL     1       3.095   4.343  18.172  0.00  0.00    +0.000 A 
ATOM     17  C   UNL     1       3.734   3.707  19.251  0.00  0.00    +0.000 A 
BRANCH  12  19
ATOM     18  C   UNL     1       4.919   1.555  20.848  0.00  0.00    +0.000 C 
ATOM     19  O   UNL     1       3.615   2.098  21.073  0.00  0.00    +0.000 OA
ENDBRANCH  12  19
ENDBRANCH   7  16
BRANCH   8  20
ATOM     20  S   UNL     1       5.466   3.948  15.818  0.00  0.00    +0.000 S 
ATOM     21  H   UNL     1       6.717   4.401  15.678  0.00  0.00    +0.000 HD
ENDBRANCH   8  20
ENDBRANCH   1  11
BRANCH   4  22
ATOM     22  C   UNL     1       0.317   9.524  21.494  0.00  0.00    +0.000 A 
ATOM     23  N   UNL     1       0.400   9.393  22.808  0.00  0.00    +0.000 NA
ATOM     24  N   UNL     1      -0.371  10.357  23.398  0.00  0.00    +0.000 NA
ATOM     25  C   UNL     1      -0.933  11.056  22.443  0.00  0.00    +0.000 A 
ATOM     26  N   UNL     1      -0.564  10.577  21.199  0.00  0.00    +0.000 N 
BRANCH  26  27
ATOM     27  C   UNL     1      -0.957  11.032  19.907  0.00  0.00    +0.000 A 
ATOM     28  C   UNL     1      -0.561  12.293  19.442  0.00  0.00    +0.000 A 
ATOM     29  C   UNL     1      -0.894  12.693  18.149  0.00  0.00    +0.000 A 
ATOM     30  C   UNL     1      -1.607  11.835  17.310  0.00  0.00    +0.000 A 
ATOM     31  C   UNL     1      -1.997  10.571  17.757  0.00  0.00    +0.000 A 
ATOM     32  C   UNL     1      -1.706  10.193  19.064  0.00  0.00    +0.000 A 
BRANCH  31  33
ATOM     33  O   UNL     1      -2.666   9.816  16.835  0.00  0.00    +0.000 OA
ATOM     34  C   UNL     1      -3.065  10.467  15.633  0.00  0.00    +0.000 C 
ENDBRANCH  31  33
ENDBRANCH  26  27
BRANCH  25  35
ATOM     35  S   UNL     1      -2.119  12.279  22.755  0.00  0.00    +0.000 S 
ATOM     36  H   UNL     1      -1.578  12.736  23.894  0.00  0.00    +0.000 HD
ENDBRANCH  25  35
ENDBRANCH   4  22
TORSDOF 8
ENDMDL
MODEL 2
REMARK VINA RESULT:      -8.5      0.748      9.004
REMARK  Name = 
REMARK  10 active torsions:
REMARK  status: ('A' for Active; 'I' for Inactive)
REMARK    1  A    between atoms: C_1  and  O_2
REMARK    2  A    between atoms: O_2  and  C_3
REMARK    3  A    between atoms: C_7  and  N_8
REMARK    4  A    between atoms: C_9  and  S_10
REMARK    5  A    between atoms: C_13  and  C_14
REMARK    6  A    between atoms: C_17  and  C_18
REMARK    7  A    between atoms: C_21  and  S_22
REMARK    8  A    between atoms: N_23  and  C_24
REMARK    9  A    between atoms: C_28  and  O_29
REMARK   10  A    between atoms: O_29  and  C_30
REMARK                            x       y       z     vdW  Elec       q    Type
REMARK                         _______ _______ _______ _____ _____    ______ ____
ROOT
ATOM      1  C   UNL     1       1.411   8.725  20.261  0.00  0.00    +0.000 A 
ATOM      2  C   UNL     1       1.579   9.307  19.004  0.00  0.00    +0.000 A 
ATOM      3  C   UNL     1       2.298   8.641  18.010  0.00  0.00    +0.000 A 
ATOM      4  C   UNL     1       2.902   7.425  18.321  0.00  0.00    +0.000 A 
ATOM      5  N   UNL     1       2.764   6.842  19.533  0.00  0.00    +0.000 NA
ATOM      6  C   UNL     1       2.032   7.498  20.470  0.00  0.00    +0.000 A 
ENDROOT
BRANCH   1  11
ATOM      7  N   UNL     1      -0.357  10.406  21.116  0.00  0.00    +0.000 N 
ATOM      8  C   UNL     1      -0.755  10.691  22.418  0.00  0.00    +0.000 A 
ATOM      9  N   UNL     1      -0.079   9.967  23.275  0.00  0.00    +0.000 NA
ATOM     10  N   UNL     1       0.802   9.198  22.575  0.00  0.00    +0.000 NA
ATOM     11  C   UNL     1       0.643   9.434  21.285  0.00  0.00    +0.000 A 
BRANCH   7  16
ATOM     12  C   UNL     1      -2.356  10.854  18.004  0.00  0.00    +0.000 A 
ATOM     13  C   UNL     1      -1.828  12.048  17.515  0.00  0.00    +0.000 A 
ATOM     14  C   UNL     1      -0.823  12.711  18.220  0.00  0.00    +0.000 A 
ATOM     15  C   UNL     1      -0.343  12.184  19.421  0.00  0.00    +0.000 A 
ATOM     16  C   UNL     1      -0.826  10.955  19.891  0.00  0.00    +0.000 A 
ATOM     17  C   UNL     1      -1.818  10.282  19.156  0.00  0.00    +0.000 A 
BRANCH  12  19
ATOM     18  C   UNL     1      -4.625  10.917  17.389  0.00  0.00    +0.000 C 
ATOM     19  O   UNL     1      -3.352  10.275  17.266  0.00  0.00    +0.000 OA
ENDBRANCH  12  19
ENDBRANCH   7  16
BRANCH   8  20
ATOM     20  S   UNL     1      -1.826  11.956  22.942  0.00  0.00    +0.000 S 
ATOM     21  H   UNL     1      -1.650  11.902  24.268  0.00  0.00    +0.000 HD
ENDBRANCH   8  20
ENDBRANCH   1  11
BRANCH   4  22
ATOM     22  C   UNL     1       3.801   6.724  17.399  0.00  0.00    +0.000 A 
ATOM     23  N   UNL     1       4.594   7.320  16.524  0.00  0.00    +0.000 NA
ATOM     24  N   UNL     1       5.364   6.372  15.907  0.00  0.00    +0.000 NA
ATOM     25  C   UNL     1       5.023   5.204  16.395  0.00  0.00    +0.000 A 
ATOM     26  N   UNL     1       4.019   5.338  17.336  0.00  0.00    +0.000 N 
BRANCH  26  27
ATOM     27  C   UNL     1       3.352   4.329  18.090  0.00  0.00    +0.000 A 
ATOM     28  C   UNL     1       2.126   3.807  17.658  0.00  0.00    +0.000 A 
ATOM     29  C   UNL     1       1.523   2.770  18.369  0.00  0.00    +0.000 A 
ATOM     30  C   UNL     1       2.146   2.239  19.501  0.00  0.00    +0.000 A 
ATOM     31  C   UNL     1       3.374   2.742  19.934  0.00  0.00    +0.000 A 
ATOM     32  C   UNL     1       3.950   3.809  19.251  0.00  0.00    +0.000 A 
BRANCH  31  33
ATOM     33  O   UNL     1       3.892   2.123  21.037  0.00  0.00    +0.000 OA
ATOM     34  C   UNL     1       5.120   1.421  20.867  0.00  0.00    +0.000 C 
ENDBRANCH  31  33
ENDBRANCH  26  27
BRANCH  25  35
ATOM     35  S   UNL     1       5.644   3.713  15.769  0.00  0.00    +0.000 S 
ATOM     36  H   UNL     1       6.819   4.199  15.342  0.00  0.00    +0.000 HD
ENDBRANCH  25  35
ENDBRANCH   4  22
TORSDOF 8
ENDMDL
MODEL 3
REMARK VINA RESULT:      -8.4      1.927      2.634
REMARK  Name = 
REMARK  10 active torsions:
REMARK  status: ('A' for Active; 'I' for Inactive)
REMARK    1  A    between atoms: C_1  and  O_2
REMARK    2  A    between atoms: O_2  and  C_3
REMARK    3  A    between atoms: C_7  and  N_8
REMARK    4  A    between atoms: C_9  and  S_10
REMARK    5  A    between atoms: C_13  and  C_14
REMARK    6  A    between atoms: C_17  and  C_18
REMARK    7  A    between atoms: C_21  and  S_22
REMARK    8  A    between atoms: N_23  and  C_24
REMARK    9  A    between atoms: C_28  and  O_29
REMARK   10  A    between atoms: O_29  and  C_30
REMARK                            x       y       z     vdW  Elec       q    Type
REMARK                         _______ _______ _______ _____ _____    ______ ____
ROOT
ATOM      1  C   UNL     1       2.961   7.439  18.347  0.00  0.00    +0.000 A 
ATOM      2  C   UNL     1       2.266   8.561  17.894  0.00  0.00    +0.000 A 
ATOM      3  C   UNL     1       1.457   9.287  18.769  0.00  0.00    +0.000 A 
ATOM      4  C   UNL     1       1.301   8.829  20.075  0.00  0.00    +0.000 A 
ATOM      5  N   UNL     1       1.956   7.741  20.538  0.00  0.00    +0.000 NA
ATOM      6  C   UNL     1       2.762   7.072  19.673  0.00  0.00    +0.000 A 
ENDROOT
BRANCH   1  11
ATOM      7  N   UNL     1       3.945   5.308  17.263  0.00  0.00    +0.000 N 
ATOM      8  C   UNL     1       4.854   5.181  16.218  0.00  0.00    +0.000 A 
ATOM      9  N   UNL     1       5.223   6.361  15.784  0.00  0.00    +0.000 NA
ATOM     10  N   UNL     1       4.593   7.305  16.538  0.00  0.00    +0.000 NA
ATOM     11  C   UNL     1       3.815   6.698  17.417  0.00  0.00    +0.000 A 
BRANCH   7  16
ATOM     12  C   UNL     1       3.278   2.798  19.934  0.00  0.00    +0.000 A 
ATOM     13  C   UNL     1       2.010   2.349  19.570  0.00  0.00    +0.000 A 
ATOM     14  C   UNL     1       1.370   2.886  18.453  0.00  0.00    +0.000 A 
ATOM     15  C   UNL     1       1.995   3.877  17.694  0.00  0.00    +0.000 A 
ATOM     16  C   UNL     1       3.294   4.293  18.018  0.00  0.00    +0.000 A 
ATOM     17  C   UNL     1       3.940   3.723  19.129  0.00  0.00    +0.000 A 
BRANCH  12  19
ATOM     18  C   UNL     1       5.040   1.512  20.814  0.00  0.00    +0.000 C 
ATOM     19  O   UNL     1       3.830   2.238  21.054  0.00  0.00    +0.000 OA
ENDBRANCH  12  19
ENDBRANCH   7  16
BRANCH   8  20
ATOM     20  S   UNL     1       5.611   3.725  15.647  0.00  0.00    +0.000 S 
ATOM     21  H   UNL     1       5.039   2.813  16.443  0.00  0.00    +0.000 HD
ENDBRANCH   8  20
ENDBRANCH   1  11
BRANCH   4  22
ATOM     22  C   UNL     1       0.359   9.431  21.023  0.00  0.00    +0.000 A 
ATOM     23  N   UNL     1      -0.264   8.771  21.986  0.00  0.00    +0.000 NA
ATOM     24  N   UNL     1      -0.980   9.659  22.741  0.00  0.00    +0.000 NA
ATOM     25  C   UNL     1      -0.808  10.850  22.223  0.00  0.00    +0.000 A 
ATOM     26  N   UNL     1       0.015  10.790  21.113  0.00  0.00    +0.000 N 
BRANCH  26  27
ATOM     27  C   UNL     1       0.442  11.842  20.252  0.00  0.00    +0.000 A 
ATOM     28  C   UNL     1      -0.372  12.281  19.199  0.00  0.00    +0.000 A 
ATOM     29  C   UNL     1       0.030  13.358  18.411  0.00  0.00    +0.000 A 
ATOM     30  C   UNL     1       1.234  14.013  18.678  0.00  0.00    +0.000 A 
ATOM     31  C   UNL     1       2.049  13.593  19.731  0.00  0.00    +0.000 A 
ATOM     32  C   UNL     1       1.670  12.487  20.485  0.00  0.00    +0.000 A 
BRANCH  31  33
ATOM     33  O   UNL     1       3.188  14.329  19.905  0.00  0.00    +0.000 OA
ATOM     34  C   UNL     1       3.929  14.661  18.735  0.00  0.00    +0.000 C 
ENDBRANCH  31  33
ENDBRANCH  26  27
BRANCH  25  35
ATOM     35  S   UNL     1      -1.671  12.245  22.779  0.00  0.00    +0.000 S 
ATOM     36  H   UNL     1      -2.899  11.713  22.695  0.00  0.00    +0.000 HD
ENDBRANCH  25  35
ENDBRANCH   4  22
TORSDOF 8
ENDMDL
MODEL 4
REMARK VINA RESULT:      -8.4      1.916      9.087
REMARK  Name = 
REMARK  10 active torsions:
REMARK  status: ('A' for Active; 'I' for Inactive)
REMARK    1  A    between atoms: C_1  and  O_2
REMARK    2  A    between atoms: O_2  and  C_3
REMARK    3  A    between atoms: C_7  and  N_8
REMARK    4  A    between atoms: C_9  and  S_10
REMARK    5  A    between atoms: C_13  and  C_14
REMARK    6  A    between atoms: C_17  and  C_18
REMARK    7  A    between atoms: C_21  and  S_22
REMARK    8  A    between atoms: N_23  and  C_24
REMARK    9  A    between atoms: C_28  and  O_29
REMARK   10  A    between atoms: O_29  and  C_30
REMARK                            x       y       z     vdW  Elec       q    Type
REMARK                         _______ _______ _______ _____ _____    ______ ____
ROOT
ATOM      1  C   UNL     1       1.057   8.994  20.285  0.00  0.00    +0.000 A 
ATOM      2  C   UNL     1       1.124   9.460  18.971  0.00  0.00    +0.000 A 
ATOM      3  C   UNL     1       1.878   8.774  18.019  0.00  0.00    +0.000 A 
ATOM      4  C   UNL     1       2.616   7.663  18.421  0.00  0.00    +0.000 A 
ATOM      5  N   UNL     1       2.577   7.194  19.689  0.00  0.00    +0.000 NA
ATOM      6  C   UNL     1       1.810   7.864  20.587  0.00  0.00    +0.000 A 
ENDROOT
BRANCH   1  11
ATOM      7  N   UNL     1      -0.075  11.088  21.294  0.00  0.00    +0.000 N 
ATOM      8  C   UNL     1      -0.887  11.204  22.418  0.00  0.00    +0.000 A 
ATOM      9  N   UNL     1      -1.041  10.039  22.997  0.00  0.00    +0.000 NA
ATOM     10  N   UNL     1      -0.321   9.120  22.294  0.00  0.00    +0.000 NA
ATOM     11  C   UNL     1       0.251   9.722  21.266  0.00  0.00    +0.000 A 
BRANCH   7  16
ATOM     12  C   UNL     1       2.099  13.552  19.540  0.00  0.00    +0.000 A 
ATOM     13  C   UNL     1       1.234  14.016  18.550  0.00  0.00    +0.000 A 
ATOM     14  C   UNL     1      -0.060  13.505  18.453  0.00  0.00    +0.000 A 
ATOM     15  C   UNL     1      -0.496  12.524  19.346  0.00  0.00    +0.000 A 
ATOM     16  C   UNL     1       0.347  12.093  20.381  0.00  0.00    +0.000 A 
ATOM     17  C   UNL     1       1.638  12.637  20.486  0.00  0.00    +0.000 A 
BRANCH  12  19
ATOM     18  C   UNL     1       3.600  15.057  18.532  0.00  0.00    +0.000 C 
ATOM     19  O   UNL     1       3.358  14.088  19.557  0.00  0.00    +0.000 OA
ENDBRANCH  12  19
ENDBRANCH   7  16
BRANCH   8  20
ATOM     20  S   UNL     1      -1.477  12.667  23.148  0.00  0.00    +0.000 S 
ATOM     21  H   UNL     1      -0.368  13.115  23.749  0.00  0.00    +0.000 HD
ENDBRANCH   8  20
ENDBRANCH   1  11
BRANCH   4  22
ATOM     22  C   UNL     1       3.555   6.967  17.536  0.00  0.00    +0.000 A 
ATOM     23  N   UNL     1       4.389   7.568  16.702  0.00  0.00    +0.000 NA
ATOM     24  N   UNL     1       5.184   6.624  16.114  0.00  0.00    +0.000 NA
ATOM     25  C   UNL     1       4.818   5.452  16.575  0.00  0.00    +0.000 A 
ATOM     26  N   UNL     1       3.772   5.581  17.470  0.00  0.00    +0.000 N 
BRANCH  26  27
ATOM     27  C   UNL     1       3.069   4.567  18.184  0.00  0.00    +0.000 A 
ATOM     28  C   UNL     1       1.796   4.153  17.769  0.00  0.00    +0.000 A 
ATOM     29  C   UNL     1       1.153   3.110  18.435  0.00  0.00    +0.000 A 
ATOM     30  C   UNL     1       1.780   2.468  19.505  0.00  0.00    +0.000 A 
ATOM     31  C   UNL     1       3.053   2.864  19.920  0.00  0.00    +0.000 A 
ATOM     32  C   UNL     1       3.673   3.935  19.285  0.00  0.00    +0.000 A 
BRANCH  31  33
ATOM     33  O   UNL     1       3.570   2.141  20.959  0.00  0.00    +0.000 OA
ATOM     34  C   UNL     1       4.895   1.644  20.805  0.00  0.00    +0.000 C 
ENDBRANCH  31  33
ENDBRANCH  26  27
BRANCH  25  35
ATOM     35  S   UNL     1       5.463   3.965  15.966  0.00  0.00    +0.000 S 
ATOM     36  H   UNL     1       4.899   4.035  14.751  0.00  0.00    +0.000 HD
ENDBRANCH  25  35
ENDBRANCH   4  22
TORSDOF 8
ENDMDL
MODEL 5
REMARK VINA RESULT:      -8.2      1.016      1.666
REMARK  Name = 
REMARK  10 active torsions:
REMARK  status: ('A' for Active; 'I' for Inactive)
REMARK    1  A    between atoms: C_1  and  O_2
REMARK    2  A    between atoms: O_2  and  C_3
REMARK    3  A    between atoms: C_7  and  N_8
REMARK    4  A    between atoms: C_9  and  S_10
REMARK    5  A    between atoms: C_13  and  C_14
REMARK    6  A    between atoms: C_17  and  C_18
REMARK    7  A    between atoms: C_21  and  S_22
REMARK    8  A    between atoms: N_23  and  C_24
REMARK    9  A    between atoms: C_28  and  O_29
REMARK   10  A    between atoms: O_29  and  C_30
REMARK                            x       y       z     vdW  Elec       q    Type
REMARK                         _______ _______ _______ _____ _____    ______ ____
ROOT
ATOM      1  C   UNL     1       2.751   7.358  18.725  0.00  0.00    +0.000 A 
ATOM      2  C   UNL     1       2.428   6.692  19.908  0.00  0.00    +0.000 A 
ATOM      3  C   UNL     1       1.589   7.292  20.846  0.00  0.00    +0.000 A 
ATOM      4  C   UNL     1       1.142   8.590  20.614  0.00  0.00    +0.000 A 
ATOM      5  N   UNL     1       1.445   9.263  19.480  0.00  0.00    +0.000 NA
ATOM      6  C   UNL     1       2.238   8.642  18.570  0.00  0.00    +0.000 A 
ENDROOT
BRANCH   1  11
ATOM      7  N   UNL     1       3.786   5.335  17.493  0.00  0.00    +0.000 N 
ATOM      8  C   UNL     1       4.701   5.305  16.446  0.00  0.00    +0.000 A 
ATOM      9  N   UNL     1       5.044   6.522  16.100  0.00  0.00    +0.000 NA
ATOM     10  N   UNL     1       4.390   7.393  16.919  0.00  0.00    +0.000 NA
ATOM     11  C   UNL     1       3.624   6.707  17.747  0.00  0.00    +0.000 A 
BRANCH   7  16
ATOM     12  C   UNL     1       3.161   2.634  19.982  0.00  0.00    +0.000 A 
ATOM     13  C   UNL     1       1.912   2.173  19.570  0.00  0.00    +0.000 A 
ATOM     14  C   UNL     1       1.270   2.764  18.481  0.00  0.00    +0.000 A 
ATOM     15  C   UNL     1       1.875   3.821  17.799  0.00  0.00    +0.000 A 
ATOM     16  C   UNL     1       3.157   4.253  18.169  0.00  0.00    +0.000 A 
ATOM     17  C   UNL     1       3.805   3.630  19.250  0.00  0.00    +0.000 A 
BRANCH  12  19
ATOM     18  C   UNL     1       5.031   1.501  20.848  0.00  0.00    +0.000 C 
ATOM     19  O   UNL     1       3.715   2.017  21.070  0.00  0.00    +0.000 OA
ENDBRANCH  12  19
ENDBRANCH   7  16
BRANCH   8  20
ATOM     20  S   UNL     1       5.493   3.912  15.774  0.00  0.00    +0.000 S 
ATOM     21  H   UNL     1       6.620   3.888  16.497  0.00  0.00    +0.000 HD
ENDBRANCH   8  20
ENDBRANCH   1  11
BRANCH   4  22
ATOM     22  C   UNL     1       0.384   9.361  21.604  0.00  0.00    +0.000 A 
ATOM     23  N   UNL     1       0.417   9.147  22.909  0.00  0.00    +0.000 NA
ATOM     24  N   UNL     1      -0.324  10.112  23.535  0.00  0.00    +0.000 NA
ATOM     25  C   UNL     1      -0.819  10.896  22.609  0.00  0.00    +0.000 A 
ATOM     26  N   UNL     1      -0.434  10.475  21.349  0.00  0.00    +0.000 N 
BRANCH  26  27
ATOM     27  C   UNL     1      -0.761  11.027  20.076  0.00  0.00    +0.000 A 
ATOM     28  C   UNL     1      -1.602  10.337  19.193  0.00  0.00    +0.000 A 
ATOM     29  C   UNL     1      -1.970  10.924  17.982  0.00  0.00    +0.000 A 
ATOM     30  C   UNL     1      -1.515  12.203  17.655  0.00  0.00    +0.000 A 
ATOM     31  C   UNL     1      -0.685  12.905  18.532  0.00  0.00    +0.000 A 
ATOM     32  C   UNL     1      -0.281  12.298  19.717  0.00  0.00    +0.000 A 
BRANCH  31  33
ATOM     33  O   UNL     1      -0.329  14.155  18.110  0.00  0.00    +0.000 OA
ATOM     34  C   UNL     1       0.675  14.829  18.862  0.00  0.00    +0.000 C 
ENDBRANCH  31  33
ENDBRANCH  26  27
BRANCH  25  35
ATOM     35  S   UNL     1      -1.953  12.158  22.960  0.00  0.00    +0.000 S 
ATOM     36  H   UNL     1      -2.620  11.505  23.923  0.00  0.00    +0.000 HD
ENDBRANCH  25  35
ENDBRANCH   4  22
TORSDOF 8
ENDMDL
MODEL 6
REMARK VINA RESULT:      -8.2      1.133      8.721
REMARK  Name = 
REMARK  10 active torsions:
REMARK  status: ('A' for Active; 'I' for Inactive)
REMARK    1  A    between atoms: C_1  and  O_2
REMARK    2  A    between atoms: O_2  and  C_3
REMARK    3  A    between atoms: C_7  and  N_8
REMARK    4  A    between atoms: C_9  and  S_10
REMARK    5  A    between atoms: C_13  and  C_14
REMARK    6  A    between atoms: C_17  and  C_18
REMARK    7  A    between atoms: C_21  and  S_22
REMARK    8  A    between atoms: N_23  and  C_24
REMARK    9  A    between atoms: C_28  and  O_29
REMARK   10  A    between atoms: O_29  and  C_30
REMARK                            x       y       z     vdW  Elec       q    Type
REMARK                         _______ _______ _______ _____ _____    ______ ____
ROOT
ATOM      1  C   UNL     1       1.760   8.463  19.884  0.00  0.00    +0.000 A 
ATOM      2  C   UNL     1       1.908   9.157  18.683  0.00  0.00    +0.000 A 
ATOM      3  C   UNL     1       2.607   8.584  17.621  0.00  0.00    +0.000 A 
ATOM      4  C   UNL     1       3.214   7.344  17.808  0.00  0.00    +0.000 A 
ATOM      5  N   UNL     1       3.095   6.653  18.964  0.00  0.00    +0.000 NA
ATOM      6  C   UNL     1       2.381   7.221  19.970  0.00  0.00    +0.000 A 
ENDROOT
BRANCH   1  11
ATOM      7  N   UNL     1      -0.048   9.996  20.916  0.00  0.00    +0.000 N 
ATOM      8  C   UNL     1      -0.389  10.195  22.250  0.00  0.00    +0.000 A 
ATOM      9  N   UNL     1       0.373   9.470  23.032  0.00  0.00    +0.000 NA
ATOM     10  N   UNL     1       1.255   8.788  22.249  0.00  0.00    +0.000 NA
ATOM     11  C   UNL     1       1.012   9.076  20.982  0.00  0.00    +0.000 A 
BRANCH   7  16
ATOM     12  C   UNL     1      -2.145  10.418  17.866  0.00  0.00    +0.000 A 
ATOM     13  C   UNL     1      -1.805  11.713  17.482  0.00  0.00    +0.000 A 
ATOM     14  C   UNL     1      -0.895  12.452  18.239  0.00  0.00    +0.000 A 
ATOM     15  C   UNL     1      -0.322  11.899  19.385  0.00  0.00    +0.000 A 
ATOM     16  C   UNL     1      -0.614  10.575  19.746  0.00  0.00    +0.000 A 
ATOM     17  C   UNL     1      -1.510   9.831  18.959  0.00  0.00    +0.000 A 
BRANCH  12  19
ATOM     18  C   UNL     1      -2.820   9.880  15.678  0.00  0.00    +0.000 C 
ATOM     19  O   UNL     1      -3.060   9.766  17.084  0.00  0.00    +0.000 OA
ENDBRANCH  12  19
ENDBRANCH   7  16
BRANCH   8  20
ATOM     20  S   UNL     1      -1.497  11.369  22.893  0.00  0.00    +0.000 S 
ATOM     21  H   UNL     1      -2.214  10.608  23.730  0.00  0.00    +0.000 HD
ENDBRANCH   8  20
ENDBRANCH   1  11
BRANCH   4  22
ATOM     22  C   UNL     1       4.095   6.729  16.811  0.00  0.00    +0.000 A 
ATOM     23  N   UNL     1       4.634   7.371  15.786  0.00  0.00    +0.000 NA
ATOM     24  N   UNL     1       5.478   6.520  15.126  0.00  0.00    +0.000 NA
ATOM     25  C   UNL     1       5.434   5.362  15.738  0.00  0.00    +0.000 A 
ATOM     26  N   UNL     1       4.561   5.404  16.809  0.00  0.00    +0.000 N 
BRANCH  26  27
ATOM     27  C   UNL     1       4.207   4.369  17.723  0.00  0.00    +0.000 A 
ATOM     28  C   UNL     1       5.040   4.054  18.804  0.00  0.00    +0.000 A 
ATOM     29  C   UNL     1       4.644   3.087  19.728  0.00  0.00    +0.000 A 
ATOM     30  C   UNL     1       3.412   2.444  19.588  0.00  0.00    +0.000 A 
ATOM     31  C   UNL     1       2.568   2.758  18.521  0.00  0.00    +0.000 A 
ATOM     32  C   UNL     1       2.986   3.688  17.574  0.00  0.00    +0.000 A 
BRANCH  31  33
ATOM     33  O   UNL     1       1.381   2.080  18.508  0.00  0.00    +0.000 OA
ATOM     34  C   UNL     1       0.271   2.706  19.144  0.00  0.00    +0.000 C 
ENDBRANCH  31  33
ENDBRANCH  26  27
BRANCH  25  35
ATOM     35  S   UNL     1       6.235   3.952  15.128  0.00  0.00    +0.000 S 
ATOM     36  H   UNL     1       5.968   4.169  13.832  0.00  0.00    +0.000 HD
ENDBRANCH  25  35
ENDBRANCH   4  22
TORSDOF 8
ENDMDL
MODEL 7
REMARK VINA RESULT:      -8.2      0.936      1.527
REMARK  Name = 
REMARK  10 active torsions:
REMARK  status: ('A' for Active; 'I' for Inactive)
REMARK    1  A    between atoms: C_1  and  O_2
REMARK    2  A    between atoms: O_2  and  C_3
REMARK    3  A    between atoms: C_7  and  N_8
REMARK    4  A    between atoms: C_9  and  S_10
REMARK    5  A    between atoms: C_13  and  C_14
REMARK    6  A    between atoms: C_17  and  C_18
REMARK    7  A    between atoms: C_21  and  S_22
REMARK    8  A    between atoms: N_23  and  C_24
REMARK    9  A    between atoms: C_28  and  O_29
REMARK   10  A    between atoms: O_29  and  C_30
REMARK                            x       y       z     vdW  Elec       q    Type
REMARK                         _______ _______ _______ _____ _____    ______ ____
ROOT
ATOM      1  C   UNL     1       3.050   7.481  18.211  0.00  0.00    +0.000 A 
ATOM      2  C   UNL     1       2.744   6.730  19.347  0.00  0.00    +0.000 A 
ATOM      3  C   UNL     1       1.916   7.258  20.337  0.00  0.00    +0.000 A 
ATOM      4  C   UNL     1       1.463   8.568  20.205  0.00  0.00    +0.000 A 
ATOM      5  N   UNL     1       1.750   9.322  19.119  0.00  0.00    +0.000 NA
ATOM      6  C   UNL     1       2.532   8.770  18.156  0.00  0.00    +0.000 A 
ENDROOT
BRANCH   1  11
ATOM      7  N   UNL     1       4.350   5.576  17.042  0.00  0.00    +0.000 N 
ATOM      8  C   UNL     1       5.098   5.601  15.869  0.00  0.00    +0.000 A 
ATOM      9  N   UNL     1       5.102   6.805  15.351  0.00  0.00    +0.000 NA
ATOM     10  N   UNL     1       4.380   7.619  16.171  0.00  0.00    +0.000 NA
ATOM     11  C   UNL     1       3.911   6.904  17.177  0.00  0.00    +0.000 A 
BRANCH   7  16
ATOM     12  C   UNL     1       2.666   2.620  18.558  0.00  0.00    +0.000 A 
ATOM     13  C   UNL     1       3.564   2.288  19.570  0.00  0.00    +0.000 A 
ATOM     14  C   UNL     1       4.733   3.031  19.742  0.00  0.00    +0.000 A 
ATOM     15  C   UNL     1       5.009   4.110  18.900  0.00  0.00    +0.000 A 
ATOM     16  C   UNL     1       4.083   4.487  17.916  0.00  0.00    +0.000 A 
ATOM     17  C   UNL     1       2.896   3.748  17.772  0.00  0.00    +0.000 A 
BRANCH  12  19
ATOM     18  C   UNL     1       0.360   2.413  18.971  0.00  0.00    +0.000 C 
ATOM     19  O   UNL     1       1.554   1.831  18.441  0.00  0.00    +0.000 OA
ENDBRANCH  12  19
ENDBRANCH   7  16
BRANCH   8  20
ATOM     20  S   UNL     1       6.094   4.331  15.224  0.00  0.00    +0.000 S 
ATOM     21  H   UNL     1       7.238   4.545  15.886  0.00  0.00    +0.000 HD
ENDBRANCH   8  20
ENDBRANCH   1  11
BRANCH   4  22
ATOM     22  C   UNL     1       0.717   9.264  21.258  0.00  0.00    +0.000 A 
ATOM     23  N   UNL     1       0.885   9.064  22.555  0.00  0.00    +0.000 NA
ATOM     24  N   UNL     1       0.104   9.952  23.244  0.00  0.00    +0.000 NA
ATOM     25  C   UNL     1      -0.549  10.672  22.365  0.00  0.00    +0.000 A 
ATOM     26  N   UNL     1      -0.232  10.283  21.076  0.00  0.00    +0.000 N 
BRANCH  26  27
ATOM     27  C   UNL     1      -0.723  10.788  19.838  0.00  0.00    +0.000 A 
ATOM     28  C   UNL     1      -0.407  12.087  19.418  0.00  0.00    +0.000 A 
ATOM     29  C   UNL     1      -0.837  12.540  18.171  0.00  0.00    +0.000 A 
ATOM     30  C   UNL     1      -1.568  11.697  17.333  0.00  0.00    +0.000 A 
ATOM     31  C   UNL     1      -1.881  10.396  17.734  0.00  0.00    +0.000 A 
ATOM     32  C   UNL     1      -1.492   9.963  18.998  0.00  0.00    +0.000 A 
BRANCH  31  33
ATOM     33  O   UNL     1      -2.579   9.663  16.815  0.00  0.00    +0.000 OA
ATOM     34  C   UNL     1      -2.810  10.267  15.547  0.00  0.00    +0.000 C 
ENDBRANCH  31  33
ENDBRANCH  26  27
BRANCH  25  35
ATOM     35  S   UNL     1      -1.774  11.811  22.815  0.00  0.00    +0.000 S 
ATOM     36  H   UNL     1      -2.759  10.919  22.994  0.00  0.00    +0.000 HD
ENDBRANCH  25  35
ENDBRANCH   4  22
TORSDOF 8
ENDMDL
MODEL 8
REMARK VINA RESULT:      -8.2      2.089      3.003
REMARK  Name = 
REMARK  10 active torsions:
REMARK  status: ('A' for Active; 'I' for Inactive)
REMARK    1  A    between atoms: C_1  and  O_2
REMARK    2  A    between atoms: O_2  and  C_3
REMARK    3  A    between atoms: C_7  and  N_8
REMARK    4  A    between atoms: C_9  and  S_10
REMARK    5  A    between atoms: C_13  and  C_14
REMARK    6  A    between atoms: C_17  and  C_18
REMARK    7  A    between atoms: C_21  and  S_22
REMARK    8  A    between atoms: N_23  and  C_24
REMARK    9  A    between atoms: C_28  and  O_29
REMARK   10  A    between atoms: O_29  and  C_30
REMARK                            x       y       z     vdW  Elec       q    Type
REMARK                         _______ _______ _______ _____ _____    ______ ____
ROOT
ATOM      1  C   UNL     1       3.184   7.411  17.999  0.00  0.00    +0.000 A 
ATOM      2  C   UNL     1       2.421   8.518  17.626  0.00  0.00    +0.000 A 
ATOM      3  C   UNL     1       1.599   9.151  18.558  0.00  0.00    +0.000 A 
ATOM      4  C   UNL     1       1.500   8.615  19.840  0.00  0.00    +0.000 A 
ATOM      5  N   UNL     1       2.221   7.539  20.227  0.00  0.00    +0.000 NA
ATOM      6  C   UNL     1       3.038   6.962  19.308  0.00  0.00    +0.000 A 
ENDROOT
BRANCH   1  11
ATOM      7  N   UNL     1       4.449   5.423  16.936  0.00  0.00    +0.000 N 
ATOM      8  C   UNL     1       5.226   5.379  15.782  0.00  0.00    +0.000 A 
ATOM      9  N   UNL     1       5.281   6.560  15.220  0.00  0.00    +0.000 NA
ATOM     10  N   UNL     1       4.567   7.428  15.990  0.00  0.00    +0.000 NA
ATOM     11  C   UNL     1       4.051   6.767  17.010  0.00  0.00    +0.000 A 
BRANCH   7  16
ATOM     12  C   UNL     1       2.614   2.606  18.541  0.00  0.00    +0.000 A 
ATOM     13  C   UNL     1       3.494   2.261  19.565  0.00  0.00    +0.000 A 
ATOM     14  C   UNL     1       4.699   2.947  19.715  0.00  0.00    +0.000 A 
ATOM     15  C   UNL     1       5.031   3.983  18.840  0.00  0.00    +0.000 A 
ATOM     16  C   UNL     1       4.126   4.377  17.843  0.00  0.00    +0.000 A 
ATOM     17  C   UNL     1       2.902   3.696  17.721  0.00  0.00    +0.000 A 
BRANCH  12  19
ATOM     18  C   UNL     1       0.320   2.490  19.047  0.00  0.00    +0.000 C 
ATOM     19  O   UNL     1       1.463   1.873  18.447  0.00  0.00    +0.000 OA
ENDBRANCH  12  19
ENDBRANCH   7  16
BRANCH   8  20
ATOM     20  S   UNL     1       6.194   4.053  15.211  0.00  0.00    +0.000 S 
ATOM     21  H   UNL     1       5.244   3.207  14.794  0.00  0.00    +0.000 HD
ENDBRANCH   8  20
ENDBRANCH   1  11
BRANCH   4  22
ATOM     22  C   UNL     1       0.553   9.114  20.841  0.00  0.00    +0.000 A 
ATOM     23  N   UNL     1      -0.001   8.373  21.788  0.00  0.00    +0.000 NA
ATOM     24  N   UNL     1      -0.746   9.179  22.603  0.00  0.00    +0.000 NA
ATOM     25  C   UNL     1      -0.659  10.403  22.140  0.00  0.00    +0.000 A 
ATOM     26  N   UNL     1       0.133  10.444  21.006  0.00  0.00    +0.000 N 
BRANCH  26  27
ATOM     27  C   UNL     1       0.472  11.559  20.186  0.00  0.00    +0.000 A 
ATOM     28  C   UNL     1      -0.400  12.001  19.183  0.00  0.00    +0.000 A 
ATOM     29  C   UNL     1      -0.086  13.136  18.438  0.00  0.00    +0.000 A 
ATOM     30  C   UNL     1       1.088  13.845  18.700  0.00  0.00    +0.000 A 
ATOM     31  C   UNL     1       1.960  13.423  19.705  0.00  0.00    +0.000 A 
ATOM     32  C   UNL     1       1.668  12.262  20.415  0.00  0.00    +0.000 A 
BRANCH  31  33
ATOM     33  O   UNL     1       3.061  14.214  19.882  0.00  0.00    +0.000 OA
ATOM     34  C   UNL     1       3.828  14.522  18.722  0.00  0.00    +0.000 C 
ENDBRANCH  31  33
ENDBRANCH  26  27
BRANCH  25  35
ATOM     35  S   UNL     1      -1.586  11.715  22.786  0.00  0.00    +0.000 S 
ATOM     36  H   UNL     1      -1.906  12.275  21.611  0.00  0.00    +0.000 HD
ENDBRANCH  25  35
ENDBRANCH   4  22
TORSDOF 8
ENDMDL
MODEL 9
REMARK VINA RESULT:      -8.0      2.518      3.616
REMARK  Name = 
REMARK  10 active torsions:
REMARK  status: ('A' for Active; 'I' for Inactive)
REMARK    1  A    between atoms: C_1  and  O_2
REMARK    2  A    between atoms: O_2  and  C_3
REMARK    3  A    between atoms: C_7  and  N_8
REMARK    4  A    between atoms: C_9  and  S_10
REMARK    5  A    between atoms: C_13  and  C_14
REMARK    6  A    between atoms: C_17  and  C_18
REMARK    7  A    between atoms: C_21  and  S_22
REMARK    8  A    between atoms: N_23  and  C_24
REMARK    9  A    between atoms: C_28  and  O_29
REMARK   10  A    between atoms: O_29  and  C_30
REMARK                            x       y       z     vdW  Elec       q    Type
REMARK                         _______ _______ _______ _____ _____    ______ ____
ROOT
ATOM      1  C   UNL     1       1.650   6.764  20.226  0.00  0.00    +0.000 A 
ATOM      2  C   UNL     1       0.914   7.240  21.311  0.00  0.00    +0.000 A 
ATOM      3  C   UNL     1       0.590   8.594  21.402  0.00  0.00    +0.000 A 
ATOM      4  C   UNL     1       1.076   9.466  20.432  0.00  0.00    +0.000 A 
ATOM      5  N   UNL     1       1.799   9.034  19.374  0.00  0.00    +0.000 NA
ATOM      6  C   UNL     1       2.072   7.706  19.295  0.00  0.00    +0.000 A 
ENDROOT
BRANCH   1  11
ATOM      7  N   UNL     1       3.032   4.714  19.470  0.00  0.00    +0.000 N 
ATOM      8  C   UNL     1       2.859   3.367  19.768  0.00  0.00    +0.000 A 
ATOM      9  N   UNL     1       1.815   3.197  20.541  0.00  0.00    +0.000 NA
ATOM     10  N   UNL     1       1.250   4.418  20.761  0.00  0.00    +0.000 NA
ATOM     11  C   UNL     1       1.969   5.338  20.143  0.00  0.00    +0.000 A 
BRANCH   7  16
ATOM     12  C   UNL     1       6.339   6.046  18.388  0.00  0.00    +0.000 A 
ATOM     13  C   UNL     1       6.042   6.492  17.102  0.00  0.00    +0.000 A 
ATOM     14  C   UNL     1       4.755   6.339  16.587  0.00  0.00    +0.000 A 
ATOM     15  C   UNL     1       3.758   5.737  17.356  0.00  0.00    +0.000 A 
ATOM     16  C   UNL     1       4.031   5.338  18.673  0.00  0.00    +0.000 A 
ATOM     17  C   UNL     1       5.325   5.525  19.190  0.00  0.00    +0.000 A 
BRANCH  12  19
ATOM     18  C   UNL     1       8.213   7.467  18.446  0.00  0.00    +0.000 C 
ATOM     19  O   UNL     1       7.629   6.213  18.814  0.00  0.00    +0.000 OA
ENDBRANCH  12  19
ENDBRANCH   7  16
BRANCH   8  20
ATOM     20  S   UNL     1       3.717   2.016  19.090  0.00  0.00    +0.000 S 
ATOM     21  H   UNL     1       4.819   2.621  18.631  0.00  0.00    +0.000 HD
ENDBRANCH   8  20
ENDBRANCH   1  11
BRANCH   4  22
ATOM     22  C   UNL     1       0.921  10.922  20.519  0.00  0.00    +0.000 A 
ATOM     23  N   UNL     1       1.687  11.717  21.248  0.00  0.00    +0.000 NA
ATOM     24  N   UNL     1       1.328  13.016  21.013  0.00  0.00    +0.000 NA
ATOM     25  C   UNL     1       0.335  13.005  20.157  0.00  0.00    +0.000 A 
ATOM     26  N   UNL     1       0.000  11.709  19.809  0.00  0.00    +0.000 N 
BRANCH  26  27
ATOM     27  C   UNL     1      -1.023  11.250  18.929  0.00  0.00    +0.000 A 
ATOM     28  C   UNL     1      -0.737  10.316  17.925  0.00  0.00    +0.000 A 
ATOM     29  C   UNL     1      -1.763   9.824  17.120  0.00  0.00    +0.000 A 
ATOM     30  C   UNL     1      -3.079  10.247  17.322  0.00  0.00    +0.000 A 
ATOM     31  C   UNL     1      -3.379  11.168  18.327  0.00  0.00    +0.000 A 
ATOM     32  C   UNL     1      -2.346  11.694  19.097  0.00  0.00    +0.000 A 
BRANCH  31  33
ATOM     33  O   UNL     1      -4.704  11.484  18.441  0.00  0.00    +0.000 OA
ATOM     34  C   UNL     1      -5.424  11.701  17.232  0.00  0.00    +0.000 C 
ENDBRANCH  31  33
ENDBRANCH  26  27
BRANCH  25  35
ATOM     35  S   UNL     1      -0.529  14.438  19.709  0.00  0.00    +0.000 S 
ATOM     36  H   UNL     1      -1.082  14.669  20.909  0.00  0.00    +0.000 HD
ENDBRANCH  25  35
ENDBRANCH   4  22
TORSDOF 8
ENDMDL
