MODEL 1
REMARK VINA RESULT:      -8.2      0.000      0.000
REMARK  Name = 
REMARK  12 active torsions:
REMARK  status: ('A' for Active; 'I' for Inactive)
REMARK    1  A    between atoms: C_1  and  C_2
REMARK    2  A    between atoms: C_2  and  N_3
REMARK    3  A    between atoms: N_3  and  C_4
REMARK    4  A    between atoms: N_3  and  S_6
REMARK    5  A    between atoms: C_4  and  C_5
REMARK    6  A    between atoms: S_6  and  C_9
REMARK    7  A    between atoms: C_12  and  C_13
REMARK    8  A    between atoms: C_14  and  C_15
REMARK    9  A    between atoms: C_15  and  O_17
REMARK   10  A    between atoms: O_17  and  C_18
REMARK   11  A    between atoms: C_18  and  C_19
REMARK   12  A    between atoms: N_21  and  C_22
REMARK                            x       y       z     vdW  Elec       q    Type
REMARK                         _______ _______ _______ _____ _____    ______ ____
ROOT
ATOM      1  C   UNL     1       1.283   3.392  20.515  0.00  0.00    +0.000 C 
ATOM      2  O   UNL     1       1.462   2.826  21.582  0.00  0.00    +0.000 OA
ENDROOT
BRANCH   1   4
ATOM      3  C   UNL     1       1.788   5.768  20.659  0.00  0.00    +0.000 C 
ATOM      4  C   UNL     1       0.908   4.805  20.343  0.00  0.00    +0.000 C 
BRANCH   3   8
ATOM      5  C   UNL     1       1.240   9.950  20.010  0.00  0.00    +0.000 A 
ATOM      6  C   UNL     1       0.914   9.380  21.243  0.00  0.00    +0.000 A 
ATOM      7  C   UNL     1       1.086   8.007  21.434  0.00  0.00    +0.000 A 
ATOM      8  C   UNL     1       1.565   7.194  20.396  0.00  0.00    +0.000 A 
ATOM      9  C   UNL     1       1.893   7.785  19.165  0.00  0.00    +0.000 A 
ATOM     10  C   UNL     1       1.725   9.157  18.966  0.00  0.00    +0.000 A 
BRANCH   5  11
ATOM     11  S   UNL     1       1.007  11.694  19.769  0.00  0.00    +0.000 S 
ATOM     12  O   UNL     1       1.746  12.054  18.578  0.00  0.00    +0.000 OA
ATOM     13  O   UNL     1       1.249  12.357  21.032  0.00  0.00    +0.000 OA
BRANCH  11  14
ATOM     14  N   UNL     1      -0.673  11.830  19.427  0.00  0.00    +0.000 NA
BRANCH  14  16
ATOM     15  C   UNL     1      -1.453  10.328  17.570  0.00  0.00    +0.000 C 
ATOM     16  C   UNL     1      -1.338  10.542  19.072  0.00  0.00    +0.000 C 
ENDBRANCH  14  16
BRANCH  14  17
ATOM     17  C   UNL     1      -1.416  12.690  20.398  0.00  0.00    +0.000 C 
ATOM     18  C   UNL     1      -2.917  12.715  20.165  0.00  0.00    +0.000 C 
ENDBRANCH  14  17
ENDBRANCH  11  14
ENDBRANCH   5  11
ENDBRANCH   3   8
ENDBRANCH   1   4
BRANCH   1  19
ATOM     19  O   UNL     1       1.571   2.891  19.292  0.00  0.00    +0.000 OA
BRANCH  19  20
ATOM     20  C   UNL     1       2.589   1.890  19.286  0.00  0.00    +0.000 C 
BRANCH  20  21
ATOM     21  C   UNL     1       3.970   2.548  19.326  0.00  0.00    +0.000 C 
ATOM     22  O   UNL     1       4.839   2.107  20.074  0.00  0.00    +0.000 OA
ATOM     23  N   UNL     1       4.095   3.647  18.481  0.00  0.00    +0.000 N 
ATOM     24  H   UNL     1       3.230   4.053  18.149  0.00  0.00    +0.000 HD
BRANCH  23  25
ATOM     25  C   UNL     1       5.295   4.369  18.241  0.00  0.00    +0.000 A 
ATOM     26  C   UNL     1       5.904   5.083  19.283  0.00  0.00    +0.000 A 
ATOM     27  C   UNL     1       7.015   5.887  19.051  0.00  0.00    +0.000 A 
ATOM     28  C   UNL     1       7.512   6.016  17.763  0.00  0.00    +0.000 A 
ATOM     29  C   UNL     1       6.941   5.305  16.699  0.00  0.00    +0.000 A 
ATOM     30  C   UNL     1       7.429   5.513  15.400  0.00  0.00    +0.000 A 
ATOM     31  C   UNL     1       6.906   4.812  14.317  0.00  0.00    +0.000 A 
ATOM     32  C   UNL     1       5.926   3.855  14.530  0.00  0.00    +0.000 A 
ATOM     33  C   UNL     1       5.414   3.651  15.817  0.00  0.00    +0.000 A 
ATOM     34  C   UNL     1       5.865   4.407  16.930  0.00  0.00    +0.000 A 
ENDBRANCH  23  25
ENDBRANCH  20  21
ENDBRANCH  19  20
ENDBRANCH   1  19
TORSDOF 10
ENDMDL
MODEL 2
REMARK VINA RESULT:      -8.2      1.076      2.576
REMARK  Name = 
REMARK  12 active torsions:
REMARK  status: ('A' for Active; 'I' for Inactive)
REMARK    1  A    between atoms: C_1  and  C_2
REMARK    2  A    between atoms: C_2  and  N_3
REMARK    3  A    between atoms: N_3  and  C_4
REMARK    4  A    between atoms: N_3  and  S_6
REMARK    5  A    between atoms: C_4  and  C_5
REMARK    6  A    between atoms: S_6  and  C_9
REMARK    7  A    between atoms: C_12  and  C_13
REMARK    8  A    between atoms: C_14  and  C_15
REMARK    9  A    between atoms: C_15  and  O_17
REMARK   10  A    between atoms: O_17  and  C_18
REMARK   11  A    between atoms: C_18  and  C_19
REMARK   12  A    between atoms: N_21  and  C_22
REMARK                            x       y       z     vdW  Elec       q    Type
REMARK                         _______ _______ _______ _____ _____    ______ ____
ROOT
ATOM      1  C   UNL     1       1.717   3.147  20.606  0.00  0.00    +0.000 C 
ATOM      2  O   UNL     1       2.648   2.719  21.271  0.00  0.00    +0.000 OA
ENDROOT
BRANCH   1   4
ATOM      3  C   UNL     1       2.178   5.536  20.579  0.00  0.00    +0.000 C 
ATOM      4  C   UNL     1       1.269   4.549  20.556  0.00  0.00    +0.000 C 
BRANCH   3   8
ATOM      5  C   UNL     1       1.129   9.620  19.918  0.00  0.00    +0.000 A 
ATOM      6  C   UNL     1       1.829   8.905  18.942  0.00  0.00    +0.000 A 
ATOM      7  C   UNL     1       2.176   7.573  19.181  0.00  0.00    +0.000 A 
ATOM      8  C   UNL     1       1.846   6.954  20.395  0.00  0.00    +0.000 A 
ATOM      9  C   UNL     1       1.139   7.685  21.362  0.00  0.00    +0.000 A 
ATOM     10  C   UNL     1       0.786   9.017  21.132  0.00  0.00    +0.000 A 
BRANCH   5  11
ATOM     11  S   UNL     1       0.701  11.317  19.615  0.00  0.00    +0.000 S 
ATOM     12  O   UNL     1       0.867  11.542  18.196  0.00  0.00    +0.000 OA
ATOM     13  O   UNL     1       1.389  12.133  20.590  0.00  0.00    +0.000 OA
BRANCH  11  14
ATOM     14  N   UNL     1      -0.979  11.378  19.981  0.00  0.00    +0.000 NA
BRANCH  14  16
ATOM     15  C   UNL     1      -1.473  11.593  22.435  0.00  0.00    +0.000 C 
ATOM     16  C   UNL     1      -1.335  12.303  21.097  0.00  0.00    +0.000 C 
ENDBRANCH  14  16
BRANCH  14  17
ATOM     17  C   UNL     1      -1.854  11.461  18.773  0.00  0.00    +0.000 C 
ATOM     18  C   UNL     1      -2.119  10.116  18.119  0.00  0.00    +0.000 C 
ENDBRANCH  14  17
ENDBRANCH  11  14
ENDBRANCH   5  11
ENDBRANCH   3   8
ENDBRANCH   1   4
BRANCH   1  19
ATOM     19  O   UNL     1       1.039   2.465  19.655  0.00  0.00    +0.000 OA
BRANCH  19  20
ATOM     20  C   UNL     1       1.151   3.013  18.341  0.00  0.00    +0.000 C 
BRANCH  20  21
ATOM     21  C   UNL     1       2.598   2.913  17.855  0.00  0.00    +0.000 C 
ATOM     22  O   UNL     1       3.188   1.836  17.897  0.00  0.00    +0.000 OA
ATOM     23  N   UNL     1       3.129   4.122  17.413  0.00  0.00    +0.000 N 
ATOM     24  H   UNL     1       2.632   4.956  17.699  0.00  0.00    +0.000 HD
BRANCH  23  25
ATOM     25  C   UNL     1       4.404   4.290  16.811  0.00  0.00    +0.000 A 
ATOM     26  C   UNL     1       4.595   3.953  15.463  0.00  0.00    +0.000 A 
ATOM     27  C   UNL     1       5.856   4.002  14.879  0.00  0.00    +0.000 A 
ATOM     28  C   UNL     1       6.954   4.359  15.648  0.00  0.00    +0.000 A 
ATOM     29  C   UNL     1       6.802   4.720  16.993  0.00  0.00    +0.000 A 
ATOM     30  C   UNL     1       7.944   5.009  17.755  0.00  0.00    +0.000 A 
ATOM     31  C   UNL     1       7.838   5.394  19.089  0.00  0.00    +0.000 A 
ATOM     32  C   UNL     1       6.583   5.546  19.659  0.00  0.00    +0.000 A 
ATOM     33  C   UNL     1       5.435   5.240  18.919  0.00  0.00    +0.000 A 
ATOM     34  C   UNL     1       5.511   4.766  17.583  0.00  0.00    +0.000 A 
ENDBRANCH  23  25
ENDBRANCH  20  21
ENDBRANCH  19  20
ENDBRANCH   1  19
TORSDOF 10
ENDMDL
MODEL 3
REMARK VINA RESULT:      -8.1      1.246      1.730
REMARK  Name = 
REMARK  12 active torsions:
REMARK  status: ('A' for Active; 'I' for Inactive)
REMARK    1  A    between atoms: C_1  and  C_2
REMARK    2  A    between atoms: C_2  and  N_3
REMARK    3  A    between atoms: N_3  and  C_4
REMARK    4  A    between atoms: N_3  and  S_6
REMARK    5  A    between atoms: C_4  and  C_5
REMARK    6  A    between atoms: S_6  and  C_9
REMARK    7  A    between atoms: C_12  and  C_13
REMARK    8  A    between atoms: C_14  and  C_15
REMARK    9  A    between atoms: C_15  and  O_17
REMARK   10  A    between atoms: O_17  and  C_18
REMARK   11  A    between atoms: C_18  and  C_19
REMARK   12  A    between atoms: N_21  and  C_22
REMARK                            x       y       z     vdW  Elec       q    Type
REMARK                         _______ _______ _______ _____ _____    ______ ____
ROOT
ATOM      1  C   UNL     1       1.549   3.292  21.121  0.00  0.00    +0.000 C 
ATOM      2  O   UNL     1       2.152   3.060  22.157  0.00  0.00    +0.000 OA
ENDROOT
BRANCH   1   4
ATOM      3  C   UNL     1       1.883   5.692  20.900  0.00  0.00    +0.000 C 
ATOM      4  C   UNL     1       1.112   4.621  20.660  0.00  0.00    +0.000 C 
BRANCH   3   8
ATOM      5  C   UNL     1       1.152   9.647  19.471  0.00  0.00    +0.000 A 
ATOM      6  C   UNL     1       0.608   9.225  20.687  0.00  0.00    +0.000 A 
ATOM      7  C   UNL     1       0.846   7.923  21.133  0.00  0.00    +0.000 A 
ATOM      8  C   UNL     1       1.608   7.031  20.365  0.00  0.00    +0.000 A 
ATOM      9  C   UNL     1       2.151   7.473  19.148  0.00  0.00    +0.000 A 
ATOM     10  C   UNL     1       1.919   8.774  18.694  0.00  0.00    +0.000 A 
BRANCH   5  11
ATOM     11  S   UNL     1       0.835  11.300  18.903  0.00  0.00    +0.000 S 
ATOM     12  O   UNL     1      -0.471  11.285  18.282  0.00  0.00    +0.000 OA
ATOM     13  O   UNL     1       2.003  11.757  18.182  0.00  0.00    +0.000 OA
BRANCH  11  14
ATOM     14  N   UNL     1       0.734  12.211  20.358  0.00  0.00    +0.000 NA
BRANCH  14  16
ATOM     15  C   UNL     1       2.808  13.479  20.995  0.00  0.00    +0.000 C 
ATOM     16  C   UNL     1       1.447  13.522  20.317  0.00  0.00    +0.000 C 
ENDBRANCH  14  16
BRANCH  14  17
ATOM     17  C   UNL     1      -0.636  12.243  20.952  0.00  0.00    +0.000 C 
ATOM     18  C   UNL     1      -0.679  11.809  22.407  0.00  0.00    +0.000 C 
ENDBRANCH  14  17
ENDBRANCH  11  14
ENDBRANCH   5  11
ENDBRANCH   3   8
ENDBRANCH   1   4
BRANCH   1  19
ATOM     19  O   UNL     1       1.327   2.416  20.116  0.00  0.00    +0.000 OA
BRANCH  19  20
ATOM     20  C   UNL     1       1.748   2.871  18.829  0.00  0.00    +0.000 C 
BRANCH  20  21
ATOM     21  C   UNL     1       3.271   3.009  18.796  0.00  0.00    +0.000 C 
ATOM     22  O   UNL     1       3.981   2.050  19.091  0.00  0.00    +0.000 OA
ATOM     23  N   UNL     1       3.715   4.278  18.435  0.00  0.00    +0.000 N 
ATOM     24  H   UNL     1       3.031   5.021  18.497  0.00  0.00    +0.000 HD
BRANCH  23  25
ATOM     25  C   UNL     1       5.070   4.646  18.219  0.00  0.00    +0.000 A 
ATOM     26  C   UNL     1       5.846   5.124  19.285  0.00  0.00    +0.000 A 
ATOM     27  C   UNL     1       7.138   5.595  19.081  0.00  0.00    +0.000 A 
ATOM     28  C   UNL     1       7.662   5.628  17.797  0.00  0.00    +0.000 A 
ATOM     29  C   UNL     1       6.924   5.143  16.709  0.00  0.00    +0.000 A 
ATOM     30  C   UNL     1       7.460   5.255  15.417  0.00  0.00    +0.000 A 
ATOM     31  C   UNL     1       6.772   4.767  14.310  0.00  0.00    +0.000 A 
ATOM     32  C   UNL     1       5.562   4.113  14.490  0.00  0.00    +0.000 A 
ATOM     33  C   UNL     1       5.003   4.013  15.769  0.00  0.00    +0.000 A 
ATOM     34  C   UNL     1       5.638   4.572  16.909  0.00  0.00    +0.000 A 
ENDBRANCH  23  25
ENDBRANCH  20  21
ENDBRANCH  19  20
ENDBRANCH   1  19
TORSDOF 10
ENDMDL
MODEL 4
REMARK VINA RESULT:      -8.0      0.970      2.563
REMARK  Name = 
REMARK  12 active torsions:
REMARK  status: ('A' for Active; 'I' for Inactive)
REMARK    1  A    between atoms: C_1  and  C_2
REMARK    2  A    between atoms: C_2  and  N_3
REMARK    3  A    between atoms: N_3  and  C_4
REMARK    4  A    between atoms: N_3  and  S_6
REMARK    5  A    between atoms: C_4  and  C_5
REMARK    6  A    between atoms: S_6  and  C_9
REMARK    7  A    between atoms: C_12  and  C_13
REMARK    8  A    between atoms: C_14  and  C_15
REMARK    9  A    between atoms: C_15  and  O_17
REMARK   10  A    between atoms: O_17  and  C_18
REMARK   11  A    between atoms: C_18  and  C_19
REMARK   12  A    between atoms: N_21  and  C_22
REMARK                            x       y       z     vdW  Elec       q    Type
REMARK                         _______ _______ _______ _____ _____    ______ ____
ROOT
ATOM      1  C   UNL     1       2.528   3.024  21.040  0.00  0.00    +0.000 C 
ATOM      2  O   UNL     1       3.278   2.301  21.677  0.00  0.00    +0.000 OA
ENDROOT
BRANCH   1   4
ATOM      3  C   UNL     1       1.805   5.174  20.158  0.00  0.00    +0.000 C 
ATOM      4  C   UNL     1       2.532   4.496  21.060  0.00  0.00    +0.000 C 
BRANCH   3   8
ATOM      5  C   UNL     1       1.222   9.401  20.082  0.00  0.00    +0.000 A 
ATOM      6  C   UNL     1       1.937   8.769  19.061  0.00  0.00    +0.000 A 
ATOM      7  C   UNL     1       2.130   7.387  19.109  0.00  0.00    +0.000 A 
ATOM      8  C   UNL     1       1.631   6.631  20.179  0.00  0.00    +0.000 A 
ATOM      9  C   UNL     1       0.911   7.280  21.194  0.00  0.00    +0.000 A 
ATOM     10  C   UNL     1       0.712   8.662  21.155  0.00  0.00    +0.000 A 
BRANCH   5  11
ATOM     11  S   UNL     1       0.991  11.161  20.023  0.00  0.00    +0.000 S 
ATOM     12  O   UNL     1       1.751  11.644  18.891  0.00  0.00    +0.000 OA
ATOM     13  O   UNL     1       1.209  11.686  21.354  0.00  0.00    +0.000 OA
BRANCH  11  14
ATOM     14  N   UNL     1      -0.683  11.333  19.667  0.00  0.00    +0.000 NA
BRANCH  14  16
ATOM     15  C   UNL     1      -2.129  12.849  21.052  0.00  0.00    +0.000 C 
ATOM     16  C   UNL     1      -1.214  12.716  19.844  0.00  0.00    +0.000 C 
ENDBRANCH  14  16
BRANCH  14  17
ATOM     17  C   UNL     1      -1.104  10.639  18.412  0.00  0.00    +0.000 C 
ATOM     18  C   UNL     1      -2.161  11.394  17.624  0.00  0.00    +0.000 C 
ENDBRANCH  14  17
ENDBRANCH  11  14
ENDBRANCH   5  11
ENDBRANCH   3   8
ENDBRANCH   1   4
BRANCH   1  19
ATOM     19  O   UNL     1       1.682   2.629  20.061  0.00  0.00    +0.000 OA
BRANCH  19  20
ATOM     20  C   UNL     1       2.283   1.818  19.051  0.00  0.00    +0.000 C 
BRANCH  20  21
ATOM     21  C   UNL     1       2.801   2.699  17.913  0.00  0.00    +0.000 C 
ATOM     22  O   UNL     1       2.028   3.105  17.049  0.00  0.00    +0.000 OA
ATOM     23  N   UNL     1       4.171   2.944  17.969  0.00  0.00    +0.000 N 
ATOM     24  H   UNL     1       4.708   2.325  18.561  0.00  0.00    +0.000 HD
BRANCH  23  25
ATOM     25  C   UNL     1       4.887   3.816  17.105  0.00  0.00    +0.000 A 
ATOM     26  C   UNL     1       4.747   3.699  15.715  0.00  0.00    +0.000 A 
ATOM     27  C   UNL     1       5.518   4.464  14.847  0.00  0.00    +0.000 A 
ATOM     28  C   UNL     1       6.469   5.334  15.358  0.00  0.00    +0.000 A 
ATOM     29  C   UNL     1       6.627   5.491  16.741  0.00  0.00    +0.000 A 
ATOM     30  C   UNL     1       7.645   6.330  17.221  0.00  0.00    +0.000 A 
ATOM     31  C   UNL     1       7.823   6.533  18.586  0.00  0.00    +0.000 A 
ATOM     32  C   UNL     1       6.949   5.940  19.486  0.00  0.00    +0.000 A 
ATOM     33  C   UNL     1       5.943   5.084  19.025  0.00  0.00    +0.000 A 
ATOM     34  C   UNL     1       5.786   4.789  17.646  0.00  0.00    +0.000 A 
ENDBRANCH  23  25
ENDBRANCH  20  21
ENDBRANCH  19  20
ENDBRANCH   1  19
TORSDOF 10
ENDMDL
MODEL 5
REMARK VINA RESULT:      -7.9      1.236      2.690
REMARK  Name = 
REMARK  12 active torsions:
REMARK  status: ('A' for Active; 'I' for Inactive)
REMARK    1  A    between atoms: C_1  and  C_2
REMARK    2  A    between atoms: C_2  and  N_3
REMARK    3  A    between atoms: N_3  and  C_4
REMARK    4  A    between atoms: N_3  and  S_6
REMARK    5  A    between atoms: C_4  and  C_5
REMARK    6  A    between atoms: S_6  and  C_9
REMARK    7  A    between atoms: C_12  and  C_13
REMARK    8  A    between atoms: C_14  and  C_15
REMARK    9  A    between atoms: C_15  and  O_17
REMARK   10  A    between atoms: O_17  and  C_18
REMARK   11  A    between atoms: C_18  and  C_19
REMARK   12  A    between atoms: N_21  and  C_22
REMARK                            x       y       z     vdW  Elec       q    Type
REMARK                         _______ _______ _______ _____ _____    ______ ____
ROOT
ATOM      1  C   UNL     1       2.253   3.299  20.542  0.00  0.00    +0.000 C 
ATOM      2  O   UNL     1       3.343   2.789  20.746  0.00  0.00    +0.000 OA
ENDROOT
BRANCH   1   4
ATOM      3  C   UNL     1       2.114   5.703  20.191  0.00  0.00    +0.000 C 
ATOM      4  C   UNL     1       1.841   4.646  20.971  0.00  0.00    +0.000 C 
BRANCH   3   8
ATOM      5  C   UNL     1       0.632   9.654  20.826  0.00  0.00    +0.000 A 
ATOM      6  C   UNL     1       1.494   9.388  19.758  0.00  0.00    +0.000 A 
ATOM      7  C   UNL     1       1.981   8.092  19.574  0.00  0.00    +0.000 A 
ATOM      8  C   UNL     1       1.628   7.062  20.458  0.00  0.00    +0.000 A 
ATOM      9  C   UNL     1       0.758   7.346  21.522  0.00  0.00    +0.000 A 
ATOM     10  C   UNL     1       0.265   8.639  21.714  0.00  0.00    +0.000 A 
BRANCH   5  11
ATOM     11  S   UNL     1       0.026  11.307  21.064  0.00  0.00    +0.000 S 
ATOM     12  O   UNL     1       1.186  12.164  21.183  0.00  0.00    +0.000 OA
ATOM     13  O   UNL     1      -0.988  11.268  22.095  0.00  0.00    +0.000 OA
BRANCH  11  14
ATOM     14  N   UNL     1      -0.761  11.663  19.577  0.00  0.00    +0.000 NA
BRANCH  14  16
ATOM     15  C   UNL     1      -0.201  13.766  18.322  0.00  0.00    +0.000 C 
ATOM     16  C   UNL     1       0.117  12.296  18.548  0.00  0.00    +0.000 C 
ENDBRANCH  14  16
BRANCH  14  17
ATOM     17  C   UNL     1      -1.637  10.558  19.081  0.00  0.00    +0.000 C 
ATOM     18  C   UNL     1      -1.304  10.103  17.671  0.00  0.00    +0.000 C 
ENDBRANCH  14  17
ENDBRANCH  11  14
ENDBRANCH   5  11
ENDBRANCH   3   8
ENDBRANCH   1   4
BRANCH   1  19
ATOM     19  O   UNL     1       1.284   2.811  19.735  0.00  0.00    +0.000 OA
BRANCH  19  20
ATOM     20  C   UNL     1       1.766   2.138  18.571  0.00  0.00    +0.000 C 
BRANCH  20  21
ATOM     21  C   UNL     1       2.442   3.138  17.632  0.00  0.00    +0.000 C 
ATOM     22  O   UNL     1       1.770   3.991  17.056  0.00  0.00    +0.000 OA
ATOM     23  N   UNL     1       3.816   2.955  17.506  0.00  0.00    +0.000 N 
ATOM     24  H   UNL     1       4.173   2.059  17.810  0.00  0.00    +0.000 HD
BRANCH  23  25
ATOM     25  C   UNL     1       4.698   3.807  16.789  0.00  0.00    +0.000 A 
ATOM     26  C   UNL     1       4.709   3.787  15.387  0.00  0.00    +0.000 A 
ATOM     27  C   UNL     1       5.637   4.527  14.663  0.00  0.00    +0.000 A 
ATOM     28  C   UNL     1       6.595   5.273  15.335  0.00  0.00    +0.000 A 
ATOM     29  C   UNL     1       6.606   5.331  16.735  0.00  0.00    +0.000 A 
ATOM     30  C   UNL     1       7.630   6.041  17.380  0.00  0.00    +0.000 A 
ATOM     31  C   UNL     1       7.668   6.144  18.767  0.00  0.00    +0.000 A 
ATOM     32  C   UNL     1       6.649   5.582  19.523  0.00  0.00    +0.000 A 
ATOM     33  C   UNL     1       5.632   4.853  18.896  0.00  0.00    +0.000 A 
ATOM     34  C   UNL     1       5.609   4.658  17.491  0.00  0.00    +0.000 A 
ENDBRANCH  23  25
ENDBRANCH  20  21
ENDBRANCH  19  20
ENDBRANCH   1  19
TORSDOF 10
ENDMDL
MODEL 6
REMARK VINA RESULT:      -7.9      2.509     10.056
REMARK  Name = 
REMARK  12 active torsions:
REMARK  status: ('A' for Active; 'I' for Inactive)
REMARK    1  A    between atoms: C_1  and  C_2
REMARK    2  A    between atoms: C_2  and  N_3
REMARK    3  A    between atoms: N_3  and  C_4
REMARK    4  A    between atoms: N_3  and  S_6
REMARK    5  A    between atoms: C_4  and  C_5
REMARK    6  A    between atoms: S_6  and  C_9
REMARK    7  A    between atoms: C_12  and  C_13
REMARK    8  A    between atoms: C_14  and  C_15
REMARK    9  A    between atoms: C_15  and  O_17
REMARK   10  A    between atoms: O_17  and  C_18
REMARK   11  A    between atoms: C_18  and  C_19
REMARK   12  A    between atoms: N_21  and  C_22
REMARK                            x       y       z     vdW  Elec       q    Type
REMARK                         _______ _______ _______ _____ _____    ______ ____
ROOT
ATOM      1  C   UNL     1       0.391  10.207  21.879  0.00  0.00    +0.000 C 
ATOM      2  O   UNL     1      -0.682   9.901  22.376  0.00  0.00    +0.000 OA
ENDROOT
BRANCH   1   4
ATOM      3  C   UNL     1       1.016   7.989  21.097  0.00  0.00    +0.000 C 
ATOM      4  C   UNL     1       1.362   9.271  21.288  0.00  0.00    +0.000 C 
BRANCH   3   8
ATOM      5  C   UNL     1       3.331   5.067  19.019  0.00  0.00    +0.000 A 
ATOM      6  C   UNL     1       2.603   4.710  20.158  0.00  0.00    +0.000 A 
ATOM      7  C   UNL     1       1.862   5.682  20.833  0.00  0.00    +0.000 A 
ATOM      8  C   UNL     1       1.856   7.013  20.393  0.00  0.00    +0.000 A 
ATOM      9  C   UNL     1       2.590   7.354  19.245  0.00  0.00    +0.000 A 
ATOM     10  C   UNL     1       3.333   6.388  18.562  0.00  0.00    +0.000 A 
BRANCH   5  11
ATOM     11  S   UNL     1       4.282   3.830  18.171  0.00  0.00    +0.000 S 
ATOM     12  O   UNL     1       3.384   3.174  17.246  0.00  0.00    +0.000 OA
ATOM     13  O   UNL     1       5.021   3.077  19.161  0.00  0.00    +0.000 OA
BRANCH  11  14
ATOM     14  N   UNL     1       5.419   4.750  17.265  0.00  0.00    +0.000 NA
BRANCH  14  16
ATOM     15  C   UNL     1       7.250   5.943  18.502  0.00  0.00    +0.000 C 
ATOM     16  C   UNL     1       6.819   4.678  17.776  0.00  0.00    +0.000 C 
ENDBRANCH  14  16
BRANCH  14  17
ATOM     17  C   UNL     1       5.266   4.604  15.786  0.00  0.00    +0.000 C 
ATOM     18  C   UNL     1       6.550   4.208  15.078  0.00  0.00    +0.000 C 
ENDBRANCH  14  17
ENDBRANCH  11  14
ENDBRANCH   5  11
ENDBRANCH   3   8
ENDBRANCH   1   4
BRANCH   1  19
ATOM     19  O   UNL     1       0.813  11.462  21.609  0.00  0.00    +0.000 OA
BRANCH  19  20
ATOM     20  C   UNL     1      -0.232  12.431  21.513  0.00  0.00    +0.000 C 
BRANCH  20  21
ATOM     21  C   UNL     1      -0.816  12.432  20.099  0.00  0.00    +0.000 C 
ATOM     22  O   UNL     1      -0.363  13.194  19.248  0.00  0.00    +0.000 OA
ATOM     23  N   UNL     1      -1.867  11.537  19.923  0.00  0.00    +0.000 N 
ATOM     24  H   UNL     1      -2.303  11.193  20.768  0.00  0.00    +0.000 HD
BRANCH  23  25
ATOM     25  C   UNL     1      -2.512  11.257  18.688  0.00  0.00    +0.000 A 
ATOM     26  C   UNL     1      -1.834  10.550  17.685  0.00  0.00    +0.000 A 
ATOM     27  C   UNL     1      -2.400  10.359  16.430  0.00  0.00    +0.000 A 
ATOM     28  C   UNL     1      -3.643  10.905  16.148  0.00  0.00    +0.000 A 
ATOM     29  C   UNL     1      -4.360  11.602  17.129  0.00  0.00    +0.000 A 
ATOM     30  C   UNL     1      -5.584  12.197  16.787  0.00  0.00    +0.000 A 
ATOM     31  C   UNL     1      -6.340  12.880  17.734  0.00  0.00    +0.000 A 
ATOM     32  C   UNL     1      -5.904  12.929  19.051  0.00  0.00    +0.000 A 
ATOM     33  C   UNL     1      -4.676  12.360  19.404  0.00  0.00    +0.000 A 
ATOM     34  C   UNL     1      -3.841  11.729  18.445  0.00  0.00    +0.000 A 
ENDBRANCH  23  25
ENDBRANCH  20  21
ENDBRANCH  19  20
ENDBRANCH   1  19
TORSDOF 10
ENDMDL
MODEL 7
REMARK VINA RESULT:      -7.9      3.476      9.766
REMARK  Name = 
REMARK  12 active torsions:
REMARK  status: ('A' for Active; 'I' for Inactive)
REMARK    1  A    between atoms: C_1  and  C_2
REMARK    2  A    between atoms: C_2  and  N_3
REMARK    3  A    between atoms: N_3  and  C_4
REMARK    4  A    between atoms: N_3  and  S_6
REMARK    5  A    between atoms: C_4  and  C_5
REMARK    6  A    between atoms: S_6  and  C_9
REMARK    7  A    between atoms: C_12  and  C_13
REMARK    8  A    between atoms: C_14  and  C_15
REMARK    9  A    between atoms: C_15  and  O_17
REMARK   10  A    between atoms: O_17  and  C_18
REMARK   11  A    between atoms: C_18  and  C_19
REMARK   12  A    between atoms: N_21  and  C_22
REMARK                            x       y       z     vdW  Elec       q    Type
REMARK                         _______ _______ _______ _____ _____    ______ ____
ROOT
ATOM      1  C   UNL     1       0.370   9.862  22.254  0.00  0.00    +0.000 C 
ATOM      2  O   UNL     1       0.027  10.066  23.408  0.00  0.00    +0.000 OA
ENDROOT
BRANCH   1   4
ATOM      3  C   UNL     1       1.345   8.543  20.456  0.00  0.00    +0.000 C 
ATOM      4  C   UNL     1       1.013   8.635  21.753  0.00  0.00    +0.000 C 
BRANCH   3   8
ATOM      5  C   UNL     1       3.440   5.209  18.811  0.00  0.00    +0.000 A 
ATOM      6  C   UNL     1       2.875   5.127  20.086  0.00  0.00    +0.000 A 
ATOM      7  C   UNL     1       2.204   6.232  20.615  0.00  0.00    +0.000 A 
ATOM      8  C   UNL     1       2.110   7.427  19.887  0.00  0.00    +0.000 A 
ATOM      9  C   UNL     1       2.680   7.492  18.606  0.00  0.00    +0.000 A 
ATOM     10  C   UNL     1       3.351   6.391  18.069  0.00  0.00    +0.000 A 
BRANCH   5  11
ATOM     11  S   UNL     1       4.303   3.805  18.149  0.00  0.00    +0.000 S 
ATOM     12  O   UNL     1       3.396   3.154  17.228  0.00  0.00    +0.000 OA
ATOM     13  O   UNL     1       4.898   3.084  19.252  0.00  0.00    +0.000 OA
BRANCH  11  14
ATOM     14  N   UNL     1       5.582   4.512  17.242  0.00  0.00    +0.000 NA
BRANCH  14  16
ATOM     15  C   UNL     1       7.229   6.254  17.992  0.00  0.00    +0.000 C 
ATOM     16  C   UNL     1       6.819   4.790  18.030  0.00  0.00    +0.000 C 
ENDBRANCH  14  16
BRANCH  14  17
ATOM     17  C   UNL     1       5.800   3.870  15.910  0.00  0.00    +0.000 C 
ATOM     18  C   UNL     1       5.590   4.813  14.738  0.00  0.00    +0.000 C 
ENDBRANCH  14  17
ENDBRANCH  11  14
ENDBRANCH   5  11
ENDBRANCH   3   8
ENDBRANCH   1   4
BRANCH   1  19
ATOM     19  O   UNL     1       0.066  10.632  21.185  0.00  0.00    +0.000 OA
BRANCH  19  20
ATOM     20  C   UNL     1      -0.491  11.906  21.513  0.00  0.00    +0.000 C 
BRANCH  20  21
ATOM     21  C   UNL     1       0.458  13.021  21.072  0.00  0.00    +0.000 C 
ATOM     22  O   UNL     1       1.021  13.718  21.914  0.00  0.00    +0.000 OA
ATOM     23  N   UNL     1       0.575  13.149  19.691  0.00  0.00    +0.000 N 
ATOM     24  H   UNL     1      -0.148  12.704  19.141  0.00  0.00    +0.000 HD
BRANCH  23  25
ATOM     25  C   UNL     1       1.469  14.024  19.018  0.00  0.00    +0.000 A 
ATOM     26  C   UNL     1       2.796  13.634  18.789  0.00  0.00    +0.000 A 
ATOM     27  C   UNL     1       3.720  14.512  18.233  0.00  0.00    +0.000 A 
ATOM     28  C   UNL     1       3.335  15.810  17.928  0.00  0.00    +0.000 A 
ATOM     29  C   UNL     1       2.014  16.232  18.125  0.00  0.00    +0.000 A 
ATOM     30  C   UNL     1       1.680  17.570  17.868  0.00  0.00    +0.000 A 
ATOM     31  C   UNL     1       0.375  18.027  18.029  0.00  0.00    +0.000 A 
ATOM     32  C   UNL     1      -0.622  17.135  18.398  0.00  0.00    +0.000 A 
ATOM     33  C   UNL     1      -0.301  15.803  18.679  0.00  0.00    +0.000 A 
ATOM     34  C   UNL     1       1.033  15.323  18.605  0.00  0.00    +0.000 A 
ENDBRANCH  23  25
ENDBRANCH  20  21
ENDBRANCH  19  20
ENDBRANCH   1  19
TORSDOF 10
ENDMDL
MODEL 8
REMARK VINA RESULT:      -7.9      5.764      8.023
REMARK  Name = 
REMARK  12 active torsions:
REMARK  status: ('A' for Active; 'I' for Inactive)
REMARK    1  A    between atoms: C_1  and  C_2
REMARK    2  A    between atoms: C_2  and  N_3
REMARK    3  A    between atoms: N_3  and  C_4
REMARK    4  A    between atoms: N_3  and  S_6
REMARK    5  A    between atoms: C_4  and  C_5
REMARK    6  A    between atoms: S_6  and  C_9
REMARK    7  A    between atoms: C_12  and  C_13
REMARK    8  A    between atoms: C_14  and  C_15
REMARK    9  A    between atoms: C_15  and  O_17
REMARK   10  A    between atoms: O_17  and  C_18
REMARK   11  A    between atoms: C_18  and  C_19
REMARK   12  A    between atoms: N_21  and  C_22
REMARK                            x       y       z     vdW  Elec       q    Type
REMARK                         _______ _______ _______ _____ _____    ______ ____
ROOT
ATOM      1  C   UNL     1       6.877   7.137  17.120  0.00  0.00    +0.000 C 
ATOM      2  O   UNL     1       5.747   6.792  16.809  0.00  0.00    +0.000 OA
ENDROOT
BRANCH   1   4
ATOM      3  C   UNL     1       8.289   8.732  18.295  0.00  0.00    +0.000 C 
ATOM      4  C   UNL     1       7.307   8.515  17.407  0.00  0.00    +0.000 C 
BRANCH   3   8
ATOM      5  C   UNL     1       9.873  12.623  19.047  0.00  0.00    +0.000 A 
ATOM      6  C   UNL     1       9.033  12.404  17.951  0.00  0.00    +0.000 A 
ATOM      7  C   UNL     1       8.535  11.121  17.712  0.00  0.00    +0.000 A 
ATOM      8  C   UNL     1       8.883  10.050  18.548  0.00  0.00    +0.000 A 
ATOM      9  C   UNL     1       9.724  10.289  19.647  0.00  0.00    +0.000 A 
ATOM     10  C   UNL     1      10.226  11.569  19.894  0.00  0.00    +0.000 A 
BRANCH   5  11
ATOM     11  S   UNL     1      10.514  14.254  19.339  0.00  0.00    +0.000 S 
ATOM     12  O   UNL     1      10.208  15.040  18.163  0.00  0.00    +0.000 OA
ATOM     13  O   UNL     1      11.872  14.121  19.820  0.00  0.00    +0.000 OA
BRANCH  11  14
ATOM     14  N   UNL     1       9.556  14.833  20.644  0.00  0.00    +0.000 NA
BRANCH  14  16
ATOM     15  C   UNL     1       9.467  15.389  23.092  0.00  0.00    +0.000 C 
ATOM     16  C   UNL     1      10.335  15.235  21.852  0.00  0.00    +0.000 C 
ENDBRANCH  14  16
BRANCH  14  17
ATOM     17  C   UNL     1       8.484  15.786  20.225  0.00  0.00    +0.000 C 
ATOM     18  C   UNL     1       7.130  15.128  20.021  0.00  0.00    +0.000 C 
ENDBRANCH  14  17
ENDBRANCH  11  14
ENDBRANCH   5  11
ENDBRANCH   3   8
ENDBRANCH   1   4
BRANCH   1  19
ATOM     19  O   UNL     1       7.900   6.312  17.442  0.00  0.00    +0.000 OA
BRANCH  19  20
ATOM     20  C   UNL     1       7.540   4.933  17.541  0.00  0.00    +0.000 C 
BRANCH  20  21
ATOM     21  C   UNL     1       6.693   4.704  18.794  0.00  0.00    +0.000 C 
ATOM     22  O   UNL     1       7.076   5.127  19.882  0.00  0.00    +0.000 OA
ATOM     23  N   UNL     1       5.525   3.983  18.560  0.00  0.00    +0.000 N 
ATOM     24  H   UNL     1       5.487   3.469  17.690  0.00  0.00    +0.000 HD
BRANCH  23  25
ATOM     25  C   UNL     1       4.509   3.726  19.520  0.00  0.00    +0.000 A 
ATOM     26  C   UNL     1       4.439   2.475  20.150  0.00  0.00    +0.000 A 
ATOM     27  C   UNL     1       3.392   2.160  21.009  0.00  0.00    +0.000 A 
ATOM     28  C   UNL     1       2.378   3.082  21.223  0.00  0.00    +0.000 A 
ATOM     29  C   UNL     1       2.422   4.348  20.626  0.00  0.00    +0.000 A 
ATOM     30  C   UNL     1       1.346   5.229  20.813  0.00  0.00    +0.000 A 
ATOM     31  C   UNL     1       1.358   6.504  20.256  0.00  0.00    +0.000 A 
ATOM     32  C   UNL     1       2.473   6.933  19.551  0.00  0.00    +0.000 A 
ATOM     33  C   UNL     1       3.545   6.059  19.337  0.00  0.00    +0.000 A 
ATOM     34  C   UNL     1       3.530   4.724  19.819  0.00  0.00    +0.000 A 
ENDBRANCH  23  25
ENDBRANCH  20  21
ENDBRANCH  19  20
ENDBRANCH   1  19
TORSDOF 10
ENDMDL
MODEL 9
REMARK VINA RESULT:      -7.8      6.022      8.237
REMARK  Name = 
REMARK  12 active torsions:
REMARK  status: ('A' for Active; 'I' for Inactive)
REMARK    1  A    between atoms: C_1  and  C_2
REMARK    2  A    between atoms: C_2  and  N_3
REMARK    3  A    between atoms: N_3  and  C_4
REMARK    4  A    between atoms: N_3  and  S_6
REMARK    5  A    between atoms: C_4  and  C_5
REMARK    6  A    between atoms: S_6  and  C_9
REMARK    7  A    between atoms: C_12  and  C_13
REMARK    8  A    between atoms: C_14  and  C_15
REMARK    9  A    between atoms: C_15  and  O_17
REMARK   10  A    between atoms: O_17  and  C_18
REMARK   11  A    between atoms: C_18  and  C_19
REMARK   12  A    between atoms: N_21  and  C_22
REMARK                            x       y       z     vdW  Elec       q    Type
REMARK                         _______ _______ _______ _____ _____    ______ ____
ROOT
ATOM      1  C   UNL     1       7.539   7.303  17.773  0.00  0.00    +0.000 C 
ATOM      2  O   UNL     1       8.082   6.395  18.383  0.00  0.00    +0.000 OA
ENDROOT
BRANCH   1   4
ATOM      3  C   UNL     1       8.741   9.147  18.810  0.00  0.00    +0.000 C 
ATOM      4  C   UNL     1       7.900   8.728  17.852  0.00  0.00    +0.000 C 
BRANCH   3   8
ATOM      5  C   UNL     1      10.140  13.174  19.003  0.00  0.00    +0.000 A 
ATOM      6  C   UNL     1       9.644  12.657  17.803  0.00  0.00    +0.000 A 
ATOM      7  C   UNL     1       9.203  11.333  17.754  0.00  0.00    +0.000 A 
ATOM      8  C   UNL     1       9.271  10.513  18.891  0.00  0.00    +0.000 A 
ATOM      9  C   UNL     1       9.768  11.050  20.088  0.00  0.00    +0.000 A 
ATOM     10  C   UNL     1      10.210  12.374  20.147  0.00  0.00    +0.000 A 
BRANCH   5  11
ATOM     11  S   UNL     1      10.712  14.855  19.056  0.00  0.00    +0.000 S 
ATOM     12  O   UNL     1      11.064  15.220  17.701  0.00  0.00    +0.000 OA
ATOM     13  O   UNL     1      11.667  14.969  20.136  0.00  0.00    +0.000 OA
BRANCH  11  14
ATOM     14  N   UNL     1       9.309  15.741  19.509  0.00  0.00    +0.000 NA
BRANCH  14  16
ATOM     15  C   UNL     1       8.296  16.928  21.478  0.00  0.00    +0.000 C 
ATOM     16  C   UNL     1       9.528  16.726  20.609  0.00  0.00    +0.000 C 
ENDBRANCH  14  16
BRANCH  14  17
ATOM     17  C   UNL     1       8.513  16.241  18.347  0.00  0.00    +0.000 C 
ATOM     18  C   UNL     1       7.263  15.424  18.069  0.00  0.00    +0.000 C 
ENDBRANCH  14  17
ENDBRANCH  11  14
ENDBRANCH   5  11
ENDBRANCH   3   8
ENDBRANCH   1   4
BRANCH   1  19
ATOM     19  O   UNL     1       6.633   7.164  16.779  0.00  0.00    +0.000 OA
BRANCH  19  20
ATOM     20  C   UNL     1       6.661   5.894  16.126  0.00  0.00    +0.000 C 
BRANCH  20  21
ATOM     21  C   UNL     1       5.919   4.856  16.970  0.00  0.00    +0.000 C 
ATOM     22  O   UNL     1       6.550   4.052  17.652  0.00  0.00    +0.000 OA
ATOM     23  N   UNL     1       4.533   4.923  16.855  0.00  0.00    +0.000 N 
ATOM     24  H   UNL     1       4.178   5.435  16.058  0.00  0.00    +0.000 HD
BRANCH  23  25
ATOM     25  C   UNL     1       3.606   4.155  17.610  0.00  0.00    +0.000 A 
ATOM     26  C   UNL     1       3.333   2.828  17.247  0.00  0.00    +0.000 A 
ATOM     27  C   UNL     1       2.351   2.091  17.898  0.00  0.00    +0.000 A 
ATOM     28  C   UNL     1       1.600   2.684  18.902  0.00  0.00    +0.000 A 
ATOM     29  C   UNL     1       1.854   4.002  19.305  0.00  0.00    +0.000 A 
ATOM     30  C   UNL     1       1.030   4.589  20.276  0.00  0.00    +0.000 A 
ATOM     31  C   UNL     1       1.259   5.888  20.722  0.00  0.00    +0.000 A 
ATOM     32  C   UNL     1       2.351   6.594  20.238  0.00  0.00    +0.000 A 
ATOM     33  C   UNL     1       3.169   6.031  19.253  0.00  0.00    +0.000 A 
ATOM     34  C   UNL     1       2.914   4.741  18.716  0.00  0.00    +0.000 A 
ENDBRANCH  23  25
ENDBRANCH  20  21
ENDBRANCH  19  20
ENDBRANCH   1  19
TORSDOF 10
ENDMDL
