MODEL 1
REMARK VINA RESULT:      -7.1      0.000      0.000
REMARK  Name = 
REMARK  11 active torsions:
REMARK  status: ('A' for Active; 'I' for Inactive)
REMARK    1  A    between atoms: C_1  and  C_2
REMARK    2  A    between atoms: C_2  and  C_3
REMARK    3  A    between atoms: C_3  and  C_4
REMARK    4  A    between atoms: C_4  and  C_5
REMARK    5  A    between atoms: C_5  and  C_6
REMARK    6  A    between atoms: C_6  and  O_7
REMARK    7  A    between atoms: O_7  and  C_8
REMARK    8  A    between atoms: C_11  and  C_12
REMARK    9  A    between atoms: C_12  and  C_14
REMARK   10  A    between atoms: C_14  and  C_15
REMARK   11  A    between atoms: C_15  and  N_16
REMARK                            x       y       z     vdW  Elec       q    Type
REMARK                         _______ _______ _______ _____ _____    ______ ____
ROOT
ATOM      1  C   UNL     1       6.588   5.238  14.861  0.00  0.00    +0.000 A 
ATOM      2  C   UNL     1       5.456   5.932  15.298  0.00  0.00    +0.000 A 
ATOM      3  C   UNL     1       5.134   5.963  16.646  0.00  0.00    +0.000 A 
ATOM      4  C   UNL     1       5.938   5.307  17.579  0.00  0.00    +0.000 A 
ATOM      5  C   UNL     1       7.067   4.602  17.154  0.00  0.00    +0.000 A 
ATOM      6  C   UNL     1       7.387   4.571  15.791  0.00  0.00    +0.000 A 
ENDROOT
BRANCH   4   7
ATOM      7  C   UNL     1       5.487   5.387  18.984  0.00  0.00    +0.000 C 
ATOM      8  O   UNL     1       6.286   5.056  19.862  0.00  0.00    +0.000 OA
BRANCH   7   9
ATOM      9  C   UNL     1       4.065   5.773  19.316  0.00  0.00    +0.000 C 
BRANCH   9  10
ATOM     10  C   UNL     1       3.209   4.543  19.020  0.00  0.00    +0.000 C 
BRANCH  10  11
ATOM     11  N   UNL     1       1.799   4.601  19.443  0.00  0.00    +0.000 NA
ATOM     12  C   UNL     1       1.761   4.726  20.925  0.00  0.00    +0.000 C 
ATOM     13  C   UNL     1       2.227   3.455  21.665  0.00  0.00    +0.000 C 
ATOM     14  O   UNL     1       1.460   2.311  21.269  0.00  0.00    +0.000 OA
ATOM     15  C   UNL     1       1.498   2.119  19.847  0.00  0.00    +0.000 C 
ATOM     16  C   UNL     1       1.037   3.380  19.094  0.00  0.00    +0.000 C 
ENDBRANCH  10  11
ENDBRANCH   9  10
ENDBRANCH   7   9
ENDBRANCH   4   7
BRANCH   1  17
ATOM     17  O   UNL     1       6.985   5.151  13.552  0.00  0.00    +0.000 OA
BRANCH  17  18
ATOM     18  C   UNL     1       6.673   3.902  12.938  0.00  0.00    +0.000 C 
BRANCH  18  19
ATOM     19  C   UNL     1       5.172   3.719  12.837  0.00  0.00    +0.000 C 
BRANCH  19  20
ATOM     20  C   UNL     1       4.827   3.221  11.436  0.00  0.00    +0.000 C 
BRANCH  20  21
ATOM     21  C   UNL     1       3.322   3.178  11.221  0.00  0.00    +0.000 C 
BRANCH  21  23
ATOM     22  C   UNL     1       2.709   4.625   9.272  0.00  0.00    +0.000 C 
ATOM     23  C   UNL     1       2.978   3.204   9.736  0.00  0.00    +0.000 C 
ENDBRANCH  21  23
ENDBRANCH  20  21
ENDBRANCH  19  20
ENDBRANCH  18  19
ENDBRANCH  17  18
ENDBRANCH   1  17
TORSDOF 10
ENDMDL
MODEL 2
REMARK VINA RESULT:      -6.9      0.984      1.177
REMARK  Name = 
REMARK  11 active torsions:
REMARK  status: ('A' for Active; 'I' for Inactive)
REMARK    1  A    between atoms: C_1  and  C_2
REMARK    2  A    between atoms: C_2  and  C_3
REMARK    3  A    between atoms: C_3  and  C_4
REMARK    4  A    between atoms: C_4  and  C_5
REMARK    5  A    between atoms: C_5  and  C_6
REMARK    6  A    between atoms: C_6  and  O_7
REMARK    7  A    between atoms: O_7  and  C_8
REMARK    8  A    between atoms: C_11  and  C_12
REMARK    9  A    between atoms: C_12  and  C_14
REMARK   10  A    between atoms: C_14  and  C_15
REMARK   11  A    between atoms: C_15  and  N_16
REMARK                            x       y       z     vdW  Elec       q    Type
REMARK                         _______ _______ _______ _____ _____    ______ ____
ROOT
ATOM      1  C   UNL     1       6.737   5.304  15.404  0.00  0.00    +0.000 A 
ATOM      2  C   UNL     1       5.676   6.213  15.353  0.00  0.00    +0.000 A 
ATOM      3  C   UNL     1       4.797   6.320  16.419  0.00  0.00    +0.000 A 
ATOM      4  C   UNL     1       4.966   5.526  17.554  0.00  0.00    +0.000 A 
ATOM      5  C   UNL     1       6.016   4.606  17.613  0.00  0.00    +0.000 A 
ATOM      6  C   UNL     1       6.900   4.501  16.533  0.00  0.00    +0.000 A 
ENDROOT
BRANCH   4   7
ATOM      7  C   UNL     1       3.957   5.707  18.619  0.00  0.00    +0.000 C 
ATOM      8  O   UNL     1       4.359   5.788  19.781  0.00  0.00    +0.000 OA
BRANCH   7   9
ATOM      9  C   UNL     1       2.482   5.697  18.292  0.00  0.00    +0.000 C 
BRANCH   9  10
ATOM     10  C   UNL     1       2.108   4.236  18.054  0.00  0.00    +0.000 C 
BRANCH  10  11
ATOM     11  N   UNL     1       0.907   3.739  18.747  0.00  0.00    +0.000 NA
ATOM     12  C   UNL     1       0.912   4.277  20.134  0.00  0.00    +0.000 C 
ATOM     13  C   UNL     1       2.021   3.680  21.025  0.00  0.00    +0.000 C 
ATOM     14  O   UNL     1       1.936   2.250  21.075  0.00  0.00    +0.000 OA
ATOM     15  C   UNL     1       1.970   1.675  19.761  0.00  0.00    +0.000 C 
ATOM     16  C   UNL     1       0.869   2.262  18.859  0.00  0.00    +0.000 C 
ENDBRANCH  10  11
ENDBRANCH   9  10
ENDBRANCH   7   9
ENDBRANCH   4   7
BRANCH   1  17
ATOM     17  O   UNL     1       7.655   5.128  14.400  0.00  0.00    +0.000 OA
BRANCH  17  18
ATOM     18  C   UNL     1       7.069   4.918  13.116  0.00  0.00    +0.000 C 
BRANCH  18  19
ATOM     19  C   UNL     1       6.325   3.598  13.080  0.00  0.00    +0.000 C 
BRANCH  19  20
ATOM     20  C   UNL     1       4.965   3.815  12.421  0.00  0.00    +0.000 C 
BRANCH  20  21
ATOM     21  C   UNL     1       4.735   2.820  11.293  0.00  0.00    +0.000 C 
BRANCH  21  23
ATOM     22  C   UNL     1       3.153   4.180   9.909  0.00  0.00    +0.000 C 
ATOM     23  C   UNL     1       3.314   2.925  10.749  0.00  0.00    +0.000 C 
ENDBRANCH  21  23
ENDBRANCH  20  21
ENDBRANCH  19  20
ENDBRANCH  18  19
ENDBRANCH  17  18
ENDBRANCH   1  17
TORSDOF 10
ENDMDL
MODEL 3
REMARK VINA RESULT:      -6.8      1.706      2.047
REMARK  Name = 
REMARK  11 active torsions:
REMARK  status: ('A' for Active; 'I' for Inactive)
REMARK    1  A    between atoms: C_1  and  C_2
REMARK    2  A    between atoms: C_2  and  C_3
REMARK    3  A    between atoms: C_3  and  C_4
REMARK    4  A    between atoms: C_4  and  C_5
REMARK    5  A    between atoms: C_5  and  C_6
REMARK    6  A    between atoms: C_6  and  O_7
REMARK    7  A    between atoms: O_7  and  C_8
REMARK    8  A    between atoms: C_11  and  C_12
REMARK    9  A    between atoms: C_12  and  C_14
REMARK   10  A    between atoms: C_14  and  C_15
REMARK   11  A    between atoms: C_15  and  N_16
REMARK                            x       y       z     vdW  Elec       q    Type
REMARK                         _______ _______ _______ _____ _____    ______ ____
ROOT
ATOM      1  C   UNL     1       6.333   5.470  15.823  0.00  0.00    +0.000 A 
ATOM      2  C   UNL     1       5.531   6.612  15.740  0.00  0.00    +0.000 A 
ATOM      3  C   UNL     1       4.442   6.762  16.584  0.00  0.00    +0.000 A 
ATOM      4  C   UNL     1       4.139   5.778  17.527  0.00  0.00    +0.000 A 
ATOM      5  C   UNL     1       4.927   4.627  17.612  0.00  0.00    +0.000 A 
ATOM      6  C   UNL     1       6.024   4.479  16.756  0.00  0.00    +0.000 A 
ENDROOT
BRANCH   4   7
ATOM      7  C   UNL     1       2.943   6.031  18.357  0.00  0.00    +0.000 C 
ATOM      8  O   UNL     1       2.828   7.144  18.872  0.00  0.00    +0.000 OA
BRANCH   7   9
ATOM      9  C   UNL     1       1.949   4.926  18.633  0.00  0.00    +0.000 C 
BRANCH   9  10
ATOM     10  C   UNL     1       2.262   4.414  20.038  0.00  0.00    +0.000 C 
BRANCH  10  11
ATOM     11  N   UNL     1       1.848   3.034  20.346  0.00  0.00    +0.000 NA
ATOM     12  C   UNL     1       2.959   2.364  21.073  0.00  0.00    +0.000 C 
ATOM     13  C   UNL     1       4.200   2.097  20.196  0.00  0.00    +0.000 C 
ATOM     14  O   UNL     1       3.862   1.325  19.037  0.00  0.00    +0.000 OA
ATOM     15  C   UNL     1       2.820   1.951  18.274  0.00  0.00    +0.000 C 
ATOM     16  C   UNL     1       1.575   2.225  19.136  0.00  0.00    +0.000 C 
ENDBRANCH  10  11
ENDBRANCH   9  10
ENDBRANCH   7   9
ENDBRANCH   4   7
BRANCH   1  17
ATOM     17  O   UNL     1       7.428   5.234  15.032  0.00  0.00    +0.000 OA
BRANCH  17  18
ATOM     18  C   UNL     1       7.101   4.857  13.695  0.00  0.00    +0.000 C 
BRANCH  18  19
ATOM     19  C   UNL     1       6.363   3.532  13.681  0.00  0.00    +0.000 C 
BRANCH  19  20
ATOM     20  C   UNL     1       5.983   3.194  12.242  0.00  0.00    +0.000 C 
BRANCH  20  21
ATOM     21  C   UNL     1       4.745   3.962  11.804  0.00  0.00    +0.000 C 
BRANCH  21  23
ATOM     22  C   UNL     1       3.069   3.924   9.945  0.00  0.00    +0.000 C 
ATOM     23  C   UNL     1       3.824   3.086  10.961  0.00  0.00    +0.000 C 
ENDBRANCH  21  23
ENDBRANCH  20  21
ENDBRANCH  19  20
ENDBRANCH  18  19
ENDBRANCH  17  18
ENDBRANCH   1  17
TORSDOF 10
ENDMDL
MODEL 4
REMARK VINA RESULT:      -6.8      1.524      2.040
REMARK  Name = 
REMARK  11 active torsions:
REMARK  status: ('A' for Active; 'I' for Inactive)
REMARK    1  A    between atoms: C_1  and  C_2
REMARK    2  A    between atoms: C_2  and  C_3
REMARK    3  A    between atoms: C_3  and  C_4
REMARK    4  A    between atoms: C_4  and  C_5
REMARK    5  A    between atoms: C_5  and  C_6
REMARK    6  A    between atoms: C_6  and  O_7
REMARK    7  A    between atoms: O_7  and  C_8
REMARK    8  A    between atoms: C_11  and  C_12
REMARK    9  A    between atoms: C_12  and  C_14
REMARK   10  A    between atoms: C_14  and  C_15
REMARK   11  A    between atoms: C_15  and  N_16
REMARK                            x       y       z     vdW  Elec       q    Type
REMARK                         _______ _______ _______ _____ _____    ______ ____
ROOT
ATOM      1  C   UNL     1       6.419   4.977  15.622  0.00  0.00    +0.000 A 
ATOM      2  C   UNL     1       5.342   4.090  15.705  0.00  0.00    +0.000 A 
ATOM      3  C   UNL     1       4.277   4.363  16.549  0.00  0.00    +0.000 A 
ATOM      4  C   UNL     1       4.269   5.526  17.320  0.00  0.00    +0.000 A 
ATOM      5  C   UNL     1       5.345   6.415  17.254  0.00  0.00    +0.000 A 
ATOM      6  C   UNL     1       6.419   6.134  16.401  0.00  0.00    +0.000 A 
ENDROOT
BRANCH   4   7
ATOM      7  C   UNL     1       3.096   5.704  18.202  0.00  0.00    +0.000 C 
ATOM      8  O   UNL     1       3.202   6.490  19.145  0.00  0.00    +0.000 OA
BRANCH   7   9
ATOM      9  C   UNL     1       1.848   4.876  17.999  0.00  0.00    +0.000 C 
BRANCH   9  10
ATOM     10  C   UNL     1       1.431   4.389  19.385  0.00  0.00    +0.000 C 
BRANCH  10  11
ATOM     11  N   UNL     1       1.350   2.931  19.577  0.00  0.00    +0.000 NA
ATOM     12  C   UNL     1       1.117   2.661  21.021  0.00  0.00    +0.000 C 
ATOM     13  C   UNL     1       2.327   2.998  21.916  0.00  0.00    +0.000 C 
ATOM     14  O   UNL     1       3.502   2.296  21.490  0.00  0.00    +0.000 OA
ATOM     15  C   UNL     1       3.798   2.555  20.110  0.00  0.00    +0.000 C 
ATOM     16  C   UNL     1       2.598   2.225  19.204  0.00  0.00    +0.000 C 
ENDBRANCH  10  11
ENDBRANCH   9  10
ENDBRANCH   7   9
ENDBRANCH   4   7
BRANCH   1  17
ATOM     17  O   UNL     1       7.514   4.792  14.817  0.00  0.00    +0.000 OA
BRANCH  17  18
ATOM     18  C   UNL     1       7.335   5.267  13.484  0.00  0.00    +0.000 C 
BRANCH  18  19
ATOM     19  C   UNL     1       7.369   4.115  12.499  0.00  0.00    +0.000 C 
BRANCH  19  20
ATOM     20  C   UNL     1       6.142   3.236  12.724  0.00  0.00    +0.000 C 
BRANCH  20  21
ATOM     21  C   UNL     1       5.381   3.010  11.426  0.00  0.00    +0.000 C 
BRANCH  21  23
ATOM     22  C   UNL     1       3.227   3.369  10.202  0.00  0.00    +0.000 C 
ATOM     23  C   UNL     1       3.963   3.564  11.516  0.00  0.00    +0.000 C 
ENDBRANCH  21  23
ENDBRANCH  20  21
ENDBRANCH  19  20
ENDBRANCH  18  19
ENDBRANCH  17  18
ENDBRANCH   1  17
TORSDOF 10
ENDMDL
MODEL 5
REMARK VINA RESULT:      -6.8      1.248      1.395
REMARK  Name = 
REMARK  11 active torsions:
REMARK  status: ('A' for Active; 'I' for Inactive)
REMARK    1  A    between atoms: C_1  and  C_2
REMARK    2  A    between atoms: C_2  and  C_3
REMARK    3  A    between atoms: C_3  and  C_4
REMARK    4  A    between atoms: C_4  and  C_5
REMARK    5  A    between atoms: C_5  and  C_6
REMARK    6  A    between atoms: C_6  and  O_7
REMARK    7  A    between atoms: O_7  and  C_8
REMARK    8  A    between atoms: C_11  and  C_12
REMARK    9  A    between atoms: C_12  and  C_14
REMARK   10  A    between atoms: C_14  and  C_15
REMARK   11  A    between atoms: C_15  and  N_16
REMARK                            x       y       z     vdW  Elec       q    Type
REMARK                         _______ _______ _______ _____ _____    ______ ____
ROOT
ATOM      1  C   UNL     1       6.367   4.325  14.244  0.00  0.00    +0.000 A 
ATOM      2  C   UNL     1       5.348   3.596  14.865  0.00  0.00    +0.000 A 
ATOM      3  C   UNL     1       5.064   3.797  16.206  0.00  0.00    +0.000 A 
ATOM      4  C   UNL     1       5.790   4.730  16.949  0.00  0.00    +0.000 A 
ATOM      5  C   UNL     1       6.818   5.457  16.342  0.00  0.00    +0.000 A 
ATOM      6  C   UNL     1       7.102   5.249  14.987  0.00  0.00    +0.000 A 
ENDROOT
BRANCH   4   7
ATOM      7  C   UNL     1       5.420   4.845  18.375  0.00  0.00    +0.000 C 
ATOM      8  O   UNL     1       5.978   4.091  19.174  0.00  0.00    +0.000 OA
BRANCH   7   9
ATOM      9  C   UNL     1       4.327   5.792  18.813  0.00  0.00    +0.000 C 
BRANCH   9  10
ATOM     10  C   UNL     1       3.372   4.971  19.677  0.00  0.00    +0.000 C 
BRANCH  10  11
ATOM     11  N   UNL     1       1.952   4.980  19.284  0.00  0.00    +0.000 NA
ATOM     12  C   UNL     1       1.182   4.215  20.302  0.00  0.00    +0.000 C 
ATOM     13  C   UNL     1       1.472   2.699  20.285  0.00  0.00    +0.000 C 
ATOM     14  O   UNL     1       1.229   2.137  18.990  0.00  0.00    +0.000 OA
ATOM     15  C   UNL     1       1.983   2.813  17.973  0.00  0.00    +0.000 C 
ATOM     16  C   UNL     1       1.706   4.327  17.978  0.00  0.00    +0.000 C 
ENDBRANCH  10  11
ENDBRANCH   9  10
ENDBRANCH   7   9
ENDBRANCH   4   7
BRANCH   1  17
ATOM     17  O   UNL     1       6.718   4.195  12.925  0.00  0.00    +0.000 OA
BRANCH  17  18
ATOM     18  C   UNL     1       6.073   3.108  12.262  0.00  0.00    +0.000 C 
BRANCH  18  19
ATOM     19  C   UNL     1       4.570   3.304  12.259  0.00  0.00    +0.000 C 
BRANCH  19  20
ATOM     20  C   UNL     1       4.050   3.120  10.836  0.00  0.00    +0.000 C 
BRANCH  20  21
ATOM     21  C   UNL     1       3.181   4.295  10.411  0.00  0.00    +0.000 C 
BRANCH  21  23
ATOM     22  C   UNL     1       1.914   5.344   8.524  0.00  0.00    +0.000 C 
ATOM     23  C   UNL     1       2.901   4.257   8.913  0.00  0.00    +0.000 C 
ENDBRANCH  21  23
ENDBRANCH  20  21
ENDBRANCH  19  20
ENDBRANCH  18  19
ENDBRANCH  17  18
ENDBRANCH   1  17
TORSDOF 10
ENDMDL
MODEL 6
REMARK VINA RESULT:      -6.7      1.775      2.563
REMARK  Name = 
REMARK  11 active torsions:
REMARK  status: ('A' for Active; 'I' for Inactive)
REMARK    1  A    between atoms: C_1  and  C_2
REMARK    2  A    between atoms: C_2  and  C_3
REMARK    3  A    between atoms: C_3  and  C_4
REMARK    4  A    between atoms: C_4  and  C_5
REMARK    5  A    between atoms: C_5  and  C_6
REMARK    6  A    between atoms: C_6  and  O_7
REMARK    7  A    between atoms: O_7  and  C_8
REMARK    8  A    between atoms: C_11  and  C_12
REMARK    9  A    between atoms: C_12  and  C_14
REMARK   10  A    between atoms: C_14  and  C_15
REMARK   11  A    between atoms: C_15  and  N_16
REMARK                            x       y       z     vdW  Elec       q    Type
REMARK                         _______ _______ _______ _____ _____    ______ ____
ROOT
ATOM      1  C   UNL     1       6.184   4.811  14.901  0.00  0.00    +0.000 A 
ATOM      2  C   UNL     1       5.210   5.627  15.484  0.00  0.00    +0.000 A 
ATOM      3  C   UNL     1       5.157   5.777  16.860  0.00  0.00    +0.000 A 
ATOM      4  C   UNL     1       6.077   5.118  17.677  0.00  0.00    +0.000 A 
ATOM      5  C   UNL     1       7.050   4.291  17.108  0.00  0.00    +0.000 A 
ATOM      6  C   UNL     1       7.098   4.142  15.717  0.00  0.00    +0.000 A 
ENDROOT
BRANCH   4   7
ATOM      7  C   UNL     1       5.913   5.331  19.131  0.00  0.00    +0.000 C 
ATOM      8  O   UNL     1       6.932   5.491  19.805  0.00  0.00    +0.000 OA
BRANCH   7   9
ATOM      9  C   UNL     1       4.545   5.259  19.769  0.00  0.00    +0.000 C 
BRANCH   9  10
ATOM     10  C   UNL     1       4.123   3.793  19.707  0.00  0.00    +0.000 C 
BRANCH  10  11
ATOM     11  N   UNL     1       2.695   3.506  19.932  0.00  0.00    +0.000 NA
ATOM     12  C   UNL     1       2.367   2.218  19.265  0.00  0.00    +0.000 C 
ATOM     13  C   UNL     1       2.402   2.292  17.724  0.00  0.00    +0.000 C 
ATOM     14  O   UNL     1       1.526   3.313  17.232  0.00  0.00    +0.000 OA
ATOM     15  C   UNL     1       1.827   4.590  17.813  0.00  0.00    +0.000 C 
ATOM     16  C   UNL     1       1.797   4.532  19.351  0.00  0.00    +0.000 C 
ENDBRANCH  10  11
ENDBRANCH   9  10
ENDBRANCH   7   9
ENDBRANCH   4   7
BRANCH   1  17
ATOM     17  O   UNL     1       6.314   4.602  13.552  0.00  0.00    +0.000 OA
BRANCH  17  18
ATOM     18  C   UNL     1       5.114   4.158  12.921  0.00  0.00    +0.000 C 
BRANCH  18  19
ATOM     19  C   UNL     1       5.425   3.136  11.845  0.00  0.00    +0.000 C 
BRANCH  19  20
ATOM     20  C   UNL     1       6.935   2.919  11.791  0.00  0.00    +0.000 C 
BRANCH  20  21
ATOM     21  C   UNL     1       7.278   1.593  11.129  0.00  0.00    +0.000 C 
BRANCH  21  23
ATOM     22  C   UNL     1       6.184  -0.639  11.426  0.00  0.00    +0.000 C 
ATOM     23  C   UNL     1       6.023   0.766  10.873  0.00  0.00    +0.000 C 
ENDBRANCH  21  23
ENDBRANCH  20  21
ENDBRANCH  19  20
ENDBRANCH  18  19
ENDBRANCH  17  18
ENDBRANCH   1  17
TORSDOF 10
ENDMDL
MODEL 7
REMARK VINA RESULT:      -6.7      4.322      6.880
REMARK  Name = 
REMARK  11 active torsions:
REMARK  status: ('A' for Active; 'I' for Inactive)
REMARK    1  A    between atoms: C_1  and  C_2
REMARK    2  A    between atoms: C_2  and  C_3
REMARK    3  A    between atoms: C_3  and  C_4
REMARK    4  A    between atoms: C_4  and  C_5
REMARK    5  A    between atoms: C_5  and  C_6
REMARK    6  A    between atoms: C_6  and  O_7
REMARK    7  A    between atoms: O_7  and  C_8
REMARK    8  A    between atoms: C_11  and  C_12
REMARK    9  A    between atoms: C_12  and  C_14
REMARK   10  A    between atoms: C_14  and  C_15
REMARK   11  A    between atoms: C_15  and  N_16
REMARK                            x       y       z     vdW  Elec       q    Type
REMARK                         _______ _______ _______ _____ _____    ______ ____
ROOT
ATOM      1  C   UNL     1       7.779   7.020  18.252  0.00  0.00    +0.000 A 
ATOM      2  C   UNL     1       7.853   5.669  18.603  0.00  0.00    +0.000 A 
ATOM      3  C   UNL     1       7.009   4.746  18.007  0.00  0.00    +0.000 A 
ATOM      4  C   UNL     1       6.081   5.156  17.048  0.00  0.00    +0.000 A 
ATOM      5  C   UNL     1       5.990   6.505  16.696  0.00  0.00    +0.000 A 
ATOM      6  C   UNL     1       6.844   7.434  17.303  0.00  0.00    +0.000 A 
ENDROOT
BRANCH   4   7
ATOM      7  C   UNL     1       5.216   4.092  16.496  0.00  0.00    +0.000 C 
ATOM      8  O   UNL     1       5.731   3.272  15.734  0.00  0.00    +0.000 OA
BRANCH   7   9
ATOM      9  C   UNL     1       3.734   4.074  16.790  0.00  0.00    +0.000 C 
BRANCH   9  10
ATOM     10  C   UNL     1       3.570   3.312  18.104  0.00  0.00    +0.000 C 
BRANCH  10  11
ATOM     11  N   UNL     1       2.195   3.147  18.605  0.00  0.00    +0.000 NA
ATOM     12  C   UNL     1       1.691   4.479  19.035  0.00  0.00    +0.000 C 
ATOM     13  C   UNL     1       2.389   5.026  20.297  0.00  0.00    +0.000 C 
ATOM     14  O   UNL     1       2.282   4.106  21.391  0.00  0.00    +0.000 OA
ATOM     15  C   UNL     1       2.795   2.812  21.043  0.00  0.00    +0.000 C 
ATOM     16  C   UNL     1       2.108   2.253  19.783  0.00  0.00    +0.000 C 
ENDBRANCH  10  11
ENDBRANCH   9  10
ENDBRANCH   7   9
ENDBRANCH   4   7
BRANCH   1  17
ATOM     17  O   UNL     1       8.571   8.004  18.787  0.00  0.00    +0.000 OA
BRANCH  17  18
ATOM     18  C   UNL     1       8.437   9.267  18.137  0.00  0.00    +0.000 C 
BRANCH  18  19
ATOM     19  C   UNL     1       9.143  10.350  18.928  0.00  0.00    +0.000 C 
BRANCH  19  20
ATOM     20  C   UNL     1       9.966  11.206  17.968  0.00  0.00    +0.000 C 
BRANCH  20  21
ATOM     21  C   UNL     1       9.360  12.591  17.807  0.00  0.00    +0.000 C 
BRANCH  21  23
ATOM     22  C   UNL     1      11.286  13.796  18.859  0.00  0.00    +0.000 C 
ATOM     23  C   UNL     1      10.443  13.646  17.604  0.00  0.00    +0.000 C 
ENDBRANCH  21  23
ENDBRANCH  20  21
ENDBRANCH  19  20
ENDBRANCH  18  19
ENDBRANCH  17  18
ENDBRANCH   1  17
TORSDOF 10
ENDMDL
MODEL 8
REMARK VINA RESULT:      -6.6      5.106      8.049
REMARK  Name = 
REMARK  11 active torsions:
REMARK  status: ('A' for Active; 'I' for Inactive)
REMARK    1  A    between atoms: C_1  and  C_2
REMARK    2  A    between atoms: C_2  and  C_3
REMARK    3  A    between atoms: C_3  and  C_4
REMARK    4  A    between atoms: C_4  and  C_5
REMARK    5  A    between atoms: C_5  and  C_6
REMARK    6  A    between atoms: C_6  and  O_7
REMARK    7  A    between atoms: O_7  and  C_8
REMARK    8  A    between atoms: C_11  and  C_12
REMARK    9  A    between atoms: C_12  and  C_14
REMARK   10  A    between atoms: C_14  and  C_15
REMARK   11  A    between atoms: C_15  and  N_16
REMARK                            x       y       z     vdW  Elec       q    Type
REMARK                         _______ _______ _______ _____ _____    ______ ____
ROOT
ATOM      1  C   UNL     1       1.075   9.677  19.519  0.00  0.00    +0.000 A 
ATOM      2  C   UNL     1       1.056   8.820  20.622  0.00  0.00    +0.000 A 
ATOM      3  C   UNL     1       1.626   7.559  20.537  0.00  0.00    +0.000 A 
ATOM      4  C   UNL     1       2.227   7.136  19.350  0.00  0.00    +0.000 A 
ATOM      5  C   UNL     1       2.244   7.980  18.237  0.00  0.00    +0.000 A 
ATOM      6  C   UNL     1       1.666   9.252  18.328  0.00  0.00    +0.000 A 
ENDROOT
BRANCH   4   7
ATOM      7  C   UNL     1       2.781   5.766  19.364  0.00  0.00    +0.000 C 
ATOM      8  O   UNL     1       1.987   4.828  19.453  0.00  0.00    +0.000 OA
BRANCH   7   9
ATOM      9  C   UNL     1       4.275   5.539  19.362  0.00  0.00    +0.000 C 
BRANCH   9  10
ATOM     10  C   UNL     1       4.659   5.251  17.912  0.00  0.00    +0.000 C 
BRANCH  10  11
ATOM     11  N   UNL     1       5.661   6.143  17.303  0.00  0.00    +0.000 NA
ATOM     12  C   UNL     1       5.898   5.695  15.905  0.00  0.00    +0.000 C 
ATOM     13  C   UNL     1       6.629   4.340  15.806  0.00  0.00    +0.000 C 
ATOM     14  O   UNL     1       7.877   4.368  16.509  0.00  0.00    +0.000 OA
ATOM     15  C   UNL     1       7.700   4.756  17.880  0.00  0.00    +0.000 C 
ATOM     16  C   UNL     1       6.970   6.106  17.995  0.00  0.00    +0.000 C 
ENDBRANCH  10  11
ENDBRANCH   9  10
ENDBRANCH   7   9
ENDBRANCH   4   7
BRANCH   1  17
ATOM     17  O   UNL     1       0.538  10.939  19.509  0.00  0.00    +0.000 OA
BRANCH  17  18
ATOM     18  C   UNL     1      -0.318  11.190  18.396  0.00  0.00    +0.000 C 
BRANCH  18  19
ATOM     19  C   UNL     1      -1.619  10.426  18.541  0.00  0.00    +0.000 C 
BRANCH  19  20
ATOM     20  C   UNL     1      -2.785  11.395  18.366  0.00  0.00    +0.000 C 
BRANCH  20  21
ATOM     21  C   UNL     1      -3.661  10.995  17.189  0.00  0.00    +0.000 C 
BRANCH  21  23
ATOM     22  C   UNL     1      -2.958  10.215  14.917  0.00  0.00    +0.000 C 
ATOM     23  C   UNL     1      -3.028   9.860  16.392  0.00  0.00    +0.000 C 
ENDBRANCH  21  23
ENDBRANCH  20  21
ENDBRANCH  19  20
ENDBRANCH  18  19
ENDBRANCH  17  18
ENDBRANCH   1  17
TORSDOF 10
ENDMDL
MODEL 9
REMARK VINA RESULT:      -6.6      2.065      2.935
REMARK  Name = 
REMARK  11 active torsions:
REMARK  status: ('A' for Active; 'I' for Inactive)
REMARK    1  A    between atoms: C_1  and  C_2
REMARK    2  A    between atoms: C_2  and  C_3
REMARK    3  A    between atoms: C_3  and  C_4
REMARK    4  A    between atoms: C_4  and  C_5
REMARK    5  A    between atoms: C_5  and  C_6
REMARK    6  A    between atoms: C_6  and  O_7
REMARK    7  A    between atoms: O_7  and  C_8
REMARK    8  A    between atoms: C_11  and  C_12
REMARK    9  A    between atoms: C_12  and  C_14
REMARK   10  A    between atoms: C_14  and  C_15
REMARK   11  A    between atoms: C_15  and  N_16
REMARK                            x       y       z     vdW  Elec       q    Type
REMARK                         _______ _______ _______ _____ _____    ______ ____
ROOT
ATOM      1  C   UNL     1       5.711   6.060  16.857  0.00  0.00    +0.000 A 
ATOM      2  C   UNL     1       4.624   6.894  16.580  0.00  0.00    +0.000 A 
ATOM      3  C   UNL     1       3.584   7.009  17.488  0.00  0.00    +0.000 A 
ATOM      4  C   UNL     1       3.614   6.298  18.689  0.00  0.00    +0.000 A 
ATOM      5  C   UNL     1       4.689   5.452  18.973  0.00  0.00    +0.000 A 
ATOM      6  C   UNL     1       5.737   5.338  18.051  0.00  0.00    +0.000 A 
ENDROOT
BRANCH   4   7
ATOM      7  C   UNL     1       2.441   6.477  19.571  0.00  0.00    +0.000 C 
ATOM      8  O   UNL     1       2.294   7.574  20.112  0.00  0.00    +0.000 OA
BRANCH   7   9
ATOM      9  C   UNL     1       1.513   5.321  19.864  0.00  0.00    +0.000 C 
BRANCH   9  10
ATOM     10  C   UNL     1       2.206   4.480  20.934  0.00  0.00    +0.000 C 
BRANCH  10  11
ATOM     11  N   UNL     1       1.845   3.053  20.990  0.00  0.00    +0.000 NA
ATOM     12  C   UNL     1       3.053   2.280  21.385  0.00  0.00    +0.000 C 
ATOM     13  C   UNL     1       4.150   2.252  20.300  0.00  0.00    +0.000 C 
ATOM     14  O   UNL     1       3.645   1.737  19.062  0.00  0.00    +0.000 OA
ATOM     15  C   UNL     1       2.500   2.476  18.613  0.00  0.00    +0.000 C 
ATOM     16  C   UNL     1       1.396   2.514  19.685  0.00  0.00    +0.000 C 
ENDBRANCH  10  11
ENDBRANCH   9  10
ENDBRANCH   7   9
ENDBRANCH   4   7
BRANCH   1  17
ATOM     17  O   UNL     1       6.784   5.882  16.021  0.00  0.00    +0.000 OA
BRANCH  17  18
ATOM     18  C   UNL     1       7.006   4.521  15.653  0.00  0.00    +0.000 C 
BRANCH  18  19
ATOM     19  C   UNL     1       5.982   4.073  14.629  0.00  0.00    +0.000 C 
BRANCH  19  20
ATOM     20  C   UNL     1       6.606   4.155  13.238  0.00  0.00    +0.000 C 
BRANCH  20  21
ATOM     21  C   UNL     1       5.889   3.237  12.258  0.00  0.00    +0.000 C 
BRANCH  21  23
ATOM     22  C   UNL     1       6.305   1.061  11.092  0.00  0.00    +0.000 C 
ATOM     23  C   UNL     1       6.885   2.421  11.441  0.00  0.00    +0.000 C 
ENDBRANCH  21  23
ENDBRANCH  20  21
ENDBRANCH  19  20
ENDBRANCH  18  19
ENDBRANCH  17  18
ENDBRANCH   1  17
TORSDOF 10
ENDMDL
