MODEL 1
REMARK VINA RESULT:      -7.1      0.000      0.000
REMARK  Name = 
REMARK  9 active torsions:
REMARK  status: ('A' for Active; 'I' for Inactive)
REMARK    1  A    between atoms: C_1  and  O_2
REMARK    2  A    between atoms: O_2  and  C_3
REMARK    3  A    between atoms: C_5  and  C_6
REMARK    4  A    between atoms: C_14  and  N_15
REMARK    5  A    between atoms: N_15  and  C_16
REMARK    6  A    between atoms: C_22  and  C_23
REMARK    7  A    between atoms: C_28  and  O_29
REMARK    8  A    between atoms: O_29  and  C_30
REMARK    9  A    between atoms: C_31  and  O_32
REMARK                            x       y       z     vdW  Elec       q    Type
REMARK                         _______ _______ _______ _____ _____    ______ ____
ROOT
ATOM      1  C   UNL     1      -1.117  12.449  19.818  0.00  0.00    +0.000 C 
ATOM      2  C   UNL     1      -0.175  13.646  19.826  0.00  0.00    +0.000 A 
ATOM      3  C   UNL     1      -0.182  14.798  19.027  0.00  0.00    +0.000 A 
ATOM      4  C   UNL     1       0.969  15.592  19.066  0.00  0.00    +0.000 A 
ATOM      5  C   UNL     1       2.008  15.339  19.949  0.00  0.00    +0.000 A 
ATOM      6  C   UNL     1       2.068  14.199  20.683  0.00  0.00    +0.000 A 
ATOM      7  C   UNL     1       1.057  13.293  20.418  0.00  0.00    +0.000 A 
ATOM      8  O   UNL     1       1.379  11.959  20.515  0.00  0.00    +0.000 OA
ATOM      9  C   UNL     1       0.935  11.124  19.383  0.00  0.00    +0.000 C 
ATOM     10  C   UNL     1      -0.441  11.575  18.747  0.00  0.00    +0.000 C 
ATOM     11  C   UNL     1      -1.328  10.596  17.974  0.00  0.00    +0.000 C 
ATOM     12  O   UNL     1       3.044  16.213  19.814  0.00  0.00    +0.000 OA
ATOM     13  C   UNL     1       2.725  16.741  18.518  0.00  0.00    +0.000 C 
ATOM     14  O   UNL     1       1.318  16.581  18.189  0.00  0.00    +0.000 OA
ENDROOT
BRANCH   1  17
ATOM     15  C   UNL     1      -5.000  12.327  19.568  0.00  0.00    +0.000 A 
ATOM     16  C   UNL     1      -3.640  12.197  19.171  0.00  0.00    +0.000 A 
ATOM     17  C   UNL     1      -2.607  12.375  20.096  0.00  0.00    +0.000 A 
ATOM     18  C   UNL     1      -2.979  12.712  21.424  0.00  0.00    +0.000 A 
ATOM     19  C   UNL     1      -4.302  12.775  21.838  0.00  0.00    +0.000 A 
ATOM     20  C   UNL     1      -5.319  12.595  20.909  0.00  0.00    +0.000 A 
BRANCH  15  22
ATOM     21  C   UNL     1      -5.353  11.940  17.243  0.00  0.00    +0.000 C 
ATOM     22  O   UNL     1      -5.898  12.196  18.535  0.00  0.00    +0.000 OA
ENDBRANCH  15  22
BRANCH  19  23
ATOM     23  O   UNL     1      -4.546  13.136  23.137  0.00  0.00    +0.000 OA
ATOM     24  C   UNL     1      -3.685  12.461  24.059  0.00  0.00    +0.000 C 
ENDBRANCH  19  23
BRANCH  20  25
ATOM     25  O   UNL     1      -6.612  12.731  21.340  0.00  0.00    +0.000 OA
ATOM     26  H   UNL     1      -6.639  13.556  21.856  0.00  0.00    +0.000 HD
ENDBRANCH  20  25
ENDBRANCH   1  17
BRANCH   9  27
ATOM     27  N   UNL     1       0.901   9.798  19.967  0.00  0.00    +0.000 N 
ATOM     28  H   UNL     1       1.158   9.914  20.950  0.00  0.00    +0.000 HD
BRANCH  27  29
ATOM     29  C   UNL     1       1.576   8.692  19.471  0.00  0.00    +0.000 A 
ATOM     30  C   UNL     1       1.880   7.531  20.190  0.00  0.00    +0.000 A 
ATOM     31  C   UNL     1       2.619   6.493  19.610  0.00  0.00    +0.000 A 
ATOM     32  C   UNL     1       3.119   6.618  18.315  0.00  0.00    +0.000 A 
ATOM     33  C   UNL     1       2.840   7.765  17.586  0.00  0.00    +0.000 A 
ATOM     34  C   UNL     1       2.084   8.786  18.161  0.00  0.00    +0.000 A 
ENDBRANCH  27  29
ENDBRANCH   9  27
TORSDOF 6
ENDMDL
MODEL 2
REMARK VINA RESULT:      -7.0      1.903      6.138
REMARK  Name = 
REMARK  9 active torsions:
REMARK  status: ('A' for Active; 'I' for Inactive)
REMARK    1  A    between atoms: C_1  and  O_2
REMARK    2  A    between atoms: O_2  and  C_3
REMARK    3  A    between atoms: C_5  and  C_6
REMARK    4  A    between atoms: C_14  and  N_15
REMARK    5  A    between atoms: N_15  and  C_16
REMARK    6  A    between atoms: C_22  and  C_23
REMARK    7  A    between atoms: C_28  and  O_29
REMARK    8  A    between atoms: O_29  and  C_30
REMARK    9  A    between atoms: C_31  and  O_32
REMARK                            x       y       z     vdW  Elec       q    Type
REMARK                         _______ _______ _______ _____ _____    ______ ____
ROOT
ATOM      1  C   UNL     1      -0.275  12.594  18.900  0.00  0.00    +0.000 C 
ATOM      2  C   UNL     1      -1.716  12.234  18.567  0.00  0.00    +0.000 A 
ATOM      3  C   UNL     1      -2.907  12.617  19.201  0.00  0.00    +0.000 A 
ATOM      4  C   UNL     1      -4.059  11.906  18.849  0.00  0.00    +0.000 A 
ATOM      5  C   UNL     1      -4.061  10.969  17.827  0.00  0.00    +0.000 A 
ATOM      6  C   UNL     1      -2.915  10.535  17.244  0.00  0.00    +0.000 A 
ATOM      7  C   UNL     1      -1.758  11.046  17.805  0.00  0.00    +0.000 A 
ATOM      8  O   UNL     1      -0.658  10.220  17.819  0.00  0.00    +0.000 OA
ATOM      9  C   UNL     1       0.051  10.144  19.110  0.00  0.00    +0.000 C 
ATOM     10  C   UNL     1       0.051  11.497  19.928  0.00  0.00    +0.000 C 
ATOM     11  C   UNL     1       1.130  11.806  20.970  0.00  0.00    +0.000 C 
ATOM     12  O   UNL     1      -5.274  10.374  17.655  0.00  0.00    +0.000 OA
ATOM     13  C   UNL     1      -5.875  10.724  18.911  0.00  0.00    +0.000 C 
ATOM     14  O   UNL     1      -5.253  11.891  19.513  0.00  0.00    +0.000 OA
ENDROOT
BRANCH   1  17
ATOM     15  C   UNL     1       0.596  16.386  19.031  0.00  0.00    +0.000 A 
ATOM     16  C   UNL     1      -0.139  15.186  19.235  0.00  0.00    +0.000 A 
ATOM     17  C   UNL     1       0.418  13.945  18.916  0.00  0.00    +0.000 A 
ATOM     18  C   UNL     1       1.726  13.945  18.362  0.00  0.00    +0.000 A 
ATOM     19  C   UNL     1       2.478  15.103  18.222  0.00  0.00    +0.000 A 
ATOM     20  C   UNL     1       1.913  16.331  18.544  0.00  0.00    +0.000 A 
BRANCH  15  22
ATOM     21  C   UNL     1      -1.389  17.665  18.710  0.00  0.00    +0.000 C 
ATOM     22  O   UNL     1      -0.108  17.530  19.323  0.00  0.00    +0.000 OA
ENDBRANCH  15  22
BRANCH  19  23
ATOM     23  O   UNL     1       3.718  14.991  17.651  0.00  0.00    +0.000 OA
ATOM     24  C   UNL     1       4.750  14.804  18.625  0.00  0.00    +0.000 C 
ENDBRANCH  19  23
BRANCH  20  25
ATOM     25  O   UNL     1       2.661  17.457  18.330  0.00  0.00    +0.000 OA
ATOM     26  H   UNL     1       3.492  17.327  18.821  0.00  0.00    +0.000 HD
ENDBRANCH  20  25
ENDBRANCH   1  17
BRANCH   9  27
ATOM     27  N   UNL     1       1.373   9.702  18.714  0.00  0.00    +0.000 N 
ATOM     28  H   UNL     1       1.466   9.933  17.723  0.00  0.00    +0.000 HD
BRANCH  27  29
ATOM     29  C   UNL     1       1.875   8.422  18.908  0.00  0.00    +0.000 A 
ATOM     30  C   UNL     1       1.734   7.657  20.071  0.00  0.00    +0.000 A 
ATOM     31  C   UNL     1       2.331   6.396  20.185  0.00  0.00    +0.000 A 
ATOM     32  C   UNL     1       3.128   5.895  19.157  0.00  0.00    +0.000 A 
ATOM     33  C   UNL     1       3.291   6.640  17.998  0.00  0.00    +0.000 A 
ATOM     34  C   UNL     1       2.676   7.886  17.881  0.00  0.00    +0.000 A 
ENDBRANCH  27  29
ENDBRANCH   9  27
TORSDOF 6
ENDMDL
MODEL 3
REMARK VINA RESULT:      -7.0      2.018      5.940
REMARK  Name = 
REMARK  9 active torsions:
REMARK  status: ('A' for Active; 'I' for Inactive)
REMARK    1  A    between atoms: C_1  and  O_2
REMARK    2  A    between atoms: O_2  and  C_3
REMARK    3  A    between atoms: C_5  and  C_6
REMARK    4  A    between atoms: C_14  and  N_15
REMARK    5  A    between atoms: N_15  and  C_16
REMARK    6  A    between atoms: C_22  and  C_23
REMARK    7  A    between atoms: C_28  and  O_29
REMARK    8  A    between atoms: O_29  and  C_30
REMARK    9  A    between atoms: C_31  and  O_32
REMARK                            x       y       z     vdW  Elec       q    Type
REMARK                         _______ _______ _______ _____ _____    ______ ____
ROOT
ATOM      1  C   UNL     1      -0.057  11.927  20.208  0.00  0.00    +0.000 C 
ATOM      2  C   UNL     1      -1.332  11.939  19.373  0.00  0.00    +0.000 A 
ATOM      3  C   UNL     1      -2.650  12.229  19.753  0.00  0.00    +0.000 A 
ATOM      4  C   UNL     1      -3.653  11.885  18.840  0.00  0.00    +0.000 A 
ATOM      5  C   UNL     1      -3.361  11.414  17.570  0.00  0.00    +0.000 A 
ATOM      6  C   UNL     1      -2.102  11.065  17.202  0.00  0.00    +0.000 A 
ATOM      7  C   UNL     1      -1.165  11.147  18.218  0.00  0.00    +0.000 A 
ATOM      8  O   UNL     1      -0.147  10.221  18.198  0.00  0.00    +0.000 OA
ATOM      9  C   UNL     1       0.120   9.559  19.489  0.00  0.00    +0.000 C 
ATOM     10  C   UNL     1      -0.099  10.487  20.750  0.00  0.00    +0.000 C 
ATOM     11  C   UNL     1       0.607  10.215  22.081  0.00  0.00    +0.000 C 
ATOM     12  O   UNL     1      -4.474  11.117  16.845  0.00  0.00    +0.000 OA
ATOM     13  C   UNL     1      -5.429  11.054  17.916  0.00  0.00    +0.000 C 
ATOM     14  O   UNL     1      -4.995  11.801  19.084  0.00  0.00    +0.000 OA
ENDROOT
BRANCH   1  17
ATOM     15  C   UNL     1       0.811  14.998  22.436  0.00  0.00    +0.000 A 
ATOM     16  C   UNL     1       0.091  13.871  21.953  0.00  0.00    +0.000 A 
ATOM     17  C   UNL     1       0.632  13.051  20.959  0.00  0.00    +0.000 A 
ATOM     18  C   UNL     1       1.906  13.411  20.446  0.00  0.00    +0.000 A 
ATOM     19  C   UNL     1       2.647  14.468  20.957  0.00  0.00    +0.000 A 
ATOM     20  C   UNL     1       2.098  15.274  21.946  0.00  0.00    +0.000 A 
BRANCH  15  22
ATOM     21  C   UNL     1      -1.113  15.209  23.828  0.00  0.00    +0.000 C 
ATOM     22  O   UNL     1       0.121  15.749  23.359  0.00  0.00    +0.000 OA
ENDBRANCH  15  22
BRANCH  19  23
ATOM     23  O   UNL     1       3.853  14.743  20.369  0.00  0.00    +0.000 OA
ATOM     24  C   UNL     1       3.718  15.072  18.982  0.00  0.00    +0.000 C 
ENDBRANCH  19  23
BRANCH  20  25
ATOM     25  O   UNL     1       2.830  16.347  22.378  0.00  0.00    +0.000 OA
ATOM     26  H   UNL     1       3.394  16.017  23.101  0.00  0.00    +0.000 HD
ENDBRANCH  20  25
ENDBRANCH   1  17
BRANCH   9  27
ATOM     27  N   UNL     1       1.487   9.105  19.330  0.00  0.00    +0.000 N 
ATOM     28  H   UNL     1       1.842   9.561  18.486  0.00  0.00    +0.000 HD
BRANCH  27  29
ATOM     29  C   UNL     1       1.886   7.775  19.302  0.00  0.00    +0.000 A 
ATOM     30  C   UNL     1       2.408   7.103  18.192  0.00  0.00    +0.000 A 
ATOM     31  C   UNL     1       2.726   5.742  18.255  0.00  0.00    +0.000 A 
ATOM     32  C   UNL     1       2.476   5.009  19.414  0.00  0.00    +0.000 A 
ATOM     33  C   UNL     1       1.949   5.652  20.524  0.00  0.00    +0.000 A 
ATOM     34  C   UNL     1       1.655   7.013  20.464  0.00  0.00    +0.000 A 
ENDBRANCH  27  29
ENDBRANCH   9  27
TORSDOF 6
ENDMDL
MODEL 4
REMARK VINA RESULT:      -7.0      3.070      5.199
REMARK  Name = 
REMARK  9 active torsions:
REMARK  status: ('A' for Active; 'I' for Inactive)
REMARK    1  A    between atoms: C_1  and  O_2
REMARK    2  A    between atoms: O_2  and  C_3
REMARK    3  A    between atoms: C_5  and  C_6
REMARK    4  A    between atoms: C_14  and  N_15
REMARK    5  A    between atoms: N_15  and  C_16
REMARK    6  A    between atoms: C_22  and  C_23
REMARK    7  A    between atoms: C_28  and  O_29
REMARK    8  A    between atoms: O_29  and  C_30
REMARK    9  A    between atoms: C_31  and  O_32
REMARK                            x       y       z     vdW  Elec       q    Type
REMARK                         _______ _______ _______ _____ _____    ______ ____
ROOT
ATOM      1  C   UNL     1      -1.305  13.034  20.195  0.00  0.00    +0.000 C 
ATOM      2  C   UNL     1      -0.221  13.926  19.604  0.00  0.00    +0.000 A 
ATOM      3  C   UNL     1       0.786  13.620  18.677  0.00  0.00    +0.000 A 
ATOM      4  C   UNL     1       1.810  14.562  18.534  0.00  0.00    +0.000 A 
ATOM      5  C   UNL     1       1.767  15.796  19.165  0.00  0.00    +0.000 A 
ATOM      6  C   UNL     1       0.842  16.090  20.112  0.00  0.00    +0.000 A 
ATOM      7  C   UNL     1       0.007  15.037  20.443  0.00  0.00    +0.000 A 
ATOM      8  O   UNL     1      -0.417  14.970  21.751  0.00  0.00    +0.000 OA
ATOM      9  C   UNL     1      -0.297  13.641  22.379  0.00  0.00    +0.000 C 
ATOM     10  C   UNL     1      -0.544  12.432  21.389  0.00  0.00    +0.000 C 
ATOM     11  C   UNL     1      -0.997  11.060  21.894  0.00  0.00    +0.000 C 
ATOM     12  O   UNL     1       2.868  16.558  18.915  0.00  0.00    +0.000 OA
ATOM     13  C   UNL     1       3.747  15.531  18.432  0.00  0.00    +0.000 C 
ATOM     14  O   UNL     1       3.021  14.377  17.929  0.00  0.00    +0.000 OA
ENDROOT
BRANCH   1  17
ATOM     15  C   UNL     1      -3.559  10.964  17.789  0.00  0.00    +0.000 A 
ATOM     16  C   UNL     1      -2.375  11.434  18.422  0.00  0.00    +0.000 A 
ATOM     17  C   UNL     1      -2.447  12.301  19.516  0.00  0.00    +0.000 A 
ATOM     18  C   UNL     1      -3.743  12.703  19.938  0.00  0.00    +0.000 A 
ATOM     19  C   UNL     1      -4.904  12.198  19.372  0.00  0.00    +0.000 A 
ATOM     20  C   UNL     1      -4.819  11.336  18.286  0.00  0.00    +0.000 A 
BRANCH  15  22
ATOM     21  C   UNL     1      -3.008  10.858  15.472  0.00  0.00    +0.000 C 
ATOM     22  O   UNL     1      -3.328  10.178  16.684  0.00  0.00    +0.000 OA
ENDBRANCH  15  22
BRANCH  19  23
ATOM     23  O   UNL     1      -6.100  12.675  19.840  0.00  0.00    +0.000 OA
ATOM     24  C   UNL     1      -6.330  14.035  19.456  0.00  0.00    +0.000 C 
ENDBRANCH  19  23
BRANCH  20  25
ATOM     25  O   UNL     1      -5.986  10.911  17.711  0.00  0.00    +0.000 OA
ATOM     26  H   UNL     1      -6.533  11.709  17.589  0.00  0.00    +0.000 HD
ENDBRANCH  20  25
ENDBRANCH   1  17
BRANCH   9  27
ATOM     27  N   UNL     1      -1.260  13.717  23.458  0.00  0.00    +0.000 N 
ATOM     28  H   UNL     1      -1.101  12.893  24.041  0.00  0.00    +0.000 HD
BRANCH  27  29
ATOM     29  C   UNL     1      -2.630  13.871  23.292  0.00  0.00    +0.000 A 
ATOM     30  C   UNL     1      -3.270  15.017  22.807  0.00  0.00    +0.000 A 
ATOM     31  C   UNL     1      -4.665  15.090  22.733  0.00  0.00    +0.000 A 
ATOM     32  C   UNL     1      -5.455  14.039  23.196  0.00  0.00    +0.000 A 
ATOM     33  C   UNL     1      -4.843  12.897  23.692  0.00  0.00    +0.000 A 
ATOM     34  C   UNL     1      -3.452  12.820  23.742  0.00  0.00    +0.000 A 
ENDBRANCH  27  29
ENDBRANCH   9  27
TORSDOF 6
ENDMDL
MODEL 5
REMARK VINA RESULT:      -7.0      1.763      6.124
REMARK  Name = 
REMARK  9 active torsions:
REMARK  status: ('A' for Active; 'I' for Inactive)
REMARK    1  A    between atoms: C_1  and  O_2
REMARK    2  A    between atoms: O_2  and  C_3
REMARK    3  A    between atoms: C_5  and  C_6
REMARK    4  A    between atoms: C_14  and  N_15
REMARK    5  A    between atoms: N_15  and  C_16
REMARK    6  A    between atoms: C_22  and  C_23
REMARK    7  A    between atoms: C_28  and  O_29
REMARK    8  A    between atoms: O_29  and  C_30
REMARK    9  A    between atoms: C_31  and  O_32
REMARK                            x       y       z     vdW  Elec       q    Type
REMARK                         _______ _______ _______ _____ _____    ______ ____
ROOT
ATOM      1  C   UNL     1      -0.784  12.848  19.138  0.00  0.00    +0.000 C 
ATOM      2  C   UNL     1      -2.248  12.501  18.895  0.00  0.00    +0.000 A 
ATOM      3  C   UNL     1      -3.376  12.769  19.683  0.00  0.00    +0.000 A 
ATOM      4  C   UNL     1      -4.549  12.085  19.349  0.00  0.00    +0.000 A 
ATOM      5  C   UNL     1      -4.639  11.291  18.215  0.00  0.00    +0.000 A 
ATOM      6  C   UNL     1      -3.550  10.965  17.475  0.00  0.00    +0.000 A 
ATOM      7  C   UNL     1      -2.350  11.424  17.989  0.00  0.00    +0.000 A 
ATOM      8  O   UNL     1      -1.245  10.629  17.788  0.00  0.00    +0.000 OA
ATOM      9  C   UNL     1      -0.414  10.399  18.985  0.00  0.00    +0.000 C 
ATOM     10  C   UNL     1      -0.350  11.632  19.974  0.00  0.00    +0.000 C 
ATOM     11  C   UNL     1       0.820  11.825  20.942  0.00  0.00    +0.000 C 
ATOM     12  O   UNL     1      -5.857  10.697  18.079  0.00  0.00    +0.000 OA
ATOM     13  C   UNL     1      -6.338  10.863  19.422  0.00  0.00    +0.000 C 
ATOM     14  O   UNL     1      -5.673  11.954  20.114  0.00  0.00    +0.000 OA
ENDROOT
BRANCH   1  17
ATOM     15  C   UNL     1       0.050  16.614  19.660  0.00  0.00    +0.000 A 
ATOM     16  C   UNL     1      -0.658  15.385  19.767  0.00  0.00    +0.000 A 
ATOM     17  C   UNL     1      -0.108  14.200  19.270  0.00  0.00    +0.000 A 
ATOM     18  C   UNL     1       1.162  14.290  18.640  0.00  0.00    +0.000 A 
ATOM     19  C   UNL     1       1.891  15.470  18.591  0.00  0.00    +0.000 A 
ATOM     20  C   UNL     1       1.333  16.641  19.090  0.00  0.00    +0.000 A 
BRANCH  15  22
ATOM     21  C   UNL     1      -1.481  18.379  19.187  0.00  0.00    +0.000 C 
ATOM     22  O   UNL     1      -0.648  17.703  20.127  0.00  0.00    +0.000 OA
ENDBRANCH  15  22
BRANCH  19  23
ATOM     23  O   UNL     1       3.093  15.449  17.935  0.00  0.00    +0.000 OA
ATOM     24  C   UNL     1       4.042  14.584  18.568  0.00  0.00    +0.000 C 
ENDBRANCH  19  23
BRANCH  20  25
ATOM     25  O   UNL     1       2.053  17.798  18.963  0.00  0.00    +0.000 OA
ATOM     26  H   UNL     1       2.449  17.967  19.838  0.00  0.00    +0.000 HD
ENDBRANCH  20  25
ENDBRANCH   1  17
BRANCH   9  27
ATOM     27  N   UNL     1       0.868  10.044  18.412  0.00  0.00    +0.000 N 
ATOM     28  H   UNL     1       0.753  10.106  17.398  0.00  0.00    +0.000 HD
BRANCH  27  29
ATOM     29  C   UNL     1       1.573   8.883  18.697  0.00  0.00    +0.000 A 
ATOM     30  C   UNL     1       2.359   8.162  17.791  0.00  0.00    +0.000 A 
ATOM     31  C   UNL     1       2.984   6.968  18.166  0.00  0.00    +0.000 A 
ATOM     32  C   UNL     1       2.790   6.437  19.440  0.00  0.00    +0.000 A 
ATOM     33  C   UNL     1       2.006   7.128  20.352  0.00  0.00    +0.000 A 
ATOM     34  C   UNL     1       1.405   8.330  19.981  0.00  0.00    +0.000 A 
ENDBRANCH  27  29
ENDBRANCH   9  27
TORSDOF 6
ENDMDL
MODEL 6
REMARK VINA RESULT:      -6.9      1.870      5.648
REMARK  Name = 
REMARK  9 active torsions:
REMARK  status: ('A' for Active; 'I' for Inactive)
REMARK    1  A    between atoms: C_1  and  O_2
REMARK    2  A    between atoms: O_2  and  C_3
REMARK    3  A    between atoms: C_5  and  C_6
REMARK    4  A    between atoms: C_14  and  N_15
REMARK    5  A    between atoms: N_15  and  C_16
REMARK    6  A    between atoms: C_22  and  C_23
REMARK    7  A    between atoms: C_28  and  O_29
REMARK    8  A    between atoms: O_29  and  C_30
REMARK    9  A    between atoms: C_31  and  O_32
REMARK                            x       y       z     vdW  Elec       q    Type
REMARK                         _______ _______ _______ _____ _____    ______ ____
ROOT
ATOM      1  C   UNL     1      -0.173  12.166  19.854  0.00  0.00    +0.000 C 
ATOM      2  C   UNL     1      -1.531  12.104  19.165  0.00  0.00    +0.000 A 
ATOM      3  C   UNL     1      -2.814  12.306  19.692  0.00  0.00    +0.000 A 
ATOM      4  C   UNL     1      -3.889  11.905  18.891  0.00  0.00    +0.000 A 
ATOM      5  C   UNL     1      -3.710  11.463  17.589  0.00  0.00    +0.000 A 
ATOM      6  C   UNL     1      -2.480  11.197  17.080  0.00  0.00    +0.000 A 
ATOM      7  C   UNL     1      -1.444  11.332  17.987  0.00  0.00    +0.000 A 
ATOM      8  O   UNL     1      -0.378  10.473  17.842  0.00  0.00    +0.000 OA
ATOM      9  C   UNL     1       0.072   9.820  19.086  0.00  0.00    +0.000 C 
ATOM     10  C   UNL     1      -0.064  10.724  20.377  0.00  0.00    +0.000 C 
ATOM     11  C   UNL     1       0.801  10.488  21.618  0.00  0.00    +0.000 C 
ATOM     12  O   UNL     1      -4.876  11.100  16.987  0.00  0.00    +0.000 OA
ATOM     13  C   UNL     1      -5.700  10.968  18.155  0.00  0.00    +0.000 C 
ATOM     14  O   UNL     1      -5.187  11.733  19.280  0.00  0.00    +0.000 OA
ENDROOT
BRANCH   1  17
ATOM     15  C   UNL     1       2.385  14.799  21.149  0.00  0.00    +0.000 A 
ATOM     16  C   UNL     1       1.809  13.816  20.298  0.00  0.00    +0.000 A 
ATOM     17  C   UNL     1       0.522  13.327  20.541  0.00  0.00    +0.000 A 
ATOM     18  C   UNL     1      -0.159  13.836  21.679  0.00  0.00    +0.000 A 
ATOM     19  C   UNL     1       0.366  14.843  22.476  0.00  0.00    +0.000 A 
ATOM     20  C   UNL     1       1.645  15.322  22.223  0.00  0.00    +0.000 A 
BRANCH  15  22
ATOM     21  C   UNL     1       3.856  16.181  19.880  0.00  0.00    +0.000 C 
ATOM     22  O   UNL     1       3.680  15.128  20.827  0.00  0.00    +0.000 OA
ENDBRANCH  15  22
BRANCH  19  23
ATOM     23  O   UNL     1      -0.366  15.240  23.565  0.00  0.00    +0.000 OA
ATOM     24  C   UNL     1      -1.409  14.313  23.884  0.00  0.00    +0.000 C 
ENDBRANCH  19  23
BRANCH  20  25
ATOM     25  O   UNL     1       2.155  16.268  23.071  0.00  0.00    +0.000 OA
ATOM     26  H   UNL     1       1.447  16.468  23.710  0.00  0.00    +0.000 HD
ENDBRANCH  20  25
ENDBRANCH   1  17
BRANCH   9  27
ATOM     27  N   UNL     1       1.438   9.456  18.771  0.00  0.00    +0.000 N 
ATOM     28  H   UNL     1       1.602   9.769  17.811  0.00  0.00    +0.000 HD
BRANCH  27  29
ATOM     29  C   UNL     1       1.974   8.183  18.907  0.00  0.00    +0.000 A 
ATOM     30  C   UNL     1       1.849   7.361  20.032  0.00  0.00    +0.000 A 
ATOM     31  C   UNL     1       2.479   6.113  20.090  0.00  0.00    +0.000 A 
ATOM     32  C   UNL     1       3.295   5.682  19.045  0.00  0.00    +0.000 A 
ATOM     33  C   UNL     1       3.442   6.485  17.923  0.00  0.00    +0.000 A 
ATOM     34  C   UNL     1       2.794   7.718  17.861  0.00  0.00    +0.000 A 
ENDBRANCH  27  29
ENDBRANCH   9  27
TORSDOF 6
ENDMDL
MODEL 7
REMARK VINA RESULT:      -6.9      2.094      5.752
REMARK  Name = 
REMARK  9 active torsions:
REMARK  status: ('A' for Active; 'I' for Inactive)
REMARK    1  A    between atoms: C_1  and  O_2
REMARK    2  A    between atoms: O_2  and  C_3
REMARK    3  A    between atoms: C_5  and  C_6
REMARK    4  A    between atoms: C_14  and  N_15
REMARK    5  A    between atoms: N_15  and  C_16
REMARK    6  A    between atoms: C_22  and  C_23
REMARK    7  A    between atoms: C_28  and  O_29
REMARK    8  A    between atoms: O_29  and  C_30
REMARK    9  A    between atoms: C_31  and  O_32
REMARK                            x       y       z     vdW  Elec       q    Type
REMARK                         _______ _______ _______ _____ _____    ______ ____
ROOT
ATOM      1  C   UNL     1      -0.785  12.310  20.718  0.00  0.00    +0.000 C 
ATOM      2  C   UNL     1      -1.950  12.244  19.739  0.00  0.00    +0.000 A 
ATOM      3  C   UNL     1      -3.324  12.405  19.966  0.00  0.00    +0.000 A 
ATOM      4  C   UNL     1      -4.179  12.010  18.932  0.00  0.00    +0.000 A 
ATOM      5  C   UNL     1      -3.700  11.613  17.694  0.00  0.00    +0.000 A 
ATOM      6  C   UNL     1      -2.381  11.387  17.469  0.00  0.00    +0.000 A 
ATOM      7  C   UNL     1      -1.579  11.512  18.590  0.00  0.00    +0.000 A 
ATOM      8  O   UNL     1      -0.487  10.679  18.667  0.00  0.00    +0.000 OA
ATOM      9  C   UNL     1      -0.313   9.994  19.962  0.00  0.00    +0.000 C 
ATOM     10  C   UNL     1      -0.760  10.853  21.213  0.00  0.00    +0.000 C 
ATOM     11  C   UNL     1      -0.192  10.593  22.610  0.00  0.00    +0.000 C 
ATOM     12  O   UNL     1      -4.691  11.249  16.833  0.00  0.00    +0.000 OA
ATOM     13  C   UNL     1      -5.754  11.064  17.781  0.00  0.00    +0.000 C 
ATOM     14  O   UNL     1      -5.527  11.801  19.012  0.00  0.00    +0.000 OA
ENDROOT
BRANCH   1  17
ATOM     15  C   UNL     1      -0.461  15.357  23.118  0.00  0.00    +0.000 A 
ATOM     16  C   UNL     1      -1.015  14.190  22.523  0.00  0.00    +0.000 A 
ATOM     17  C   UNL     1      -0.292  13.460  21.576  0.00  0.00    +0.000 A 
ATOM     18  C   UNL     1       0.994  13.951  21.225  0.00  0.00    +0.000 A 
ATOM     19  C   UNL     1       1.572  15.048  21.848  0.00  0.00    +0.000 A 
ATOM     20  C   UNL     1       0.842  15.764  22.789  0.00  0.00    +0.000 A 
BRANCH  15  22
ATOM     21  C   UNL     1      -1.287  15.598  25.341  0.00  0.00    +0.000 C 
ATOM     22  O   UNL     1      -1.317  16.008  23.976  0.00  0.00    +0.000 OA
ENDBRANCH  15  22
BRANCH  19  23
ATOM     23  O   UNL     1       2.806  15.451  21.412  0.00  0.00    +0.000 OA
ATOM     24  C   UNL     1       3.571  14.368  20.870  0.00  0.00    +0.000 C 
ENDBRANCH  19  23
BRANCH  20  25
ATOM     25  O   UNL     1       1.420  16.880  23.333  0.00  0.00    +0.000 OA
ATOM     26  H   UNL     1       1.303  17.592  22.678  0.00  0.00    +0.000 HD
ENDBRANCH  20  25
ENDBRANCH   1  17
BRANCH   9  27
ATOM     27  N   UNL     1       1.098   9.666  19.955  0.00  0.00    +0.000 N 
ATOM     28  H   UNL     1       1.549  10.363  19.358  0.00  0.00    +0.000 HD
BRANCH  27  29
ATOM     29  C   UNL     1       1.624   8.421  19.638  0.00  0.00    +0.000 A 
ATOM     30  C   UNL     1       2.142   8.047  18.393  0.00  0.00    +0.000 A 
ATOM     31  C   UNL     1       2.596   6.744  18.160  0.00  0.00    +0.000 A 
ATOM     32  C   UNL     1       2.490   5.769  19.152  0.00  0.00    +0.000 A 
ATOM     33  C   UNL     1       1.970   6.114  20.391  0.00  0.00    +0.000 A 
ATOM     34  C   UNL     1       1.540   7.420  20.624  0.00  0.00    +0.000 A 
ENDBRANCH  27  29
ENDBRANCH   9  27
TORSDOF 6
ENDMDL
MODEL 8
REMARK VINA RESULT:      -6.9      2.019      6.221
REMARK  Name = 
REMARK  9 active torsions:
REMARK  status: ('A' for Active; 'I' for Inactive)
REMARK    1  A    between atoms: C_1  and  O_2
REMARK    2  A    between atoms: O_2  and  C_3
REMARK    3  A    between atoms: C_5  and  C_6
REMARK    4  A    between atoms: C_14  and  N_15
REMARK    5  A    between atoms: N_15  and  C_16
REMARK    6  A    between atoms: C_22  and  C_23
REMARK    7  A    between atoms: C_28  and  O_29
REMARK    8  A    between atoms: O_29  and  C_30
REMARK    9  A    between atoms: C_31  and  O_32
REMARK                            x       y       z     vdW  Elec       q    Type
REMARK                         _______ _______ _______ _____ _____    ______ ____
ROOT
ATOM      1  C   UNL     1       0.121  12.323  18.831  0.00  0.00    +0.000 C 
ATOM      2  C   UNL     1      -1.321  12.029  18.437  0.00  0.00    +0.000 A 
ATOM      3  C   UNL     1      -2.516  12.539  18.963  0.00  0.00    +0.000 A 
ATOM      4  C   UNL     1      -3.693  11.876  18.597  0.00  0.00    +0.000 A 
ATOM      5  C   UNL     1      -3.701  10.860  17.654  0.00  0.00    +0.000 A 
ATOM      6  C   UNL     1      -2.556  10.307  17.180  0.00  0.00    +0.000 A 
ATOM      7  C   UNL     1      -1.400  10.788  17.770  0.00  0.00    +0.000 A 
ATOM      8  O   UNL     1      -0.362   9.897  17.917  0.00  0.00    +0.000 OA
ATOM      9  C   UNL     1       0.265   9.883  19.252  0.00  0.00    +0.000 C 
ATOM     10  C   UNL     1       0.312  11.296  19.960  0.00  0.00    +0.000 C 
ATOM     11  C   UNL     1       1.347  11.620  21.040  0.00  0.00    +0.000 C 
ATOM     12  O   UNL     1      -4.940  10.331  17.454  0.00  0.00    +0.000 OA
ATOM     13  C   UNL     1      -5.587  10.821  18.639  0.00  0.00    +0.000 C 
ATOM     14  O   UNL     1      -4.921  11.992  19.184  0.00  0.00    +0.000 OA
ENDROOT
BRANCH   1  17
ATOM     15  C   UNL     1       2.867  15.080  18.936  0.00  0.00    +0.000 A 
ATOM     16  C   UNL     1       2.290  13.787  18.808  0.00  0.00    +0.000 A 
ATOM     17  C   UNL     1       0.902  13.623  18.784  0.00  0.00    +0.000 A 
ATOM     18  C   UNL     1       0.110  14.795  18.918  0.00  0.00    +0.000 A 
ATOM     19  C   UNL     1       0.661  16.067  18.976  0.00  0.00    +0.000 A 
ATOM     20  C   UNL     1       2.042  16.216  18.998  0.00  0.00    +0.000 A 
BRANCH  15  22
ATOM     21  C   UNL     1       4.952  15.036  17.783  0.00  0.00    +0.000 C 
ATOM     22  O   UNL     1       4.239  15.075  19.018  0.00  0.00    +0.000 OA
ENDBRANCH  15  22
BRANCH  19  23
ATOM     23  O   UNL     1      -0.195  17.125  19.133  0.00  0.00    +0.000 OA
ATOM     24  C   UNL     1      -0.801  17.521  17.898  0.00  0.00    +0.000 C 
ENDBRANCH  19  23
BRANCH  20  25
ATOM     25  O   UNL     1       2.549  17.482  19.123  0.00  0.00    +0.000 OA
ATOM     26  H   UNL     1       3.275  17.548  18.477  0.00  0.00    +0.000 HD
ENDBRANCH  20  25
ENDBRANCH   1  17
BRANCH   9  27
ATOM     27  N   UNL     1       1.574   9.326  18.976  0.00  0.00    +0.000 N 
ATOM     28  H   UNL     1       1.806   9.604  18.020  0.00  0.00    +0.000 HD
BRANCH  27  29
ATOM     29  C   UNL     1       1.920   7.990  19.133  0.00  0.00    +0.000 A 
ATOM     30  C   UNL     1       2.441   7.160  18.135  0.00  0.00    +0.000 A 
ATOM     31  C   UNL     1       2.703   5.808  18.383  0.00  0.00    +0.000 A 
ATOM     32  C   UNL     1       2.397   5.243  19.620  0.00  0.00    +0.000 A 
ATOM     33  C   UNL     1       1.870   6.045  20.622  0.00  0.00    +0.000 A 
ATOM     34  C   UNL     1       1.632   7.396  20.377  0.00  0.00    +0.000 A 
ENDBRANCH  27  29
ENDBRANCH   9  27
TORSDOF 6
ENDMDL
MODEL 9
REMARK VINA RESULT:      -6.9      2.299      6.101
REMARK  Name = 
REMARK  9 active torsions:
REMARK  status: ('A' for Active; 'I' for Inactive)
REMARK    1  A    between atoms: C_1  and  O_2
REMARK    2  A    between atoms: O_2  and  C_3
REMARK    3  A    between atoms: C_5  and  C_6
REMARK    4  A    between atoms: C_14  and  N_15
REMARK    5  A    between atoms: N_15  and  C_16
REMARK    6  A    between atoms: C_22  and  C_23
REMARK    7  A    between atoms: C_28  and  O_29
REMARK    8  A    between atoms: O_29  and  C_30
REMARK    9  A    between atoms: C_31  and  O_32
REMARK                            x       y       z     vdW  Elec       q    Type
REMARK                         _______ _______ _______ _____ _____    ______ ____
ROOT
ATOM      1  C   UNL     1      -2.019  13.251  20.328  0.00  0.00    +0.000 C 
ATOM      2  C   UNL     1      -3.435  12.788  20.010  0.00  0.00    +0.000 A 
ATOM      3  C   UNL     1      -4.576  12.769  20.825  0.00  0.00    +0.000 A 
ATOM      4  C   UNL     1      -5.666  12.028  20.356  0.00  0.00    +0.000 A 
ATOM      5  C   UNL     1      -5.678  11.456  19.093  0.00  0.00    +0.000 A 
ATOM      6  C   UNL     1      -4.567  11.405  18.315  0.00  0.00    +0.000 A 
ATOM      7  C   UNL     1      -3.422  11.896  18.917  0.00  0.00    +0.000 A 
ATOM      8  O   UNL     1      -2.235  11.287  18.580  0.00  0.00    +0.000 OA
ATOM      9  C   UNL     1      -1.368  10.935  19.720  0.00  0.00    +0.000 C 
ATOM     10  C   UNL     1      -1.435  11.959  20.924  0.00  0.00    +0.000 C 
ATOM     11  C   UNL     1      -0.283  12.102  21.922  0.00  0.00    +0.000 C 
ATOM     12  O   UNL     1      -6.819  10.760  18.837  0.00  0.00    +0.000 OA
ATOM     13  C   UNL     1      -7.300  10.613  20.182  0.00  0.00    +0.000 C 
ATOM     14  O   UNL     1      -6.757  11.625  21.073  0.00  0.00    +0.000 OA
ENDROOT
BRANCH   1  17
ATOM     15  C   UNL     1      -1.395  16.714  21.992  0.00  0.00    +0.000 A 
ATOM     16  C   UNL     1      -1.826  15.365  21.857  0.00  0.00    +0.000 A 
ATOM     17  C   UNL     1      -1.503  14.624  20.718  0.00  0.00    +0.000 A 
ATOM     18  C   UNL     1      -0.755  15.284  19.707  0.00  0.00    +0.000 A 
ATOM     19  C   UNL     1      -0.271  16.576  19.857  0.00  0.00    +0.000 A 
ATOM     20  C   UNL     1      -0.600  17.302  20.996  0.00  0.00    +0.000 A 
BRANCH  15  22
ATOM     21  C   UNL     1      -3.123  17.975  23.044  0.00  0.00    +0.000 C 
ATOM     22  O   UNL     1      -1.851  17.335  23.131  0.00  0.00    +0.000 OA
ENDBRANCH  15  22
BRANCH  19  23
ATOM     23  O   UNL     1       0.416  17.125  18.807  0.00  0.00    +0.000 OA
ATOM     24  C   UNL     1      -0.449  17.503  17.730  0.00  0.00    +0.000 C 
ENDBRANCH  19  23
BRANCH  20  25
ATOM     25  O   UNL     1      -0.161  18.597  21.078  0.00  0.00    +0.000 OA
ATOM     26  H   UNL     1      -0.570  18.970  21.880  0.00  0.00    +0.000 HD
ENDBRANCH  20  25
ENDBRANCH   1  17
BRANCH   9  27
ATOM     27  N   UNL     1      -0.061  10.846  19.102  0.00  0.00    +0.000 N 
ATOM     28  H   UNL     1      -0.180  11.162  18.137  0.00  0.00    +0.000 HD
BRANCH  27  29
ATOM     29  C   UNL     1       0.739   9.711  19.090  0.00  0.00    +0.000 A 
ATOM     30  C   UNL     1       1.032   8.908  20.198  0.00  0.00    +0.000 A 
ATOM     31  C   UNL     1       1.898   7.814  20.089  0.00  0.00    +0.000 A 
ATOM     32  C   UNL     1       2.536   7.533  18.882  0.00  0.00    +0.000 A 
ATOM     33  C   UNL     1       2.269   8.322  17.773  0.00  0.00    +0.000 A 
ATOM     34  C   UNL     1       1.387   9.397  17.881  0.00  0.00    +0.000 A 
ENDBRANCH  27  29
ENDBRANCH   9  27
TORSDOF 6
ENDMDL
