MODEL 1
REMARK VINA RESULT:      -8.2      0.000      0.000
REMARK  Name = 
REMARK  6 active torsions:
REMARK  status: ('A' for Active; 'I' for Inactive)
REMARK    1  A    between atoms: C_1  and  C_2
REMARK    2  A    between atoms: C_2  and  C_3
REMARK    3  A    between atoms: C_6  and  C_7
REMARK    4  A    between atoms: C_7  and  N_8
REMARK    5  A    between atoms: C_9  and  C_11
REMARK    6  A    between atoms: N_13  and  C_14
REMARK                            x       y       z     vdW  Elec       q    Type
REMARK                         _______ _______ _______ _____ _____    ______ ____
ROOT
ATOM      1  C   UNL     1      -0.792  10.438  18.048  0.00  0.00    +0.000 A 
ATOM      2  N   UNL     1      -1.418   9.773  17.050  0.00  0.00    +0.000 NA
ATOM      3  N   UNL     1      -2.598  10.431  16.924  0.00  0.00    +0.000 N 
ATOM      4  C   UNL     1      -3.196  10.595  15.617  0.00  0.00    +0.000 C 
ATOM      5  C   UNL     1      -2.865  11.210  18.022  0.00  0.00    +0.000 A 
ATOM      6  C   UNL     1      -1.595  11.540  18.459  0.00  0.00    +0.000 A 
ATOM      7  C   UNL     1      -1.329  12.733  19.286  0.00  0.00    +0.000 C 
ATOM      8  S   UNL     1      -2.608  12.981  20.503  0.00  0.00    +0.000 S 
ATOM      9  O   UNL     1      -2.682  14.403  20.796  0.00  0.00    +0.000 OA
ATOM     10  O   UNL     1      -2.458  12.008  21.568  0.00  0.00    +0.000 OA
ATOM     11  C   UNL     1      -4.136  12.565  19.665  0.00  0.00    +0.000 A 
ATOM     12  C   UNL     1      -5.327  13.062  20.211  0.00  0.00    +0.000 A 
ATOM     13  C   UNL     1      -6.545  12.638  19.689  0.00  0.00    +0.000 A 
ATOM     14  C   UNL     1      -6.566  11.710  18.651  0.00  0.00    +0.000 A 
ATOM     15  C   UNL     1      -5.370  11.244  18.089  0.00  0.00    +0.000 A 
ATOM     16  C   UNL     1      -4.132  11.703  18.552  0.00  0.00    +0.000 A 
ENDROOT
BRANCH   1  18
ATOM     17  N   UNL     1       1.159   9.031  17.863  0.00  0.00    +0.000 N 
ATOM     18  C   UNL     1       0.500   9.992  18.615  0.00  0.00    +0.000 C 
ATOM     19  O   UNL     1       0.925  10.419  19.679  0.00  0.00    +0.000 OA
ATOM     20  H   UNL     1       0.806   8.867  16.929  0.00  0.00    +0.000 HD
BRANCH  17  21
ATOM     21  C   UNL     1       2.407   8.458  18.322  0.00  0.00    +0.000 C 
BRANCH  21  25
ATOM     22  C   UNL     1       2.092   4.312  19.665  0.00  0.00    +0.000 A 
ATOM     23  C   UNL     1       1.914   5.391  20.543  0.00  0.00    +0.000 A 
ATOM     24  C   UNL     1       2.046   6.707  20.097  0.00  0.00    +0.000 A 
ATOM     25  C   UNL     1       2.355   7.007  18.761  0.00  0.00    +0.000 A 
ATOM     26  C   UNL     1       2.486   5.928  17.870  0.00  0.00    +0.000 A 
ATOM     27  C   UNL     1       2.362   4.604  18.319  0.00  0.00    +0.000 A 
BRANCH  22  29
ATOM     28  C   UNL     1       1.657   2.776  21.637  0.00  0.00    +0.000 C 
ATOM     29  C   UNL     1       2.004   2.891  20.160  0.00  0.00    +0.000 C 
ENDBRANCH  22  29
ENDBRANCH  21  25
ENDBRANCH  17  21
ENDBRANCH   1  18
TORSDOF 4
ENDMDL
MODEL 2
REMARK VINA RESULT:      -8.1      4.489      9.932
REMARK  Name = 
REMARK  6 active torsions:
REMARK  status: ('A' for Active; 'I' for Inactive)
REMARK    1  A    between atoms: C_1  and  C_2
REMARK    2  A    between atoms: C_2  and  C_3
REMARK    3  A    between atoms: C_6  and  C_7
REMARK    4  A    between atoms: C_7  and  N_8
REMARK    5  A    between atoms: C_9  and  C_11
REMARK    6  A    between atoms: N_13  and  C_14
REMARK                            x       y       z     vdW  Elec       q    Type
REMARK                         _______ _______ _______ _____ _____    ______ ____
ROOT
ATOM      1  C   UNL     1       3.183   4.491  19.344  0.00  0.00    +0.000 A 
ATOM      2  N   UNL     1       2.560   3.461  18.727  0.00  0.00    +0.000 NA
ATOM      3  N   UNL     1       3.476   3.036  17.820  0.00  0.00    +0.000 N 
ATOM      4  C   UNL     1       3.589   1.626  17.516  0.00  0.00    +0.000 C 
ATOM      5  C   UNL     1       4.456   3.974  17.610  0.00  0.00    +0.000 A 
ATOM      6  C   UNL     1       4.506   4.619  18.832  0.00  0.00    +0.000 A 
ATOM      7  C   UNL     1       5.700   5.357  19.287  0.00  0.00    +0.000 C 
ATOM      8  S   UNL     1       6.455   6.263  17.950  0.00  0.00    +0.000 S 
ATOM      9  O   UNL     1       7.876   6.390  18.237  0.00  0.00    +0.000 OA
ATOM     10  O   UNL     1       5.651   7.430  17.641  0.00  0.00    +0.000 OA
ATOM     11  C   UNL     1       6.330   5.184  16.525  0.00  0.00    +0.000 A 
ATOM     12  C   UNL     1       7.197   5.428  15.452  0.00  0.00    +0.000 A 
ATOM     13  C   UNL     1       7.031   4.719  14.267  0.00  0.00    +0.000 A 
ATOM     14  C   UNL     1       5.993   3.797  14.153  0.00  0.00    +0.000 A 
ATOM     15  C   UNL     1       5.151   3.535  15.242  0.00  0.00    +0.000 A 
ATOM     16  C   UNL     1       5.337   4.188  16.467  0.00  0.00    +0.000 A 
ENDROOT
BRANCH   1  18
ATOM     17  N   UNL     1       2.410   6.683  19.989  0.00  0.00    +0.000 N 
ATOM     18  C   UNL     1       2.508   5.346  20.345  0.00  0.00    +0.000 C 
ATOM     19  O   UNL     1       2.104   4.904  21.411  0.00  0.00    +0.000 OA
ATOM     20  H   UNL     1       2.627   6.913  19.028  0.00  0.00    +0.000 HD
BRANCH  17  21
ATOM     21  C   UNL     1       1.824   7.651  20.894  0.00  0.00    +0.000 C 
BRANCH  21  25
ATOM     22  C   UNL     1      -0.384  10.847  18.895  0.00  0.00    +0.000 A 
ATOM     23  C   UNL     1       0.621  10.120  18.241  0.00  0.00    +0.000 A 
ATOM     24  C   UNL     1       1.331   9.120  18.908  0.00  0.00    +0.000 A 
ATOM     25  C   UNL     1       1.072   8.799  20.250  0.00  0.00    +0.000 A 
ATOM     26  C   UNL     1       0.033   9.495  20.892  0.00  0.00    +0.000 A 
ATOM     27  C   UNL     1      -0.677  10.506  20.225  0.00  0.00    +0.000 A 
BRANCH  22  29
ATOM     28  C   UNL     1      -2.459  11.551  17.616  0.00  0.00    +0.000 C 
ATOM     29  C   UNL     1      -1.112  11.963  18.190  0.00  0.00    +0.000 C 
ENDBRANCH  22  29
ENDBRANCH  21  25
ENDBRANCH  17  21
ENDBRANCH   1  18
TORSDOF 4
ENDMDL
MODEL 3
REMARK VINA RESULT:      -8.0      4.684      9.929
REMARK  Name = 
REMARK  6 active torsions:
REMARK  status: ('A' for Active; 'I' for Inactive)
REMARK    1  A    between atoms: C_1  and  C_2
REMARK    2  A    between atoms: C_2  and  C_3
REMARK    3  A    between atoms: C_6  and  C_7
REMARK    4  A    between atoms: C_7  and  N_8
REMARK    5  A    between atoms: C_9  and  C_11
REMARK    6  A    between atoms: N_13  and  C_14
REMARK                            x       y       z     vdW  Elec       q    Type
REMARK                         _______ _______ _______ _____ _____    ______ ____
ROOT
ATOM      1  C   UNL     1       3.142   4.543  19.362  0.00  0.00    +0.000 A 
ATOM      2  N   UNL     1       2.543   3.484  18.770  0.00  0.00    +0.000 NA
ATOM      3  N   UNL     1       3.474   3.050  17.884  0.00  0.00    +0.000 N 
ATOM      4  C   UNL     1       3.614   1.633  17.622  0.00  0.00    +0.000 C 
ATOM      5  C   UNL     1       4.440   3.998  17.655  0.00  0.00    +0.000 A 
ATOM      6  C   UNL     1       4.467   4.679  18.858  0.00  0.00    +0.000 A 
ATOM      7  C   UNL     1       5.644   5.451  19.303  0.00  0.00    +0.000 C 
ATOM      8  S   UNL     1       6.396   6.330  17.947  0.00  0.00    +0.000 S 
ATOM      9  O   UNL     1       7.811   6.490  18.243  0.00  0.00    +0.000 OA
ATOM     10  O   UNL     1       5.575   7.474  17.596  0.00  0.00    +0.000 OA
ATOM     11  C   UNL     1       6.303   5.209  16.553  0.00  0.00    +0.000 A 
ATOM     12  C   UNL     1       7.176   5.436  15.481  0.00  0.00    +0.000 A 
ATOM     13  C   UNL     1       7.033   4.691  14.315  0.00  0.00    +0.000 A 
ATOM     14  C   UNL     1       6.013   3.748  14.219  0.00  0.00    +0.000 A 
ATOM     15  C   UNL     1       5.165   3.503  15.308  0.00  0.00    +0.000 A 
ATOM     16  C   UNL     1       5.328   4.194  16.514  0.00  0.00    +0.000 A 
ENDROOT
BRANCH   1  18
ATOM     17  N   UNL     1       2.370   6.748  19.960  0.00  0.00    +0.000 N 
ATOM     18  C   UNL     1       2.443   5.415  20.331  0.00  0.00    +0.000 C 
ATOM     19  O   UNL     1       1.999   4.987  21.388  0.00  0.00    +0.000 OA
ATOM     20  H   UNL     1       2.621   6.966  19.004  0.00  0.00    +0.000 HD
BRANCH  17  21
ATOM     21  C   UNL     1       1.764   7.731  20.835  0.00  0.00    +0.000 C 
BRANCH  21  25
ATOM     22  C   UNL     1      -0.323  11.112  19.019  0.00  0.00    +0.000 A 
ATOM     23  C   UNL     1      -0.568  10.714  20.341  0.00  0.00    +0.000 A 
ATOM     24  C   UNL     1       0.092   9.614  20.892  0.00  0.00    +0.000 A 
ATOM     25  C   UNL     1       1.024   8.866  20.156  0.00  0.00    +0.000 A 
ATOM     26  C   UNL     1       1.306   9.294  18.846  0.00  0.00    +0.000 A 
ATOM     27  C   UNL     1       0.637  10.395  18.289  0.00  0.00    +0.000 A 
BRANCH  22  29
ATOM     28  C   UNL     1      -0.360  13.602  18.535  0.00  0.00    +0.000 C 
ATOM     29  C   UNL     1      -1.076  12.266  18.408  0.00  0.00    +0.000 C 
ENDBRANCH  22  29
ENDBRANCH  21  25
ENDBRANCH  17  21
ENDBRANCH   1  18
TORSDOF 4
ENDMDL
MODEL 4
REMARK VINA RESULT:      -7.9      1.153      1.558
REMARK  Name = 
REMARK  6 active torsions:
REMARK  status: ('A' for Active; 'I' for Inactive)
REMARK    1  A    between atoms: C_1  and  C_2
REMARK    2  A    between atoms: C_2  and  C_3
REMARK    3  A    between atoms: C_6  and  C_7
REMARK    4  A    between atoms: C_7  and  N_8
REMARK    5  A    between atoms: C_9  and  C_11
REMARK    6  A    between atoms: N_13  and  C_14
REMARK                            x       y       z     vdW  Elec       q    Type
REMARK                         _______ _______ _______ _____ _____    ______ ____
ROOT
ATOM      1  C   UNL     1      -0.919  10.584  18.011  0.00  0.00    +0.000 A 
ATOM      2  N   UNL     1      -1.493   9.876  17.010  0.00  0.00    +0.000 NA
ATOM      3  N   UNL     1      -2.721  10.439  16.890  0.00  0.00    +0.000 N 
ATOM      4  C   UNL     1      -3.334  10.561  15.584  0.00  0.00    +0.000 C 
ATOM      5  C   UNL     1      -3.047  11.188  17.993  0.00  0.00    +0.000 A 
ATOM      6  C   UNL     1      -1.807  11.616  18.429  0.00  0.00    +0.000 A 
ATOM      7  C   UNL     1      -1.635  12.822  19.262  0.00  0.00    +0.000 C 
ATOM      8  S   UNL     1      -2.927  12.961  20.482  0.00  0.00    +0.000 S 
ATOM      9  O   UNL     1      -3.113  14.371  20.783  0.00  0.00    +0.000 OA
ATOM     10  O   UNL     1      -2.697  11.997  21.542  0.00  0.00    +0.000 OA
ATOM     11  C   UNL     1      -4.419  12.429  19.645  0.00  0.00    +0.000 A 
ATOM     12  C   UNL     1      -5.645  12.827  20.195  0.00  0.00    +0.000 A 
ATOM     13  C   UNL     1      -6.826  12.310  19.673  0.00  0.00    +0.000 A 
ATOM     14  C   UNL     1      -6.776  11.388  18.630  0.00  0.00    +0.000 A 
ATOM     15  C   UNL     1      -5.547  11.022  18.064  0.00  0.00    +0.000 A 
ATOM     16  C   UNL     1      -4.348  11.576  18.527  0.00  0.00    +0.000 A 
ENDROOT
BRANCH   1  18
ATOM     17  N   UNL     1       1.156   9.374  17.792  0.00  0.00    +0.000 N 
ATOM     18  C   UNL     1       0.405  10.239  18.573  0.00  0.00    +0.000 C 
ATOM     19  O   UNL     1       0.781  10.662  19.657  0.00  0.00    +0.000 OA
ATOM     20  H   UNL     1       0.826   9.214  16.848  0.00  0.00    +0.000 HD
BRANCH  17  21
ATOM     21  C   UNL     1       2.450   8.902  18.241  0.00  0.00    +0.000 C 
BRANCH  21  25
ATOM     22  C   UNL     1       3.520   4.728  17.520  0.00  0.00    +0.000 A 
ATOM     23  C   UNL     1       4.358   5.785  17.135  0.00  0.00    +0.000 A 
ATOM     24  C   UNL     1       3.983   7.112  17.353  0.00  0.00    +0.000 A 
ATOM     25  C   UNL     1       2.764   7.445  17.963  0.00  0.00    +0.000 A 
ATOM     26  C   UNL     1       1.945   6.386  18.392  0.00  0.00    +0.000 A 
ATOM     27  C   UNL     1       2.318   5.051  18.167  0.00  0.00    +0.000 A 
BRANCH  22  29
ATOM     28  C   UNL     1       3.014   2.276  17.930  0.00  0.00    +0.000 C 
ATOM     29  C   UNL     1       3.901   3.298  17.236  0.00  0.00    +0.000 C 
ENDBRANCH  22  29
ENDBRANCH  21  25
ENDBRANCH  17  21
ENDBRANCH   1  18
TORSDOF 4
ENDMDL
MODEL 5
REMARK VINA RESULT:      -7.8      4.290      9.777
REMARK  Name = 
REMARK  6 active torsions:
REMARK  status: ('A' for Active; 'I' for Inactive)
REMARK    1  A    between atoms: C_1  and  C_2
REMARK    2  A    between atoms: C_2  and  C_3
REMARK    3  A    between atoms: C_6  and  C_7
REMARK    4  A    between atoms: C_7  and  N_8
REMARK    5  A    between atoms: C_9  and  C_11
REMARK    6  A    between atoms: N_13  and  C_14
REMARK                            x       y       z     vdW  Elec       q    Type
REMARK                         _______ _______ _______ _____ _____    ______ ____
ROOT
ATOM      1  C   UNL     1       2.782   5.078  19.028  0.00  0.00    +0.000 A 
ATOM      2  N   UNL     1       2.015   4.216  18.321  0.00  0.00    +0.000 NA
ATOM      3  N   UNL     1       2.900   3.622  17.481  0.00  0.00    +0.000 N 
ATOM      4  C   UNL     1       2.740   2.225  17.136  0.00  0.00    +0.000 C 
ATOM      5  C   UNL     1       4.071   4.332  17.391  0.00  0.00    +0.000 A 
ATOM      6  C   UNL     1       4.143   4.930  18.636  0.00  0.00    +0.000 A 
ATOM      7  C   UNL     1       5.419   5.387  19.219  0.00  0.00    +0.000 C 
ATOM      8  S   UNL     1       6.469   6.135  17.987  0.00  0.00    +0.000 S 
ATOM      9  O   UNL     1       7.851   5.950  18.399  0.00  0.00    +0.000 OA
ATOM     10  O   UNL     1       5.961   7.452  17.653  0.00  0.00    +0.000 OA
ATOM     11  C   UNL     1       6.249   5.133  16.517  0.00  0.00    +0.000 A 
ATOM     12  C   UNL     1       7.244   5.205  15.533  0.00  0.00    +0.000 A 
ATOM     13  C   UNL     1       7.041   4.570  14.312  0.00  0.00    +0.000 A 
ATOM     14  C   UNL     1       5.847   3.893  14.075  0.00  0.00    +0.000 A 
ATOM     15  C   UNL     1       4.872   3.798  15.077  0.00  0.00    +0.000 A 
ATOM     16  C   UNL     1       5.078   4.373  16.336  0.00  0.00    +0.000 A 
ENDROOT
BRANCH   1  18
ATOM     17  N   UNL     1       2.282   7.367  19.602  0.00  0.00    +0.000 N 
ATOM     18  C   UNL     1       2.214   6.040  19.997  0.00  0.00    +0.000 C 
ATOM     19  O   UNL     1       1.755   5.683  21.073  0.00  0.00    +0.000 OA
ATOM     20  H   UNL     1       2.529   7.539  18.635  0.00  0.00    +0.000 HD
BRANCH  17  21
ATOM     21  C   UNL     1       1.817   8.426  20.473  0.00  0.00    +0.000 C 
BRANCH  21  25
ATOM     22  C   UNL     1      -1.341  11.065  19.006  0.00  0.00    +0.000 A 
ATOM     23  C   UNL     1      -1.012  10.989  20.367  0.00  0.00    +0.000 A 
ATOM     24  C   UNL     1      -0.017  10.119  20.816  0.00  0.00    +0.000 A 
ATOM     25  C   UNL     1       0.695   9.292  19.934  0.00  0.00    +0.000 A 
ATOM     26  C   UNL     1       0.398   9.402  18.564  0.00  0.00    +0.000 A 
ATOM     27  C   UNL     1      -0.607  10.271  18.112  0.00  0.00    +0.000 A 
BRANCH  22  29
ATOM     28  C   UNL     1      -3.225  11.410  17.343  0.00  0.00    +0.000 C 
ATOM     29  C   UNL     1      -2.453  11.965  18.530  0.00  0.00    +0.000 C 
ENDBRANCH  22  29
ENDBRANCH  21  25
ENDBRANCH  17  21
ENDBRANCH   1  18
TORSDOF 4
ENDMDL
MODEL 6
REMARK VINA RESULT:      -7.8      4.125      9.749
REMARK  Name = 
REMARK  6 active torsions:
REMARK  status: ('A' for Active; 'I' for Inactive)
REMARK    1  A    between atoms: C_1  and  C_2
REMARK    2  A    between atoms: C_2  and  C_3
REMARK    3  A    between atoms: C_6  and  C_7
REMARK    4  A    between atoms: C_7  and  N_8
REMARK    5  A    between atoms: C_9  and  C_11
REMARK    6  A    between atoms: N_13  and  C_14
REMARK                            x       y       z     vdW  Elec       q    Type
REMARK                         _______ _______ _______ _____ _____    ______ ____
ROOT
ATOM      1  C   UNL     1       2.703   5.785  18.770  0.00  0.00    +0.000 A 
ATOM      2  N   UNL     1       1.914   4.909  18.106  0.00  0.00    +0.000 NA
ATOM      3  N   UNL     1       2.797   4.167  17.393  0.00  0.00    +0.000 N 
ATOM      4  C   UNL     1       2.549   2.756  17.182  0.00  0.00    +0.000 C 
ATOM      5  C   UNL     1       4.023   4.777  17.309  0.00  0.00    +0.000 A 
ATOM      6  C   UNL     1       4.069   5.499  18.488  0.00  0.00    +0.000 A 
ATOM      7  C   UNL     1       5.340   5.923  19.105  0.00  0.00    +0.000 C 
ATOM      8  S   UNL     1       6.516   6.457  17.876  0.00  0.00    +0.000 S 
ATOM      9  O   UNL     1       7.853   6.219  18.396  0.00  0.00    +0.000 OA
ATOM     10  O   UNL     1       6.134   7.764  17.375  0.00  0.00    +0.000 OA
ATOM     11  C   UNL     1       6.306   5.322  16.505  0.00  0.00    +0.000 A 
ATOM     12  C   UNL     1       7.359   5.216  15.587  0.00  0.00    +0.000 A 
ATOM     13  C   UNL     1       7.180   4.470  14.427  0.00  0.00    +0.000 A 
ATOM     14  C   UNL     1       5.953   3.859  14.181  0.00  0.00    +0.000 A 
ATOM     15  C   UNL     1       4.916   3.942  15.121  0.00  0.00    +0.000 A 
ATOM     16  C   UNL     1       5.091   4.633  16.325  0.00  0.00    +0.000 A 
ENDROOT
BRANCH   1  18
ATOM     17  N   UNL     1       2.082   8.109  18.951  0.00  0.00    +0.000 N 
ATOM     18  C   UNL     1       2.155   6.884  19.596  0.00  0.00    +0.000 C 
ATOM     19  O   UNL     1       1.829   6.719  20.763  0.00  0.00    +0.000 OA
ATOM     20  H   UNL     1       2.223   8.102  17.949  0.00  0.00    +0.000 HD
BRANCH  17  21
ATOM     21  C   UNL     1       1.620   9.290  19.651  0.00  0.00    +0.000 C 
BRANCH  21  25
ATOM     22  C   UNL     1      -2.158  10.896  18.155  0.00  0.00    +0.000 A 
ATOM     23  C   UNL     1      -1.395   9.982  17.413  0.00  0.00    +0.000 A 
ATOM     24  C   UNL     1      -0.178   9.502  17.900  0.00  0.00    +0.000 A 
ATOM     25  C   UNL     1       0.331   9.906  19.144  0.00  0.00    +0.000 A 
ATOM     26  C   UNL     1      -0.455  10.785  19.910  0.00  0.00    +0.000 A 
ATOM     27  C   UNL     1      -1.676  11.274  19.418  0.00  0.00    +0.000 A 
BRANCH  22  29
ATOM     28  C   UNL     1      -3.701  11.086  16.151  0.00  0.00    +0.000 C 
ATOM     29  C   UNL     1      -3.444  11.455  17.604  0.00  0.00    +0.000 C 
ENDBRANCH  22  29
ENDBRANCH  21  25
ENDBRANCH  17  21
ENDBRANCH   1  18
TORSDOF 4
ENDMDL
MODEL 7
REMARK VINA RESULT:      -7.8      1.206      1.731
REMARK  Name = 
REMARK  6 active torsions:
REMARK  status: ('A' for Active; 'I' for Inactive)
REMARK    1  A    between atoms: C_1  and  C_2
REMARK    2  A    between atoms: C_2  and  C_3
REMARK    3  A    between atoms: C_6  and  C_7
REMARK    4  A    between atoms: C_7  and  N_8
REMARK    5  A    between atoms: C_9  and  C_11
REMARK    6  A    between atoms: N_13  and  C_14
REMARK                            x       y       z     vdW  Elec       q    Type
REMARK                         _______ _______ _______ _____ _____    ______ ____
ROOT
ATOM      1  C   UNL     1      -1.625  11.303  18.691  0.00  0.00    +0.000 A 
ATOM      2  N   UNL     1      -2.305  10.696  17.691  0.00  0.00    +0.000 NA
ATOM      3  N   UNL     1      -3.558  11.202  17.809  0.00  0.00    +0.000 N 
ATOM      4  C   UNL     1      -4.349  11.454  16.623  0.00  0.00    +0.000 C 
ATOM      5  C   UNL     1      -3.756  11.788  19.034  0.00  0.00    +0.000 A 
ATOM      6  C   UNL     1      -2.484  12.224  19.355  0.00  0.00    +0.000 A 
ATOM      7  C   UNL     1      -2.243  13.324  20.310  0.00  0.00    +0.000 C 
ATOM      8  S   UNL     1      -3.358  13.238  21.698  0.00  0.00    +0.000 S 
ATOM      9  O   UNL     1      -3.553  14.587  22.204  0.00  0.00    +0.000 OA
ATOM     10  O   UNL     1      -2.950  12.163  22.582  0.00  0.00    +0.000 OA
ATOM     11  C   UNL     1      -4.931  12.735  21.003  0.00  0.00    +0.000 A 
ATOM     12  C   UNL     1      -6.083  12.994  21.757  0.00  0.00    +0.000 A 
ATOM     13  C   UNL     1      -7.306  12.483  21.332  0.00  0.00    +0.000 A 
ATOM     14  C   UNL     1      -7.366  11.704  20.179  0.00  0.00    +0.000 A 
ATOM     15  C   UNL     1      -6.215  11.479  19.412  0.00  0.00    +0.000 A 
ATOM     16  C   UNL     1      -4.984  12.035  19.783  0.00  0.00    +0.000 A 
ENDROOT
BRANCH   1  18
ATOM     17  N   UNL     1       0.445  10.250  18.040  0.00  0.00    +0.000 N 
ATOM     18  C   UNL     1      -0.224  10.962  19.023  0.00  0.00    +0.000 C 
ATOM     19  O   UNL     1       0.280  11.261  20.096  0.00  0.00    +0.000 OA
ATOM     20  H   UNL     1      -0.004  10.196  17.134  0.00  0.00    +0.000 HD
BRANCH  17  21
ATOM     21  C   UNL     1       1.805   9.797  18.247  0.00  0.00    +0.000 C 
BRANCH  21  25
ATOM     22  C   UNL     1       2.450   5.676  19.546  0.00  0.00    +0.000 A 
ATOM     23  C   UNL     1       2.715   6.089  18.232  0.00  0.00    +0.000 A 
ATOM     24  C   UNL     1       2.478   7.405  17.833  0.00  0.00    +0.000 A 
ATOM     25  C   UNL     1       1.969   8.366  18.721  0.00  0.00    +0.000 A 
ATOM     26  C   UNL     1       1.747   7.965  20.050  0.00  0.00    +0.000 A 
ATOM     27  C   UNL     1       1.979   6.640  20.451  0.00  0.00    +0.000 A 
BRANCH  22  29
ATOM     28  C   UNL     1       2.040   3.898  21.309  0.00  0.00    +0.000 C 
ATOM     29  C   UNL     1       2.656   4.241  19.961  0.00  0.00    +0.000 C 
ENDBRANCH  22  29
ENDBRANCH  21  25
ENDBRANCH  17  21
ENDBRANCH   1  18
TORSDOF 4
ENDMDL
MODEL 8
REMARK VINA RESULT:      -7.8      3.474      4.882
REMARK  Name = 
REMARK  6 active torsions:
REMARK  status: ('A' for Active; 'I' for Inactive)
REMARK    1  A    between atoms: C_1  and  C_2
REMARK    2  A    between atoms: C_2  and  C_3
REMARK    3  A    between atoms: C_6  and  C_7
REMARK    4  A    between atoms: C_7  and  N_8
REMARK    5  A    between atoms: C_9  and  C_11
REMARK    6  A    between atoms: N_13  and  C_14
REMARK                            x       y       z     vdW  Elec       q    Type
REMARK                         _______ _______ _______ _____ _____    ______ ____
ROOT
ATOM      1  C   UNL     1       1.806   8.925  19.061  0.00  0.00    +0.000 A 
ATOM      2  N   UNL     1       1.773   9.863  18.087  0.00  0.00    +0.000 NA
ATOM      3  N   UNL     1       1.330  10.972  18.731  0.00  0.00    +0.000 N 
ATOM      4  C   UNL     1       1.837  12.275  18.358  0.00  0.00    +0.000 C 
ATOM      5  C   UNL     1       0.752  10.661  19.937  0.00  0.00    +0.000 A 
ATOM      6  C   UNL     1       1.439   9.519  20.302  0.00  0.00    +0.000 A 
ATOM      7  C   UNL     1       1.549   9.077  21.706  0.00  0.00    +0.000 C 
ATOM      8  S   UNL     1       0.019   9.323  22.587  0.00  0.00    +0.000 S 
ATOM      9  O   UNL     1       0.335   9.522  23.993  0.00  0.00    +0.000 OA
ATOM     10  O   UNL     1      -0.944   8.318  22.176  0.00  0.00    +0.000 OA
ATOM     11  C   UNL     1      -0.616  10.889  21.994  0.00  0.00    +0.000 A 
ATOM     12  C   UNL     1      -1.560  11.548  22.792  0.00  0.00    +0.000 A 
ATOM     13  C   UNL     1      -2.196  12.684  22.301  0.00  0.00    +0.000 A 
ATOM     14  C   UNL     1      -1.904  13.137  21.016  0.00  0.00    +0.000 A 
ATOM     15  C   UNL     1      -0.934  12.492  20.237  0.00  0.00    +0.000 A 
ATOM     16  C   UNL     1      -0.234  11.385  20.732  0.00  0.00    +0.000 A 
ENDROOT
BRANCH   1  18
ATOM     17  N   UNL     1       3.105   6.967  19.606  0.00  0.00    +0.000 N 
ATOM     18  C   UNL     1       2.122   7.505  18.789  0.00  0.00    +0.000 C 
ATOM     19  O   UNL     1       1.579   6.879  17.890  0.00  0.00    +0.000 OA
ATOM     20  H   UNL     1       3.371   7.514  20.414  0.00  0.00    +0.000 HD
BRANCH  17  21
ATOM     21  C   UNL     1       3.560   5.604  19.419  0.00  0.00    +0.000 C 
BRANCH  21  25
ATOM     22  C   UNL     1       5.919   4.847  15.820  0.00  0.00    +0.000 A 
ATOM     23  C   UNL     1       4.935   3.951  16.264  0.00  0.00    +0.000 A 
ATOM     24  C   UNL     1       4.212   4.202  17.431  0.00  0.00    +0.000 A 
ATOM     25  C   UNL     1       4.432   5.352  18.205  0.00  0.00    +0.000 A 
ATOM     26  C   UNL     1       5.385   6.273  17.736  0.00  0.00    +0.000 A 
ATOM     27  C   UNL     1       6.118   6.019  16.566  0.00  0.00    +0.000 A 
BRANCH  22  29
ATOM     28  C   UNL     1       5.958   3.839  13.493  0.00  0.00    +0.000 C 
ATOM     29  C   UNL     1       6.737   4.548  14.590  0.00  0.00    +0.000 C 
ENDBRANCH  22  29
ENDBRANCH  21  25
ENDBRANCH  17  21
ENDBRANCH   1  18
TORSDOF 4
ENDMDL
MODEL 9
REMARK VINA RESULT:      -7.7      1.613      2.212
REMARK  Name = 
REMARK  6 active torsions:
REMARK  status: ('A' for Active; 'I' for Inactive)
REMARK    1  A    between atoms: C_1  and  C_2
REMARK    2  A    between atoms: C_2  and  C_3
REMARK    3  A    between atoms: C_6  and  C_7
REMARK    4  A    between atoms: C_7  and  N_8
REMARK    5  A    between atoms: C_9  and  C_11
REMARK    6  A    between atoms: N_13  and  C_14
REMARK                            x       y       z     vdW  Elec       q    Type
REMARK                         _______ _______ _______ _____ _____    ______ ____
ROOT
ATOM      1  C   UNL     1      -0.127  10.314  18.289  0.00  0.00    +0.000 A 
ATOM      2  N   UNL     1      -1.201   9.940  17.556  0.00  0.00    +0.000 NA
ATOM      3  N   UNL     1      -2.106  10.920  17.800  0.00  0.00    +0.000 N 
ATOM      4  C   UNL     1      -3.001  11.353  16.748  0.00  0.00    +0.000 C 
ATOM      5  C   UNL     1      -1.773  11.655  18.911  0.00  0.00    +0.000 A 
ATOM      6  C   UNL     1      -0.393  11.566  18.913  0.00  0.00    +0.000 A 
ATOM      7  C   UNL     1       0.462  12.561  19.589  0.00  0.00    +0.000 C 
ATOM      8  S   UNL     1      -0.241  13.075  21.145  0.00  0.00    +0.000 S 
ATOM      9  O   UNL     1       0.211  14.430  21.419  0.00  0.00    +0.000 OA
ATOM     10  O   UNL     1      -0.068  12.020  22.126  0.00  0.00    +0.000 OA
ATOM     11  C   UNL     1      -2.004  13.189  20.847  0.00  0.00    +0.000 A 
ATOM     12  C   UNL     1      -2.760  13.966  21.733  0.00  0.00    +0.000 A 
ATOM     13  C   UNL     1      -4.148  13.958  21.635  0.00  0.00    +0.000 A 
ATOM     14  C   UNL     1      -4.767  13.160  20.676  0.00  0.00    +0.000 A 
ATOM     15  C   UNL     1      -4.002  12.411  19.771  0.00  0.00    +0.000 A 
ATOM     16  C   UNL     1      -2.603  12.452  19.807  0.00  0.00    +0.000 A 
ENDROOT
BRANCH   1  18
ATOM     17  N   UNL     1       1.140   8.730  19.596  0.00  0.00    +0.000 N 
ATOM     18  C   UNL     1       1.080   9.468  18.424  0.00  0.00    +0.000 C 
ATOM     19  O   UNL     1       1.962   9.456  17.577  0.00  0.00    +0.000 OA
ATOM     20  H   UNL     1       0.292   8.687  20.148  0.00  0.00    +0.000 HD
BRANCH  17  21
ATOM     21  C   UNL     1       2.289   7.900  19.892  0.00  0.00    +0.000 C 
BRANCH  21  25
ATOM     22  C   UNL     1       2.156   3.709  18.665  0.00  0.00    +0.000 A 
ATOM     23  C   UNL     1       2.526   4.730  17.777  0.00  0.00    +0.000 A 
ATOM     24  C   UNL     1       2.536   6.065  18.185  0.00  0.00    +0.000 A 
ATOM     25  C   UNL     1       2.183   6.442  19.490  0.00  0.00    +0.000 A 
ATOM     26  C   UNL     1       1.858   5.416  20.394  0.00  0.00    +0.000 A 
ATOM     27  C   UNL     1       1.840   4.073  19.983  0.00  0.00    +0.000 A 
BRANCH  22  29
ATOM     28  C   UNL     1       3.400   1.516  18.384  0.00  0.00    +0.000 C 
ATOM     29  C   UNL     1       2.093   2.274  18.209  0.00  0.00    +0.000 C 
ENDBRANCH  22  29
ENDBRANCH  21  25
ENDBRANCH  17  21
ENDBRANCH   1  18
TORSDOF 4
ENDMDL
