MODEL 1
REMARK VINA RESULT:      -7.5      0.000      0.000
REMARK  Name = 
REMARK  9 active torsions:
REMARK  status: ('A' for Active; 'I' for Inactive)
REMARK    1  A    between atoms: C_1  and  O_2
REMARK    2  A    between atoms: O_2  and  C_3
REMARK    3  A    between atoms: C_8  and  S_9
REMARK    4  A    between atoms: S_9  and  C_10
REMARK    5  A    between atoms: C_10  and  C_11
REMARK    6  A    between atoms: N_13  and  C_14
REMARK    7  A    between atoms: C_15  and  C_16
REMARK    8  A    between atoms: C_18  and  C_19
REMARK    9  A    between atoms: C_21  and  C_22
REMARK                            x       y       z     vdW  Elec       q    Type
REMARK                         _______ _______ _______ _____ _____    ______ ____
ROOT
ATOM      1  C   UNL     1       2.591   4.139  21.267  0.00  0.00    +0.000 C 
ENDROOT
BRANCH   1   2
ATOM      2  C   UNL     1       1.823   5.298  20.652  0.00  0.00    +0.000 C 
ATOM      3  O   UNL     1       0.666   5.180  20.238  0.00  0.00    +0.000 OA
ATOM      4  N   UNL     1       2.558   6.481  20.549  0.00  0.00    +0.000 N 
ATOM      5  H   UNL     1       3.550   6.362  20.430  0.00  0.00    +0.000 HD
BRANCH   4   6
ATOM      6  C   UNL     1       1.982   7.633  19.945  0.00  0.00    +0.000 A 
ATOM      7  C   UNL     1       1.172   8.525  20.682  0.00  0.00    +0.000 A 
ATOM      8  C   UNL     1       0.929   8.410  22.164  0.00  0.00    +0.000 C 
ATOM      9  C   UNL     1       0.557   9.604  20.019  0.00  0.00    +0.000 A 
ATOM     10  C   UNL     1       0.763   9.833  18.659  0.00  0.00    +0.000 A 
ATOM     11  C   UNL     1       0.086  10.971  17.954  0.00  0.00    +0.000 C 
ATOM     12  C   UNL     1       1.610   8.974  17.952  0.00  0.00    +0.000 A 
ATOM     13  C   UNL     1       2.230   7.879  18.577  0.00  0.00    +0.000 A 
ATOM     14  C   UNL     1       3.067   6.957  17.732  0.00  0.00    +0.000 C 
ENDBRANCH   4   6
ENDBRANCH   1   2
BRANCH   1  15
ATOM     15  S   UNL     1       2.741   2.743  20.109  0.00  0.00    +0.000 S 
BRANCH  15  21
ATOM     16  C   UNL     1       6.636   4.589  15.628  0.00  0.00    +0.000 A 
ATOM     17  C   UNL     1       7.401   5.064  16.698  0.00  0.00    +0.000 A 
ATOM     18  C   UNL     1       6.977   4.925  18.027  0.00  0.00    +0.000 A 
ATOM     19  C   UNL     1       5.757   4.280  18.231  0.00  0.00    +0.000 A 
ATOM     20  N   UNL     1       5.049   3.966  19.366  0.00  0.00    +0.000 N 
ATOM     21  C   UNL     1       3.927   3.289  18.978  0.00  0.00    +0.000 A 
ATOM     22  N   UNL     1       3.830   3.200  17.673  0.00  0.00    +0.000 NA
ATOM     23  C   UNL     1       4.962   3.811  17.187  0.00  0.00    +0.000 A 
ATOM     24  C   UNL     1       5.390   3.992  15.862  0.00  0.00    +0.000 A 
ATOM     25  H   UNL     1       5.302   4.187  20.322  0.00  0.00    +0.000 HD
BRANCH  16  27
ATOM     26  C   UNL     1       6.233   3.912  13.401  0.00  0.00    +0.000 C 
ATOM     27  O   UNL     1       7.008   4.690  14.310  0.00  0.00    +0.000 OA
ENDBRANCH  16  27
ENDBRANCH  15  21
ENDBRANCH   1  15
TORSDOF 5
ENDMDL
MODEL 2
REMARK VINA RESULT:      -7.3      0.557      1.829
REMARK  Name = 
REMARK  9 active torsions:
REMARK  status: ('A' for Active; 'I' for Inactive)
REMARK    1  A    between atoms: C_1  and  O_2
REMARK    2  A    between atoms: O_2  and  C_3
REMARK    3  A    between atoms: C_8  and  S_9
REMARK    4  A    between atoms: S_9  and  C_10
REMARK    5  A    between atoms: C_10  and  C_11
REMARK    6  A    between atoms: N_13  and  C_14
REMARK    7  A    between atoms: C_15  and  C_16
REMARK    8  A    between atoms: C_18  and  C_19
REMARK    9  A    between atoms: C_21  and  C_22
REMARK                            x       y       z     vdW  Elec       q    Type
REMARK                         _______ _______ _______ _____ _____    ______ ____
ROOT
ATOM      1  C   UNL     1       2.529   4.248  21.273  0.00  0.00    +0.000 C 
ENDROOT
BRANCH   1   2
ATOM      2  C   UNL     1       1.757   5.366  20.592  0.00  0.00    +0.000 C 
ATOM      3  O   UNL     1       0.677   5.175  20.026  0.00  0.00    +0.000 OA
ATOM      4  N   UNL     1       2.402   6.605  20.618  0.00  0.00    +0.000 N 
ATOM      5  H   UNL     1       3.407   6.566  20.628  0.00  0.00    +0.000 HD
BRANCH   4   6
ATOM      6  C   UNL     1       1.819   7.730  19.973  0.00  0.00    +0.000 A 
ATOM      7  C   UNL     1       2.117   8.048  18.629  0.00  0.00    +0.000 A 
ATOM      8  C   UNL     1       2.976   7.193  17.735  0.00  0.00    +0.000 C 
ATOM      9  C   UNL     1       1.580   9.219  18.063  0.00  0.00    +0.000 A 
ATOM     10  C   UNL     1       0.727  10.051  18.789  0.00  0.00    +0.000 A 
ATOM     11  C   UNL     1       0.176  11.309  18.186  0.00  0.00    +0.000 C 
ATOM     12  C   UNL     1       0.396   9.697  20.100  0.00  0.00    +0.000 A 
ATOM     13  C   UNL     1       0.924   8.542  20.702  0.00  0.00    +0.000 A 
ATOM     14  C   UNL     1       0.580   8.270  22.142  0.00  0.00    +0.000 C 
ENDBRANCH   4   6
ENDBRANCH   1   2
BRANCH   1  15
ATOM     15  S   UNL     1       2.952   2.916  20.106  0.00  0.00    +0.000 S 
BRANCH  15  21
ATOM     16  C   UNL     1       6.922   5.312  15.964  0.00  0.00    +0.000 A 
ATOM     17  C   UNL     1       7.390   6.042  17.061  0.00  0.00    +0.000 A 
ATOM     18  C   UNL     1       6.821   5.905  18.334  0.00  0.00    +0.000 A 
ATOM     19  C   UNL     1       5.769   4.998  18.456  0.00  0.00    +0.000 A 
ATOM     20  N   UNL     1       4.995   4.608  19.523  0.00  0.00    +0.000 N 
ATOM     21  C   UNL     1       4.131   3.648  19.077  0.00  0.00    +0.000 A 
ATOM     22  N   UNL     1       4.249   3.437  17.788  0.00  0.00    +0.000 NA
ATOM     23  C   UNL     1       5.266   4.269  17.381  0.00  0.00    +0.000 A 
ATOM     24  C   UNL     1       5.830   4.446  16.107  0.00  0.00    +0.000 A 
ATOM     25  H   UNL     1       5.047   4.958  20.473  0.00  0.00    +0.000 HD
BRANCH  16  27
ATOM     26  C   UNL     1       6.836   4.554  13.728  0.00  0.00    +0.000 C 
ATOM     27  O   UNL     1       7.449   5.399  14.699  0.00  0.00    +0.000 OA
ENDBRANCH  16  27
ENDBRANCH  15  21
ENDBRANCH   1  15
TORSDOF 5
ENDMDL
MODEL 3
REMARK VINA RESULT:      -7.2      1.055      2.551
REMARK  Name = 
REMARK  9 active torsions:
REMARK  status: ('A' for Active; 'I' for Inactive)
REMARK    1  A    between atoms: C_1  and  O_2
REMARK    2  A    between atoms: O_2  and  C_3
REMARK    3  A    between atoms: C_8  and  S_9
REMARK    4  A    between atoms: S_9  and  C_10
REMARK    5  A    between atoms: C_10  and  C_11
REMARK    6  A    between atoms: N_13  and  C_14
REMARK    7  A    between atoms: C_15  and  C_16
REMARK    8  A    between atoms: C_18  and  C_19
REMARK    9  A    between atoms: C_21  and  C_22
REMARK                            x       y       z     vdW  Elec       q    Type
REMARK                         _______ _______ _______ _____ _____    ______ ____
ROOT
ATOM      1  C   UNL     1       2.332   4.145  21.490  0.00  0.00    +0.000 C 
ENDROOT
BRANCH   1   2
ATOM      2  C   UNL     1       1.628   5.269  20.748  0.00  0.00    +0.000 C 
ATOM      3  O   UNL     1       0.663   5.069  20.006  0.00  0.00    +0.000 OA
ATOM      4  N   UNL     1       2.203   6.528  20.938  0.00  0.00    +0.000 N 
ATOM      5  H   UNL     1       3.193   6.526  21.110  0.00  0.00    +0.000 HD
BRANCH   4   6
ATOM      6  C   UNL     1       1.678   7.665  20.262  0.00  0.00    +0.000 A 
ATOM      7  C   UNL     1       2.050   7.970  18.934  0.00  0.00    +0.000 A 
ATOM      8  C   UNL     1       2.931   7.091  18.086  0.00  0.00    +0.000 C 
ATOM      9  C   UNL     1       1.569   9.151  18.339  0.00  0.00    +0.000 A 
ATOM     10  C   UNL     1       0.702  10.006  19.020  0.00  0.00    +0.000 A 
ATOM     11  C   UNL     1       0.212  11.275  18.388  0.00  0.00    +0.000 C 
ATOM     12  C   UNL     1       0.299   9.665  20.314  0.00  0.00    +0.000 A 
ATOM     13  C   UNL     1       0.769   8.501  20.945  0.00  0.00    +0.000 A 
ATOM     14  C   UNL     1       0.349   8.242  22.367  0.00  0.00    +0.000 C 
ENDBRANCH   4   6
ENDBRANCH   1   2
BRANCH   1  15
ATOM     15  S   UNL     1       2.867   2.824  20.358  0.00  0.00    +0.000 S 
BRANCH  15  21
ATOM     16  C   UNL     1       6.855   6.000  16.800  0.00  0.00    +0.000 A 
ATOM     17  C   UNL     1       6.274   5.270  15.759  0.00  0.00    +0.000 A 
ATOM     18  C   UNL     1       5.259   4.332  15.994  0.00  0.00    +0.000 A 
ATOM     19  C   UNL     1       4.851   4.168  17.318  0.00  0.00    +0.000 A 
ATOM     20  N   UNL     1       3.904   3.366  17.907  0.00  0.00    +0.000 N 
ATOM     21  C   UNL     1       3.898   3.648  19.244  0.00  0.00    +0.000 A 
ATOM     22  N   UNL     1       4.816   4.527  19.568  0.00  0.00    +0.000 NA
ATOM     23  C   UNL     1       5.422   4.866  18.380  0.00  0.00    +0.000 A 
ATOM     24  C   UNL     1       6.460   5.777  18.126  0.00  0.00    +0.000 A 
ATOM     25  H   UNL     1       3.309   2.687  17.447  0.00  0.00    +0.000 HD
BRANCH  16  27
ATOM     26  C   UNL     1       7.735   8.093  17.453  0.00  0.00    +0.000 C 
ATOM     27  O   UNL     1       7.843   6.938  16.626  0.00  0.00    +0.000 OA
ENDBRANCH  16  27
ENDBRANCH  15  21
ENDBRANCH   1  15
TORSDOF 5
ENDMDL
MODEL 4
REMARK VINA RESULT:      -7.1      2.941      7.304
REMARK  Name = 
REMARK  9 active torsions:
REMARK  status: ('A' for Active; 'I' for Inactive)
REMARK    1  A    between atoms: C_1  and  O_2
REMARK    2  A    between atoms: O_2  and  C_3
REMARK    3  A    between atoms: C_8  and  S_9
REMARK    4  A    between atoms: S_9  and  C_10
REMARK    5  A    between atoms: C_10  and  C_11
REMARK    6  A    between atoms: N_13  and  C_14
REMARK    7  A    between atoms: C_15  and  C_16
REMARK    8  A    between atoms: C_18  and  C_19
REMARK    9  A    between atoms: C_21  and  C_22
REMARK                            x       y       z     vdW  Elec       q    Type
REMARK                         _______ _______ _______ _____ _____    ______ ____
ROOT
ATOM      1  C   UNL     1       7.658   7.123  17.447  0.00  0.00    +0.000 C 
ENDROOT
BRANCH   1   2
ATOM      2  C   UNL     1       6.912   6.542  16.257  0.00  0.00    +0.000 C 
ATOM      3  O   UNL     1       5.813   6.969  15.893  0.00  0.00    +0.000 OA
ATOM      4  N   UNL     1       7.552   5.456  15.655  0.00  0.00    +0.000 N 
ATOM      5  H   UNL     1       8.115   4.894  16.269  0.00  0.00    +0.000 HD
BRANCH   4   6
ATOM      6  C   UNL     1       6.941   4.780  14.562  0.00  0.00    +0.000 A 
ATOM      7  C   UNL     1       5.834   3.923  14.749  0.00  0.00    +0.000 A 
ATOM      8  C   UNL     1       5.140   3.725  16.071  0.00  0.00    +0.000 C 
ATOM      9  C   UNL     1       5.320   3.213  13.648  0.00  0.00    +0.000 A 
ATOM     10  C   UNL     1       5.855   3.368  12.370  0.00  0.00    +0.000 A 
ATOM     11  C   UNL     1       5.316   2.591  11.205  0.00  0.00    +0.000 C 
ATOM     12  C   UNL     1       6.916   4.261  12.188  0.00  0.00    +0.000 A 
ATOM     13  C   UNL     1       7.464   4.977  13.265  0.00  0.00    +0.000 A 
ATOM     14  C   UNL     1       8.654   5.860  13.001  0.00  0.00    +0.000 C 
ENDBRANCH   4   6
ENDBRANCH   1   2
BRANCH   1  15
ATOM     15  S   UNL     1       7.762   5.933  18.821  0.00  0.00    +0.000 S 
BRANCH  15  21
ATOM     16  C   UNL     1       2.066   3.689  19.907  0.00  0.00    +0.000 A 
ATOM     17  C   UNL     1       1.646   4.885  19.318  0.00  0.00    +0.000 A 
ATOM     18  C   UNL     1       2.562   5.843  18.862  0.00  0.00    +0.000 A 
ATOM     19  C   UNL     1       3.915   5.541  19.017  0.00  0.00    +0.000 A 
ATOM     20  N   UNL     1       5.064   6.220  18.690  0.00  0.00    +0.000 N 
ATOM     21  C   UNL     1       6.123   5.429  19.035  0.00  0.00    +0.000 A 
ATOM     22  N   UNL     1       5.741   4.317  19.618  0.00  0.00    +0.000 NA
ATOM     23  C   UNL     1       4.366   4.367  19.616  0.00  0.00    +0.000 A 
ATOM     24  C   UNL     1       3.431   3.436  20.096  0.00  0.00    +0.000 A 
ATOM     25  H   UNL     1       5.129   7.138  18.267  0.00  0.00    +0.000 HD
BRANCH  16  27
ATOM     26  C   UNL     1       1.354   2.378  21.739  0.00  0.00    +0.000 C 
ATOM     27  O   UNL     1       1.213   2.713  20.360  0.00  0.00    +0.000 OA
ENDBRANCH  16  27
ENDBRANCH  15  21
ENDBRANCH   1  15
TORSDOF 5
ENDMDL
MODEL 5
REMARK VINA RESULT:      -7.0      2.850      7.304
REMARK  Name = 
REMARK  9 active torsions:
REMARK  status: ('A' for Active; 'I' for Inactive)
REMARK    1  A    between atoms: C_1  and  O_2
REMARK    2  A    between atoms: O_2  and  C_3
REMARK    3  A    between atoms: C_8  and  S_9
REMARK    4  A    between atoms: S_9  and  C_10
REMARK    5  A    between atoms: C_10  and  C_11
REMARK    6  A    between atoms: N_13  and  C_14
REMARK    7  A    between atoms: C_15  and  C_16
REMARK    8  A    between atoms: C_18  and  C_19
REMARK    9  A    between atoms: C_21  and  C_22
REMARK                            x       y       z     vdW  Elec       q    Type
REMARK                         _______ _______ _______ _____ _____    ______ ____
ROOT
ATOM      1  C   UNL     1       7.644   6.980  17.561  0.00  0.00    +0.000 C 
ENDROOT
BRANCH   1   2
ATOM      2  C   UNL     1       6.912   6.448  16.340  0.00  0.00    +0.000 C 
ATOM      3  O   UNL     1       5.821   6.896  15.975  0.00  0.00    +0.000 OA
ATOM      4  N   UNL     1       7.553   5.380  15.708  0.00  0.00    +0.000 N 
ATOM      5  H   UNL     1       8.103   4.792  16.311  0.00  0.00    +0.000 HD
BRANCH   4   6
ATOM      6  C   UNL     1       6.955   4.749  14.582  0.00  0.00    +0.000 A 
ATOM      7  C   UNL     1       7.427   4.978  13.271  0.00  0.00    +0.000 A 
ATOM      8  C   UNL     1       8.642   5.807  12.949  0.00  0.00    +0.000 C 
ATOM      9  C   UNL     1       6.749   4.396  12.184  0.00  0.00    +0.000 A 
ATOM     10  C   UNL     1       5.644   3.566  12.377  0.00  0.00    +0.000 A 
ATOM     11  C   UNL     1       4.913   2.968  11.212  0.00  0.00    +0.000 C 
ATOM     12  C   UNL     1       5.220   3.303  13.683  0.00  0.00    +0.000 A 
ATOM     13  C   UNL     1       5.865   3.877  14.792  0.00  0.00    +0.000 A 
ATOM     14  C   UNL     1       5.302   3.607  16.161  0.00  0.00    +0.000 C 
ENDBRANCH   4   6
ENDBRANCH   1   2
BRANCH   1  15
ATOM     15  S   UNL     1       7.741   5.731  18.882  0.00  0.00    +0.000 S 
BRANCH  15  21
ATOM     16  C   UNL     1       1.985   3.622  19.919  0.00  0.00    +0.000 A 
ATOM     17  C   UNL     1       1.637   4.973  19.832  0.00  0.00    +0.000 A 
ATOM     18  C   UNL     1       2.597   5.969  19.605  0.00  0.00    +0.000 A 
ATOM     19  C   UNL     1       3.918   5.544  19.461  0.00  0.00    +0.000 A 
ATOM     20  N   UNL     1       5.092   6.220  19.228  0.00  0.00    +0.000 N 
ATOM     21  C   UNL     1       6.090   5.291  19.136  0.00  0.00    +0.000 A 
ATOM     22  N   UNL     1       5.655   4.073  19.357  0.00  0.00    +0.000 NA
ATOM     23  C   UNL     1       4.301   4.209  19.561  0.00  0.00    +0.000 A 
ATOM     24  C   UNL     1       3.327   3.232  19.822  0.00  0.00    +0.000 A 
ATOM     25  H   UNL     1       5.210   7.221  19.135  0.00  0.00    +0.000 HD
BRANCH  16  27
ATOM     26  C   UNL     1       0.606   1.967  18.948  0.00  0.00    +0.000 C 
ATOM     27  O   UNL     1       1.086   2.606  20.129  0.00  0.00    +0.000 OA
ENDBRANCH  16  27
ENDBRANCH  15  21
ENDBRANCH   1  15
TORSDOF 5
ENDMDL
MODEL 6
REMARK VINA RESULT:      -6.9      3.975      8.779
REMARK  Name = 
REMARK  9 active torsions:
REMARK  status: ('A' for Active; 'I' for Inactive)
REMARK    1  A    between atoms: C_1  and  O_2
REMARK    2  A    between atoms: O_2  and  C_3
REMARK    3  A    between atoms: C_8  and  S_9
REMARK    4  A    between atoms: S_9  and  C_10
REMARK    5  A    between atoms: C_10  and  C_11
REMARK    6  A    between atoms: N_13  and  C_14
REMARK    7  A    between atoms: C_15  and  C_16
REMARK    8  A    between atoms: C_18  and  C_19
REMARK    9  A    between atoms: C_21  and  C_22
REMARK                            x       y       z     vdW  Elec       q    Type
REMARK                         _______ _______ _______ _____ _____    ______ ____
ROOT
ATOM      1  C   UNL     1       2.127   9.632  18.252  0.00  0.00    +0.000 C 
ENDROOT
BRANCH   1   2
ATOM      2  C   UNL     1       2.084   8.132  18.010  0.00  0.00    +0.000 C 
ATOM      3  O   UNL     1       1.158   7.586  17.404  0.00  0.00    +0.000 OA
ATOM      4  N   UNL     1       3.149   7.430  18.580  0.00  0.00    +0.000 N 
ATOM      5  H   UNL     1       3.532   7.836  19.417  0.00  0.00    +0.000 HD
BRANCH   4   6
ATOM      6  C   UNL     1       3.210   6.013  18.478  0.00  0.00    +0.000 A 
ATOM      7  C   UNL     1       2.534   5.177  19.394  0.00  0.00    +0.000 A 
ATOM      8  C   UNL     1       1.620   5.686  20.478  0.00  0.00    +0.000 C 
ATOM      9  C   UNL     1       2.694   3.782  19.301  0.00  0.00    +0.000 A 
ATOM     10  C   UNL     1       3.474   3.206  18.299  0.00  0.00    +0.000 A 
ATOM     11  C   UNL     1       3.659   1.720  18.219  0.00  0.00    +0.000 C 
ATOM     12  C   UNL     1       4.094   4.042  17.365  0.00  0.00    +0.000 A 
ATOM     13  C   UNL     1       3.968   5.439  17.435  0.00  0.00    +0.000 A 
ATOM     14  C   UNL     1       4.728   6.274  16.439  0.00  0.00    +0.000 C 
ENDBRANCH   4   6
ENDBRANCH   1   2
BRANCH   1  15
ATOM     15  S   UNL     1       1.007  10.128  19.599  0.00  0.00    +0.000 S 
BRANCH  15  21
ATOM     16  C   UNL     1      -4.531  11.485  17.120  0.00  0.00    +0.000 A 
ATOM     17  C   UNL     1      -4.001  10.876  15.978  0.00  0.00    +0.000 A 
ATOM     18  C   UNL     1      -2.698  10.360  15.957  0.00  0.00    +0.000 A 
ATOM     19  C   UNL     1      -1.958  10.475  17.134  0.00  0.00    +0.000 A 
ATOM     20  N   UNL     1      -0.685  10.086  17.474  0.00  0.00    +0.000 N 
ATOM     21  C   UNL     1      -0.490  10.416  18.786  0.00  0.00    +0.000 A 
ATOM     22  N   UNL     1      -1.521  11.045  19.296  0.00  0.00    +0.000 NA
ATOM     23  C   UNL     1      -2.450  11.092  18.282  0.00  0.00    +0.000 A 
ATOM     24  C   UNL     1      -3.746  11.633  18.271  0.00  0.00    +0.000 A 
ATOM     25  H   UNL     1      -0.005   9.634  16.874  0.00  0.00    +0.000 HD
BRANCH  16  27
ATOM     26  C   UNL     1      -6.664  11.341  18.126  0.00  0.00    +0.000 C 
ATOM     27  O   UNL     1      -5.802  11.998  17.200  0.00  0.00    +0.000 OA
ENDBRANCH  16  27
ENDBRANCH  15  21
ENDBRANCH   1  15
TORSDOF 5
ENDMDL
MODEL 7
REMARK VINA RESULT:      -6.8      5.673      7.249
REMARK  Name = 
REMARK  9 active torsions:
REMARK  status: ('A' for Active; 'I' for Inactive)
REMARK    1  A    between atoms: C_1  and  O_2
REMARK    2  A    between atoms: O_2  and  C_3
REMARK    3  A    between atoms: C_8  and  S_9
REMARK    4  A    between atoms: S_9  and  C_10
REMARK    5  A    between atoms: C_10  and  C_11
REMARK    6  A    between atoms: N_13  and  C_14
REMARK    7  A    between atoms: C_15  and  C_16
REMARK    8  A    between atoms: C_18  and  C_19
REMARK    9  A    between atoms: C_21  and  C_22
REMARK                            x       y       z     vdW  Elec       q    Type
REMARK                         _______ _______ _______ _____ _____    ______ ____
ROOT
ATOM      1  C   UNL     1       7.655   6.497  18.712  0.00  0.00    +0.000 C 
ENDROOT
BRANCH   1   2
ATOM      2  C   UNL     1       6.441   5.611  18.939  0.00  0.00    +0.000 C 
ATOM      3  O   UNL     1       6.429   4.706  19.777  0.00  0.00    +0.000 OA
ATOM      4  N   UNL     1       5.371   5.877  18.081  0.00  0.00    +0.000 N 
ATOM      5  H   UNL     1       5.624   6.231  17.174  0.00  0.00    +0.000 HD
BRANCH   4   6
ATOM      6  C   UNL     1       4.188   5.090  18.145  0.00  0.00    +0.000 A 
ATOM      7  C   UNL     1       3.099   5.459  18.965  0.00  0.00    +0.000 A 
ATOM      8  C   UNL     1       3.038   6.742  19.753  0.00  0.00    +0.000 C 
ATOM      9  C   UNL     1       1.986   4.603  19.058  0.00  0.00    +0.000 A 
ATOM     10  C   UNL     1       1.918   3.418  18.326  0.00  0.00    +0.000 A 
ATOM     11  C   UNL     1       0.739   2.499  18.448  0.00  0.00    +0.000 C 
ATOM     12  C   UNL     1       2.979   3.090  17.476  0.00  0.00    +0.000 A 
ATOM     13  C   UNL     1       4.112   3.914  17.368  0.00  0.00    +0.000 A 
ATOM     14  C   UNL     1       5.245   3.454  16.490  0.00  0.00    +0.000 C 
ENDBRANCH   4   6
ENDBRANCH   1   2
BRANCH   1  15
ATOM     15  S   UNL     1       7.354   7.731  17.408  0.00  0.00    +0.000 S 
BRANCH  15  21
ATOM     16  C   UNL     1      10.099  13.056  19.070  0.00  0.00    +0.000 A 
ATOM     17  C   UNL     1      10.579  12.298  20.142  0.00  0.00    +0.000 A 
ATOM     18  C   UNL     1      10.249  10.944  20.294  0.00  0.00    +0.000 A 
ATOM     19  C   UNL     1       9.425  10.387  19.317  0.00  0.00    +0.000 A 
ATOM     20  N   UNL     1       8.915   9.123  19.141  0.00  0.00    +0.000 N 
ATOM     21  C   UNL     1       8.196   9.127  17.979  0.00  0.00    +0.000 A 
ATOM     22  N   UNL     1       8.153  10.317  17.428  0.00  0.00    +0.000 NA
ATOM     23  C   UNL     1       8.915  11.118  18.247  0.00  0.00    +0.000 A 
ATOM     24  C   UNL     1       9.231  12.481  18.133  0.00  0.00    +0.000 A 
ATOM     25  H   UNL     1       9.043   8.324  19.750  0.00  0.00    +0.000 HD
BRANCH  16  27
ATOM     26  C   UNL     1       9.329  15.172  18.355  0.00  0.00    +0.000 C 
ATOM     27  O   UNL     1      10.398  14.381  18.867  0.00  0.00    +0.000 OA
ENDBRANCH  16  27
ENDBRANCH  15  21
ENDBRANCH   1  15
TORSDOF 5
ENDMDL
MODEL 8
REMARK VINA RESULT:      -6.7      2.895      5.087
REMARK  Name = 
REMARK  9 active torsions:
REMARK  status: ('A' for Active; 'I' for Inactive)
REMARK    1  A    between atoms: C_1  and  O_2
REMARK    2  A    between atoms: O_2  and  C_3
REMARK    3  A    between atoms: C_8  and  S_9
REMARK    4  A    between atoms: S_9  and  C_10
REMARK    5  A    between atoms: C_10  and  C_11
REMARK    6  A    between atoms: N_13  and  C_14
REMARK    7  A    between atoms: C_15  and  C_16
REMARK    8  A    between atoms: C_18  and  C_19
REMARK    9  A    between atoms: C_21  and  C_22
REMARK                            x       y       z     vdW  Elec       q    Type
REMARK                         _______ _______ _______ _____ _____    ______ ____
ROOT
ATOM      1  C   UNL     1       5.887   6.795  17.556  0.00  0.00    +0.000 C 
ENDROOT
BRANCH   1   2
ATOM      2  C   UNL     1       5.181   5.983  18.629  0.00  0.00    +0.000 C 
ATOM      3  O   UNL     1       5.741   5.637  19.673  0.00  0.00    +0.000 OA
ATOM      4  N   UNL     1       3.872   5.620  18.303  0.00  0.00    +0.000 N 
ATOM      5  H   UNL     1       3.691   5.498  17.322  0.00  0.00    +0.000 HD
BRANCH   4   6
ATOM      6  C   UNL     1       3.109   4.814  19.193  0.00  0.00    +0.000 A 
ATOM      7  C   UNL     1       2.280   5.388  20.182  0.00  0.00    +0.000 A 
ATOM      8  C   UNL     1       2.043   6.869  20.324  0.00  0.00    +0.000 C 
ATOM      9  C   UNL     1       1.611   4.548  21.092  0.00  0.00    +0.000 A 
ATOM     10  C   UNL     1       1.718   3.160  21.012  0.00  0.00    +0.000 A 
ATOM     11  C   UNL     1       1.020   2.271  21.999  0.00  0.00    +0.000 C 
ATOM     12  C   UNL     1       2.499   2.602  19.994  0.00  0.00    +0.000 A 
ATOM     13  C   UNL     1       3.191   3.410  19.077  0.00  0.00    +0.000 A 
ATOM     14  C   UNL     1       4.071   2.736  18.058  0.00  0.00    +0.000 C 
ENDBRANCH   4   6
ENDBRANCH   1   2
BRANCH   1  15
ATOM     15  S   UNL     1       7.434   6.000  17.020  0.00  0.00    +0.000 S 
BRANCH  15  21
ATOM     16  C   UNL     1       5.338   3.166  11.898  0.00  0.00    +0.000 A 
ATOM     17  C   UNL     1       6.537   3.619  11.339  0.00  0.00    +0.000 A 
ATOM     18  C   UNL     1       7.457   4.372  12.081  0.00  0.00    +0.000 A 
ATOM     19  C   UNL     1       7.123   4.640  13.408  0.00  0.00    +0.000 A 
ATOM     20  N   UNL     1       7.769   5.324  14.410  0.00  0.00    +0.000 N 
ATOM     21  C   UNL     1       6.995   5.237  15.533  0.00  0.00    +0.000 A 
ATOM     22  N   UNL     1       5.869   4.602  15.310  0.00  0.00    +0.000 NA
ATOM     23  C   UNL     1       5.929   4.220  13.990  0.00  0.00    +0.000 A 
ATOM     24  C   UNL     1       5.006   3.496  13.218  0.00  0.00    +0.000 A 
ATOM     25  H   UNL     1       8.657   5.806  14.344  0.00  0.00    +0.000 HD
BRANCH  16  27
ATOM     26  C   UNL     1       3.430   3.169  10.504  0.00  0.00    +0.000 C 
ATOM     27  O   UNL     1       4.407   2.418  11.221  0.00  0.00    +0.000 OA
ENDBRANCH  16  27
ENDBRANCH  15  21
ENDBRANCH   1  15
TORSDOF 5
ENDMDL
MODEL 9
REMARK VINA RESULT:      -6.6      6.997      8.784
REMARK  Name = 
REMARK  9 active torsions:
REMARK  status: ('A' for Active; 'I' for Inactive)
REMARK    1  A    between atoms: C_1  and  O_2
REMARK    2  A    between atoms: O_2  and  C_3
REMARK    3  A    between atoms: C_8  and  S_9
REMARK    4  A    between atoms: S_9  and  C_10
REMARK    5  A    between atoms: C_10  and  C_11
REMARK    6  A    between atoms: N_13  and  C_14
REMARK    7  A    between atoms: C_15  and  C_16
REMARK    8  A    between atoms: C_18  and  C_19
REMARK    9  A    between atoms: C_21  and  C_22
REMARK                            x       y       z     vdW  Elec       q    Type
REMARK                         _______ _______ _______ _____ _____    ______ ____
ROOT
ATOM      1  C   UNL     1       8.089   8.794  17.474  0.00  0.00    +0.000 C 
ENDROOT
BRANCH   1   2
ATOM      2  C   UNL     1       7.242   7.555  17.712  0.00  0.00    +0.000 C 
ATOM      3  O   UNL     1       7.501   6.737  18.599  0.00  0.00    +0.000 OA
ATOM      4  N   UNL     1       6.187   7.401  16.810  0.00  0.00    +0.000 N 
ATOM      5  H   UNL     1       6.347   7.783  15.893  0.00  0.00    +0.000 HD
BRANCH   4   6
ATOM      6  C   UNL     1       5.343   6.258  16.882  0.00  0.00    +0.000 A 
ATOM      7  C   UNL     1       4.081   6.312  17.515  0.00  0.00    +0.000 A 
ATOM      8  C   UNL     1       3.473   7.573  18.069  0.00  0.00    +0.000 C 
ATOM      9  C   UNL     1       3.320   5.134  17.633  0.00  0.00    +0.000 A 
ATOM     10  C   UNL     1       3.768   3.924  17.104  0.00  0.00    +0.000 A 
ATOM     11  C   UNL     1       2.962   2.668  17.254  0.00  0.00    +0.000 C 
ATOM     12  C   UNL     1       4.994   3.896  16.433  0.00  0.00    +0.000 A 
ATOM     13  C   UNL     1       5.787   5.049  16.306  0.00  0.00    +0.000 A 
ATOM     14  C   UNL     1       7.129   4.920  15.636  0.00  0.00    +0.000 C 
ENDBRANCH   4   6
ENDBRANCH   1   2
BRANCH   1  15
ATOM     15  S   UNL     1       8.925   9.340  18.996  0.00  0.00    +0.000 S 
BRANCH  15  21
ATOM     16  C   UNL     1      10.796  15.187  18.009  0.00  0.00    +0.000 A 
ATOM     17  C   UNL     1      11.529  14.616  16.963  0.00  0.00    +0.000 A 
ATOM     18  C   UNL     1      11.495  13.238  16.706  0.00  0.00    +0.000 A 
ATOM     19  C   UNL     1      10.687  12.465  17.540  0.00  0.00    +0.000 A 
ATOM     20  N   UNL     1      10.410  11.119  17.579  0.00  0.00    +0.000 N 
ATOM     21  C   UNL     1       9.509  10.913  18.587  0.00  0.00    +0.000 A 
ATOM     22  N   UNL     1       9.236  12.018  19.239  0.00  0.00    +0.000 NA
ATOM     23  C   UNL     1       9.959  12.999  18.601  0.00  0.00    +0.000 A 
ATOM     24  C   UNL     1      10.034  14.377  18.861  0.00  0.00    +0.000 A 
ATOM     25  H   UNL     1      10.792  10.401  16.977  0.00  0.00    +0.000 HD
BRANCH  16  27
ATOM     26  C   UNL     1      10.014  17.334  17.410  0.00  0.00    +0.000 C 
ATOM     27  O   UNL     1      10.785  16.529  18.299  0.00  0.00    +0.000 OA
ENDBRANCH  16  27
ENDBRANCH  15  21
ENDBRANCH   1  15
TORSDOF 5
ENDMDL
