MODEL 1
REMARK VINA RESULT:      -7.9      0.000      0.000
REMARK  Name = 
REMARK  5 active torsions:
REMARK  status: ('A' for Active; 'I' for Inactive)
REMARK    1  A    between atoms: C_5  and  O_6
REMARK    2  A    between atoms: O_6  and  C_7
REMARK    3  A    between atoms: C_7  and  C_8
REMARK    4  A    between atoms: C_11  and  C_12
REMARK    5  A    between atoms: C_12  and  N_13
REMARK                            x       y       z     vdW  Elec       q    Type
REMARK                         _______ _______ _______ _____ _____    ______ ____
ROOT
ATOM      1  C   UNL     1       7.326   7.386  17.853  0.00  0.00    +0.000 A 
ATOM      2  C   UNL     1       7.754   6.364  18.709  0.00  0.00    +0.000 A 
ATOM      3  C   UNL     1       6.973   5.218  18.881  0.00  0.00    +0.000 A 
ATOM      4  C   UNL     1       5.756   5.069  18.201  0.00  0.00    +0.000 A 
ATOM      5  C   UNL     1       5.346   6.080  17.322  0.00  0.00    +0.000 A 
ATOM      6  C   UNL     1       6.127   7.223  17.146  0.00  0.00    +0.000 A 
ENDROOT
BRANCH   1   7
ATOM      7  C   UNL     1       8.128   8.651  17.673  0.00  0.00    +0.000 C 
BRANCH   7   8
ATOM      8  O   UNL     1       8.852   8.924  18.872  0.00  0.00    +0.000 OA
BRANCH   8  13
ATOM      9  I   UNL     1      10.727  14.767  19.985  0.00  0.00    +0.000 I 
ATOM     10  C   UNL     1      10.113  12.823  19.581  0.00  0.00    +0.000 A 
ATOM     11  C   UNL     1       9.837  11.948  20.632  0.00  0.00    +0.000 A 
ATOM     12  C   UNL     1       9.416  10.644  20.346  0.00  0.00    +0.000 A 
ATOM     13  C   UNL     1       9.259  10.223  19.025  0.00  0.00    +0.000 A 
ATOM     14  C   UNL     1       9.560  11.099  17.981  0.00  0.00    +0.000 A 
ATOM     15  C   UNL     1       9.984  12.403  18.256  0.00  0.00    +0.000 A 
ENDBRANCH   8  13
ENDBRANCH   7   8
ENDBRANCH   1   7
BRANCH   4  16
ATOM     16  C   UNL     1       4.917   3.825  18.395  0.00  0.00    +0.000 C 
BRANCH  16  17
ATOM     17  N   UNL     1       3.472   4.093  18.579  0.00  0.00    +0.000 NA
ATOM     18  C   UNL     1       2.675   2.896  18.273  0.00  0.00    +0.000 C 
ATOM     19  C   UNL     1       1.193   3.046  18.621  0.00  0.00    +0.000 C 
ATOM     20  C   UNL     1       1.011   3.472  20.068  0.00  0.00    +0.000 C 
ATOM     21  C   UNL     1       1.773   4.765  20.309  0.00  0.00    +0.000 C 
ATOM     22  C   UNL     1       3.249   4.614  19.937  0.00  0.00    +0.000 C 
ENDBRANCH  16  17
ENDBRANCH   4  16
TORSDOF 5
ENDMDL
MODEL 2
REMARK VINA RESULT:      -7.9      0.855      1.438
REMARK  Name = 
REMARK  5 active torsions:
REMARK  status: ('A' for Active; 'I' for Inactive)
REMARK    1  A    between atoms: C_5  and  O_6
REMARK    2  A    between atoms: O_6  and  C_7
REMARK    3  A    between atoms: C_7  and  C_8
REMARK    4  A    between atoms: C_11  and  C_12
REMARK    5  A    between atoms: C_12  and  N_13
REMARK                            x       y       z     vdW  Elec       q    Type
REMARK                         _______ _______ _______ _____ _____    ______ ____
ROOT
ATOM      1  C   UNL     1       7.085   7.203  17.758  0.00  0.00    +0.000 A 
ATOM      2  C   UNL     1       5.832   7.147  17.137  0.00  0.00    +0.000 A 
ATOM      3  C   UNL     1       4.995   6.047  17.340  0.00  0.00    +0.000 A 
ATOM      4  C   UNL     1       5.391   4.986  18.165  0.00  0.00    +0.000 A 
ATOM      5  C   UNL     1       6.633   5.059  18.809  0.00  0.00    +0.000 A 
ATOM      6  C   UNL     1       7.468   6.159  18.611  0.00  0.00    +0.000 A 
ENDROOT
BRANCH   1   7
ATOM      7  C   UNL     1       8.027   8.359  17.531  0.00  0.00    +0.000 C 
BRANCH   7   8
ATOM      8  O   UNL     1       8.647   8.711  18.767  0.00  0.00    +0.000 OA
BRANCH   8  13
ATOM      9  I   UNL     1      10.527  14.591  19.654  0.00  0.00    +0.000 I 
ATOM     10  C   UNL     1       9.903  12.637  19.324  0.00  0.00    +0.000 A 
ATOM     11  C   UNL     1       9.929  11.712  20.369  0.00  0.00    +0.000 A 
ATOM     12  C   UNL     1       9.498  10.401  20.135  0.00  0.00    +0.000 A 
ATOM     13  C   UNL     1       9.032  10.022  18.876  0.00  0.00    +0.000 A 
ATOM     14  C   UNL     1       9.031  10.947  17.832  0.00  0.00    +0.000 A 
ATOM     15  C   UNL     1       9.463  12.260  18.054  0.00  0.00    +0.000 A 
ENDBRANCH   8  13
ENDBRANCH   7   8
ENDBRANCH   1   7
BRANCH   4  16
ATOM     16  C   UNL     1       4.478   3.798  18.378  0.00  0.00    +0.000 C 
BRANCH  16  17
ATOM     17  N   UNL     1       3.577   3.930  19.546  0.00  0.00    +0.000 NA
ATOM     18  C   UNL     1       2.222   4.314  19.120  0.00  0.00    +0.000 C 
ATOM     19  C   UNL     1       1.197   4.287  20.254  0.00  0.00    +0.000 C 
ATOM     20  C   UNL     1       1.191   2.938  20.955  0.00  0.00    +0.000 C 
ATOM     21  C   UNL     1       2.591   2.631  21.462  0.00  0.00    +0.000 C 
ATOM     22  C   UNL     1       3.614   2.683  20.326  0.00  0.00    +0.000 C 
ENDBRANCH  16  17
ENDBRANCH   4  16
TORSDOF 5
ENDMDL
MODEL 3
REMARK VINA RESULT:      -7.8      0.912      1.099
REMARK  Name = 
REMARK  5 active torsions:
REMARK  status: ('A' for Active; 'I' for Inactive)
REMARK    1  A    between atoms: C_5  and  O_6
REMARK    2  A    between atoms: O_6  and  C_7
REMARK    3  A    between atoms: C_7  and  C_8
REMARK    4  A    between atoms: C_11  and  C_12
REMARK    5  A    between atoms: C_12  and  N_13
REMARK                            x       y       z     vdW  Elec       q    Type
REMARK                         _______ _______ _______ _____ _____    ______ ____
ROOT
ATOM      1  C   UNL     1       7.014   7.155  17.677  0.00  0.00    +0.000 A 
ATOM      2  C   UNL     1       7.357   6.150  18.590  0.00  0.00    +0.000 A 
ATOM      3  C   UNL     1       6.493   5.074  18.809  0.00  0.00    +0.000 A 
ATOM      4  C   UNL     1       5.275   4.979  18.121  0.00  0.00    +0.000 A 
ATOM      5  C   UNL     1       4.950   5.970  17.185  0.00  0.00    +0.000 A 
ATOM      6  C   UNL     1       5.814   7.043  16.963  0.00  0.00    +0.000 A 
ENDROOT
BRANCH   1   7
ATOM      7  C   UNL     1       7.908   8.347  17.445  0.00  0.00    +0.000 C 
BRANCH   7   8
ATOM      8  O   UNL     1       8.550   8.700  18.669  0.00  0.00    +0.000 OA
BRANCH   8  13
ATOM      9  I   UNL     1      10.483  14.573  19.494  0.00  0.00    +0.000 I 
ATOM     10  C   UNL     1       9.833  12.623  19.185  0.00  0.00    +0.000 A 
ATOM     11  C   UNL     1      10.106  11.640  20.137  0.00  0.00    +0.000 A 
ATOM     12  C   UNL     1       9.656  10.332  19.921  0.00  0.00    +0.000 A 
ATOM     13  C   UNL     1       8.929  10.013  18.774  0.00  0.00    +0.000 A 
ATOM     14  C   UNL     1       8.680  10.998  17.817  0.00  0.00    +0.000 A 
ATOM     15  C   UNL     1       9.129  12.308  18.021  0.00  0.00    +0.000 A 
ENDBRANCH   8  13
ENDBRANCH   7   8
ENDBRANCH   1   7
BRANCH   4  16
ATOM     16  C   UNL     1       4.345   3.811  18.365  0.00  0.00    +0.000 C 
BRANCH  16  17
ATOM     17  N   UNL     1       3.511   3.947  19.581  0.00  0.00    +0.000 NA
ATOM     18  C   UNL     1       2.163   4.429  19.239  0.00  0.00    +0.000 C 
ATOM     19  C   UNL     1       1.194   4.415  20.422  0.00  0.00    +0.000 C 
ATOM     20  C   UNL     1       1.138   3.040  21.068  0.00  0.00    +0.000 C 
ATOM     21  C   UNL     1       2.539   2.630  21.492  0.00  0.00    +0.000 C 
ATOM     22  C   UNL     1       3.509   2.668  20.309  0.00  0.00    +0.000 C 
ENDBRANCH  16  17
ENDBRANCH   4  16
TORSDOF 5
ENDMDL
MODEL 4
REMARK VINA RESULT:      -7.8      0.305      1.482
REMARK  Name = 
REMARK  5 active torsions:
REMARK  status: ('A' for Active; 'I' for Inactive)
REMARK    1  A    between atoms: C_5  and  O_6
REMARK    2  A    between atoms: O_6  and  C_7
REMARK    3  A    between atoms: C_7  and  C_8
REMARK    4  A    between atoms: C_11  and  C_12
REMARK    5  A    between atoms: C_12  and  N_13
REMARK                            x       y       z     vdW  Elec       q    Type
REMARK                         _______ _______ _______ _____ _____    ______ ____
ROOT
ATOM      1  C   UNL     1       7.280   7.361  17.813  0.00  0.00    +0.000 A 
ATOM      2  C   UNL     1       6.108   7.288  17.051  0.00  0.00    +0.000 A 
ATOM      3  C   UNL     1       5.290   6.157  17.124  0.00  0.00    +0.000 A 
ATOM      4  C   UNL     1       5.625   5.082  17.959  0.00  0.00    +0.000 A 
ATOM      5  C   UNL     1       6.782   5.171  18.743  0.00  0.00    +0.000 A 
ATOM      6  C   UNL     1       7.597   6.302  18.674  0.00  0.00    +0.000 A 
ENDROOT
BRANCH   1   7
ATOM      7  C   UNL     1       8.202   8.551  17.729  0.00  0.00    +0.000 C 
BRANCH   7   8
ATOM      8  O   UNL     1       8.704   8.850  19.031  0.00  0.00    +0.000 OA
BRANCH   8  13
ATOM      9  I   UNL     1      11.076  14.613  19.291  0.00  0.00    +0.000 I 
ATOM     10  C   UNL     1      10.277  12.695  19.238  0.00  0.00    +0.000 A 
ATOM     11  C   UNL     1       9.979  12.099  18.012  0.00  0.00    +0.000 A 
ATOM     12  C   UNL     1       9.449  10.804  17.991  0.00  0.00    +0.000 A 
ATOM     13  C   UNL     1       9.234  10.105  19.179  0.00  0.00    +0.000 A 
ATOM     14  C   UNL     1       9.515  10.718  20.401  0.00  0.00    +0.000 A 
ATOM     15  C   UNL     1      10.042  12.014  20.434  0.00  0.00    +0.000 A 
ENDBRANCH   8  13
ENDBRANCH   7   8
ENDBRANCH   1   7
BRANCH   4  16
ATOM     16  C   UNL     1       4.734   3.861  18.031  0.00  0.00    +0.000 C 
BRANCH  16  17
ATOM     17  N   UNL     1       3.351   4.148  18.480  0.00  0.00    +0.000 NA
ATOM     18  C   UNL     1       2.444   3.051  18.108  0.00  0.00    +0.000 C 
ATOM     19  C   UNL     1       1.041   3.195  18.701  0.00  0.00    +0.000 C 
ATOM     20  C   UNL     1       1.101   3.372  20.210  0.00  0.00    +0.000 C 
ATOM     21  C   UNL     1       1.970   4.575  20.539  0.00  0.00    +0.000 C 
ATOM     22  C   UNL     1       3.363   4.435  19.923  0.00  0.00    +0.000 C 
ENDBRANCH  16  17
ENDBRANCH   4  16
TORSDOF 5
ENDMDL
MODEL 5
REMARK VINA RESULT:      -7.6      1.075      1.822
REMARK  Name = 
REMARK  5 active torsions:
REMARK  status: ('A' for Active; 'I' for Inactive)
REMARK    1  A    between atoms: C_5  and  O_6
REMARK    2  A    between atoms: O_6  and  C_7
REMARK    3  A    between atoms: C_7  and  C_8
REMARK    4  A    between atoms: C_11  and  C_12
REMARK    5  A    between atoms: C_12  and  N_13
REMARK                            x       y       z     vdW  Elec       q    Type
REMARK                         _______ _______ _______ _____ _____    ______ ____
ROOT
ATOM      1  C   UNL     1       7.102   7.024  17.717  0.00  0.00    +0.000 A 
ATOM      2  C   UNL     1       5.866   6.974  17.061  0.00  0.00    +0.000 A 
ATOM      3  C   UNL     1       4.999   5.900  17.276  0.00  0.00    +0.000 A 
ATOM      4  C   UNL     1       5.347   4.859  18.148  0.00  0.00    +0.000 A 
ATOM      5  C   UNL     1       6.571   4.928  18.826  0.00  0.00    +0.000 A 
ATOM      6  C   UNL     1       7.436   6.002  18.616  0.00  0.00    +0.000 A 
ENDROOT
BRANCH   1   7
ATOM      7  C   UNL     1       8.076   8.151  17.480  0.00  0.00    +0.000 C 
BRANCH   7   8
ATOM      8  O   UNL     1       8.478   8.698  18.735  0.00  0.00    +0.000 OA
BRANCH   8  13
ATOM      9  I   UNL     1      10.381  14.617  18.244  0.00  0.00    +0.000 I 
ATOM     10  C   UNL     1       9.764  12.642  18.438  0.00  0.00    +0.000 A 
ATOM     11  C   UNL     1       8.719  12.159  17.650  0.00  0.00    +0.000 A 
ATOM     12  C   UNL     1       8.319  10.825  17.784  0.00  0.00    +0.000 A 
ATOM     13  C   UNL     1       8.964   9.978  18.686  0.00  0.00    +0.000 A 
ATOM     14  C   UNL     1       9.993  10.476  19.486  0.00  0.00    +0.000 A 
ATOM     15  C   UNL     1      10.399  11.810  19.362  0.00  0.00    +0.000 A 
ENDBRANCH   8  13
ENDBRANCH   7   8
ENDBRANCH   1   7
BRANCH   4  16
ATOM     16  C   UNL     1       4.401   3.699  18.374  0.00  0.00    +0.000 C 
BRANCH  16  17
ATOM     17  N   UNL     1       3.522   3.858  19.555  0.00  0.00    +0.000 NA
ATOM     18  C   UNL     1       2.156   4.220  19.144  0.00  0.00    +0.000 C 
ATOM     19  C   UNL     1       1.153   4.217  20.299  0.00  0.00    +0.000 C 
ATOM     20  C   UNL     1       1.171   2.888  21.036  0.00  0.00    +0.000 C 
ATOM     21  C   UNL     1       2.582   2.606  21.525  0.00  0.00    +0.000 C 
ATOM     22  C   UNL     1       3.584   2.634  20.369  0.00  0.00    +0.000 C 
ENDBRANCH  16  17
ENDBRANCH   4  16
TORSDOF 5
ENDMDL
MODEL 6
REMARK VINA RESULT:      -7.5      1.050      1.376
REMARK  Name = 
REMARK  5 active torsions:
REMARK  status: ('A' for Active; 'I' for Inactive)
REMARK    1  A    between atoms: C_5  and  O_6
REMARK    2  A    between atoms: O_6  and  C_7
REMARK    3  A    between atoms: C_7  and  C_8
REMARK    4  A    between atoms: C_11  and  C_12
REMARK    5  A    between atoms: C_12  and  N_13
REMARK                            x       y       z     vdW  Elec       q    Type
REMARK                         _______ _______ _______ _____ _____    ______ ____
ROOT
ATOM      1  C   UNL     1       7.529   7.021  18.044  0.00  0.00    +0.000 A 
ATOM      2  C   UNL     1       7.536   5.769  18.669  0.00  0.00    +0.000 A 
ATOM      3  C   UNL     1       6.603   4.795  18.302  0.00  0.00    +0.000 A 
ATOM      4  C   UNL     1       5.651   5.051  17.306  0.00  0.00    +0.000 A 
ATOM      5  C   UNL     1       5.666   6.295  16.662  0.00  0.00    +0.000 A 
ATOM      6  C   UNL     1       6.600   7.267  17.025  0.00  0.00    +0.000 A 
ENDROOT
BRANCH   1   7
ATOM      7  C   UNL     1       8.499   8.106  18.442  0.00  0.00    +0.000 C 
BRANCH   7   8
ATOM      8  O   UNL     1       8.177   9.305  17.739  0.00  0.00    +0.000 OA
BRANCH   8  13
ATOM      9  I   UNL     1      10.555  14.319  20.588  0.00  0.00    +0.000 I 
ATOM     10  C   UNL     1       9.761  12.667  19.609  0.00  0.00    +0.000 A 
ATOM     11  C   UNL     1       9.863  11.400  20.186  0.00  0.00    +0.000 A 
ATOM     12  C   UNL     1       9.317  10.297  19.520  0.00  0.00    +0.000 A 
ATOM     13  C   UNL     1       8.662  10.459  18.299  0.00  0.00    +0.000 A 
ATOM     14  C   UNL     1       8.584  11.726  17.719  0.00  0.00    +0.000 A 
ATOM     15  C   UNL     1       9.130  12.835  18.375  0.00  0.00    +0.000 A 
ENDBRANCH   8  13
ENDBRANCH   7   8
ENDBRANCH   1   7
BRANCH   4  16
ATOM     16  C   UNL     1       4.644   3.991  16.917  0.00  0.00    +0.000 C 
BRANCH  16  17
ATOM     17  N   UNL     1       3.681   3.649  17.989  0.00  0.00    +0.000 NA
ATOM     18  C   UNL     1       2.467   4.473  17.882  0.00  0.00    +0.000 C 
ATOM     19  C   UNL     1       1.355   4.045  18.842  0.00  0.00    +0.000 C 
ATOM     20  C   UNL     1       1.033   2.569  18.683  0.00  0.00    +0.000 C 
ATOM     21  C   UNL     1       2.298   1.754  18.899  0.00  0.00    +0.000 C 
ATOM     22  C   UNL     1       3.413   2.203  17.952  0.00  0.00    +0.000 C 
ENDBRANCH  16  17
ENDBRANCH   4  16
TORSDOF 5
ENDMDL
MODEL 7
REMARK VINA RESULT:      -7.5      0.755      1.578
REMARK  Name = 
REMARK  5 active torsions:
REMARK  status: ('A' for Active; 'I' for Inactive)
REMARK    1  A    between atoms: C_5  and  O_6
REMARK    2  A    between atoms: O_6  and  C_7
REMARK    3  A    between atoms: C_7  and  C_8
REMARK    4  A    between atoms: C_11  and  C_12
REMARK    5  A    between atoms: C_12  and  N_13
REMARK                            x       y       z     vdW  Elec       q    Type
REMARK                         _______ _______ _______ _____ _____    ______ ____
ROOT
ATOM      1  C   UNL     1       7.409   7.007  18.124  0.00  0.00    +0.000 A 
ATOM      2  C   UNL     1       7.375   5.825  18.875  0.00  0.00    +0.000 A 
ATOM      3  C   UNL     1       6.327   4.916  18.707  0.00  0.00    +0.000 A 
ATOM      4  C   UNL     1       5.299   5.166  17.788  0.00  0.00    +0.000 A 
ATOM      5  C   UNL     1       5.353   6.334  17.017  0.00  0.00    +0.000 A 
ATOM      6  C   UNL     1       6.400   7.242  17.181  0.00  0.00    +0.000 A 
ENDROOT
BRANCH   1   7
ATOM      7  C   UNL     1       8.506   8.026  18.307  0.00  0.00    +0.000 C 
BRANCH   7   8
ATOM      8  O   UNL     1       8.025   9.311  17.917  0.00  0.00    +0.000 OA
BRANCH   8  13
ATOM      9  I   UNL     1      10.996  14.395  19.974  0.00  0.00    +0.000 I 
ATOM     10  C   UNL     1      10.010  12.686  19.320  0.00  0.00    +0.000 A 
ATOM     11  C   UNL     1       9.256  12.724  18.146  0.00  0.00    +0.000 A 
ATOM     12  C   UNL     1       8.604  11.564  17.713  0.00  0.00    +0.000 A 
ATOM     13  C   UNL     1       8.715  10.376  18.436  0.00  0.00    +0.000 A 
ATOM     14  C   UNL     1       9.453  10.353  19.620  0.00  0.00    +0.000 A 
ATOM     15  C   UNL     1      10.106  11.508  20.064  0.00  0.00    +0.000 A 
ENDBRANCH   8  13
ENDBRANCH   7   8
ENDBRANCH   1   7
BRANCH   4  16
ATOM     16  C   UNL     1       4.168   4.176  17.614  0.00  0.00    +0.000 C 
BRANCH  16  17
ATOM     17  N   UNL     1       3.439   3.866  18.865  0.00  0.00    +0.000 NA
ATOM     18  C   UNL     1       2.811   5.076  19.417  0.00  0.00    +0.000 C 
ATOM     19  C   UNL     1       1.889   4.795  20.605  0.00  0.00    +0.000 C 
ATOM     20  C   UNL     1       0.846   3.747  20.253  0.00  0.00    +0.000 C 
ATOM     21  C   UNL     1       1.547   2.483  19.782  0.00  0.00    +0.000 C 
ATOM     22  C   UNL     1       2.485   2.775  18.609  0.00  0.00    +0.000 C 
ENDBRANCH  16  17
ENDBRANCH   4  16
TORSDOF 5
ENDMDL
MODEL 8
REMARK VINA RESULT:      -7.5      0.795      1.208
REMARK  Name = 
REMARK  5 active torsions:
REMARK  status: ('A' for Active; 'I' for Inactive)
REMARK    1  A    between atoms: C_5  and  O_6
REMARK    2  A    between atoms: O_6  and  C_7
REMARK    3  A    between atoms: C_7  and  C_8
REMARK    4  A    between atoms: C_11  and  C_12
REMARK    5  A    between atoms: C_12  and  N_13
REMARK                            x       y       z     vdW  Elec       q    Type
REMARK                         _______ _______ _______ _____ _____    ______ ____
ROOT
ATOM      1  C   UNL     1       7.370   7.235  17.803  0.00  0.00    +0.000 A 
ATOM      2  C   UNL     1       7.827   6.380  18.813  0.00  0.00    +0.000 A 
ATOM      3  C   UNL     1       7.031   5.315  19.246  0.00  0.00    +0.000 A 
ATOM      4  C   UNL     1       5.770   5.085  18.680  0.00  0.00    +0.000 A 
ATOM      5  C   UNL     1       5.329   5.924  17.649  0.00  0.00    +0.000 A 
ATOM      6  C   UNL     1       6.124   6.985  17.213  0.00  0.00    +0.000 A 
ENDROOT
BRANCH   1   7
ATOM      7  C   UNL     1       8.189   8.414  17.338  0.00  0.00    +0.000 C 
BRANCH   7   8
ATOM      8  O   UNL     1       7.702   9.601  17.963  0.00  0.00    +0.000 OA
BRANCH   8  13
ATOM      9  I   UNL     1      11.881  14.026  19.326  0.00  0.00    +0.000 I 
ATOM     10  C   UNL     1      10.498  12.534  18.902  0.00  0.00    +0.000 A 
ATOM     11  C   UNL     1       9.497  12.762  17.956  0.00  0.00    +0.000 A 
ATOM     12  C   UNL     1       8.577  11.746  17.673  0.00  0.00    +0.000 A 
ATOM     13  C   UNL     1       8.663  10.511  18.316  0.00  0.00    +0.000 A 
ATOM     14  C   UNL     1       9.654  10.300  19.277  0.00  0.00    +0.000 A 
ATOM     15  C   UNL     1      10.577  11.311  19.570  0.00  0.00    +0.000 A 
ENDBRANCH   8  13
ENDBRANCH   7   8
ENDBRANCH   1   7
BRANCH   4  16
ATOM     16  C   UNL     1       4.915   3.930  19.157  0.00  0.00    +0.000 C 
BRANCH  16  17
ATOM     17  N   UNL     1       3.459   4.193  19.099  0.00  0.00    +0.000 NA
ATOM     18  C   UNL     1       2.778   3.181  18.277  0.00  0.00    +0.000 C 
ATOM     19  C   UNL     1       1.252   3.283  18.325  0.00  0.00    +0.000 C 
ATOM     20  C   UNL     1       0.748   3.257  19.759  0.00  0.00    +0.000 C 
ATOM     21  C   UNL     1       1.406   4.382  20.541  0.00  0.00    +0.000 C 
ATOM     22  C   UNL     1       2.931   4.287  20.469  0.00  0.00    +0.000 C 
ENDBRANCH  16  17
ENDBRANCH   4  16
TORSDOF 5
ENDMDL
MODEL 9
REMARK VINA RESULT:      -7.4      1.127      1.544
REMARK  Name = 
REMARK  5 active torsions:
REMARK  status: ('A' for Active; 'I' for Inactive)
REMARK    1  A    between atoms: C_5  and  O_6
REMARK    2  A    between atoms: O_6  and  C_7
REMARK    3  A    between atoms: C_7  and  C_8
REMARK    4  A    between atoms: C_11  and  C_12
REMARK    5  A    between atoms: C_12  and  N_13
REMARK                            x       y       z     vdW  Elec       q    Type
REMARK                         _______ _______ _______ _____ _____    ______ ____
ROOT
ATOM      1  C   UNL     1       7.694   7.353  18.157  0.00  0.00    +0.000 A 
ATOM      2  C   UNL     1       6.681   7.475  17.198  0.00  0.00    +0.000 A 
ATOM      3  C   UNL     1       5.839   6.394  16.924  0.00  0.00    +0.000 A 
ATOM      4  C   UNL     1       5.989   5.176  17.601  0.00  0.00    +0.000 A 
ATOM      5  C   UNL     1       6.984   5.067  18.582  0.00  0.00    +0.000 A 
ATOM      6  C   UNL     1       7.823   6.147  18.860  0.00  0.00    +0.000 A 
ENDROOT
BRANCH   1   7
ATOM      7  C   UNL     1       8.642   8.488  18.452  0.00  0.00    +0.000 C 
BRANCH   7   8
ATOM      8  O   UNL     1       8.112   9.697  17.909  0.00  0.00    +0.000 OA
BRANCH   8  13
ATOM      9  I   UNL     1      11.478  14.647  19.659  0.00  0.00    +0.000 I 
ATOM     10  C   UNL     1      10.347  13.015  19.047  0.00  0.00    +0.000 A 
ATOM     11  C   UNL     1      10.559  11.764  19.629  0.00  0.00    +0.000 A 
ATOM     12  C   UNL     1       9.784  10.675  19.213  0.00  0.00    +0.000 A 
ATOM     13  C   UNL     1       8.798  10.836  18.239  0.00  0.00    +0.000 A 
ATOM     14  C   UNL     1       8.609  12.086  17.647  0.00  0.00    +0.000 A 
ATOM     15  C   UNL     1       9.380  13.181  18.053  0.00  0.00    +0.000 A 
ENDBRANCH   8  13
ENDBRANCH   7   8
ENDBRANCH   1   7
BRANCH   4  16
ATOM     16  C   UNL     1       5.073   4.011  17.296  0.00  0.00    +0.000 C 
BRANCH  16  17
ATOM     17  N   UNL     1       3.878   3.938  18.168  0.00  0.00    +0.000 NA
ATOM     18  C   UNL     1       2.649   3.862  17.364  0.00  0.00    +0.000 C 
ATOM     19  C   UNL     1       1.393   3.597  18.196  0.00  0.00    +0.000 C 
ATOM     20  C   UNL     1       1.561   2.359  19.062  0.00  0.00    +0.000 C 
ATOM     21  C   UNL     1       2.787   2.528  19.944  0.00  0.00    +0.000 C 
ATOM     22  C   UNL     1       4.035   2.815  19.106  0.00  0.00    +0.000 C 
ENDBRANCH  16  17
ENDBRANCH   4  16
TORSDOF 5
ENDMDL
