MODEL 1
REMARK VINA RESULT:      -7.5      0.000      0.000
REMARK  Name = 
REMARK  7 active torsions:
REMARK  status: ('A' for Active; 'I' for Inactive)
REMARK    1  A    between atoms: C_1  and  C_2
REMARK    2  A    between atoms: C_2  and  O_3
REMARK    3  A    between atoms: O_3  and  C_4
REMARK    4  A    between atoms: C_4  and  C_6
REMARK    5  A    between atoms: N_12  and  C_13
REMARK    6  A    between atoms: N_14  and  C_15
REMARK    7  A    between atoms: C_15  and  C_16
REMARK                            x       y       z     vdW  Elec       q    Type
REMARK                         _______ _______ _______ _____ _____    ______ ____
ROOT
ATOM      1  C   UNL     1       3.205   4.231  17.668  0.00  0.00    +0.000 A 
ATOM      2  C   UNL     1       4.084   3.847  16.658  0.00  0.00    +0.000 A 
ATOM      3  C   UNL     1       5.180   4.735  16.733  0.00  0.00    +0.000 A 
ATOM      4  C   UNL     1       4.995   5.574  17.776  0.00  0.00    +0.000 A 
ATOM      5  C   UNL     1       6.079   6.490  17.833  0.00  0.00    +0.000 A 
ATOM      6  C   UNL     1       6.897   6.132  16.774  0.00  0.00    +0.000 A 
ATOM      7  N   UNL     1       6.356   5.058  16.116  0.00  0.00    +0.000 N 
ATOM      8  C   UNL     1       6.858   4.386  14.947  0.00  0.00    +0.000 C 
ATOM      9  N   UNL     1       3.810   5.248  18.398  0.00  0.00    +0.000 N 
ENDROOT
BRANCH   1  10
ATOM     10  C   UNL     1       1.887   3.672  17.942  0.00  0.00    +0.000 C 
ATOM     11  O   UNL     1       0.855   3.945  17.348  0.00  0.00    +0.000 OA
BRANCH  10  12
ATOM     12  O   UNL     1       1.974   2.822  19.006  0.00  0.00    +0.000 OA
BRANCH  12  14
ATOM     13  C   UNL     1       1.718   2.938  21.420  0.00  0.00    +0.000 C 
ATOM     14  C   UNL     1       1.034   3.018  20.069  0.00  0.00    +0.000 C 
ENDBRANCH  12  14
ENDBRANCH  10  12
ENDBRANCH   1  10
BRANCH   9  15
ATOM     15  C   UNL     1       3.343   5.927  19.598  0.00  0.00    +0.000 C 
BRANCH  15  16
ATOM     16  C   UNL     1       2.512   7.165  19.332  0.00  0.00    +0.000 A 
ATOM     17  C   UNL     1       2.459   7.803  18.082  0.00  0.00    +0.000 A 
ATOM     18  C   UNL     1       1.751   8.994  17.914  0.00  0.00    +0.000 A 
ATOM     19  C   UNL     1       1.069   9.550  18.993  0.00  0.00    +0.000 A 
ATOM     20 CL   UNL     1       0.250  11.049  18.801  0.00  0.00    +0.000 Cl
ATOM     21  C   UNL     1       1.063   8.908  20.228  0.00  0.00    +0.000 A 
ATOM     22  C   UNL     1       1.776   7.717  20.394  0.00  0.00    +0.000 A 
ENDBRANCH  15  16
ENDBRANCH   9  15
TORSDOF 5
ENDMDL
MODEL 2
REMARK VINA RESULT:      -7.3      0.156      1.040
REMARK  Name = 
REMARK  7 active torsions:
REMARK  status: ('A' for Active; 'I' for Inactive)
REMARK    1  A    between atoms: C_1  and  C_2
REMARK    2  A    between atoms: C_2  and  O_3
REMARK    3  A    between atoms: O_3  and  C_4
REMARK    4  A    between atoms: C_4  and  C_6
REMARK    5  A    between atoms: N_12  and  C_13
REMARK    6  A    between atoms: N_14  and  C_15
REMARK    7  A    between atoms: C_15  and  C_16
REMARK                            x       y       z     vdW  Elec       q    Type
REMARK                         _______ _______ _______ _____ _____    ______ ____
ROOT
ATOM      1  C   UNL     1       3.203   4.206  17.723  0.00  0.00    +0.000 A 
ATOM      2  C   UNL     1       4.074   3.835  16.700  0.00  0.00    +0.000 A 
ATOM      3  C   UNL     1       5.182   4.706  16.793  0.00  0.00    +0.000 A 
ATOM      4  C   UNL     1       5.012   5.521  17.857  0.00  0.00    +0.000 A 
ATOM      5  C   UNL     1       6.109   6.420  17.931  0.00  0.00    +0.000 A 
ATOM      6  C   UNL     1       6.918   6.078  16.861  0.00  0.00    +0.000 A 
ATOM      7  N   UNL     1       6.360   5.027  16.179  0.00  0.00    +0.000 N 
ATOM      8  C   UNL     1       6.849   4.378  14.992  0.00  0.00    +0.000 C 
ATOM      9  N   UNL     1       3.825   5.196  18.475  0.00  0.00    +0.000 N 
ENDROOT
BRANCH   1  10
ATOM     10  C   UNL     1       1.879   3.659  17.987  0.00  0.00    +0.000 C 
ATOM     11  O   UNL     1       0.838   4.006  17.450  0.00  0.00    +0.000 OA
BRANCH  10  12
ATOM     12  O   UNL     1       1.972   2.719  18.973  0.00  0.00    +0.000 OA
BRANCH  12  14
ATOM     13  C   UNL     1       1.860   2.939  21.391  0.00  0.00    +0.000 C 
ATOM     14  C   UNL     1       1.086   2.864  20.090  0.00  0.00    +0.000 C 
ENDBRANCH  12  14
ENDBRANCH  10  12
ENDBRANCH   1  10
BRANCH   9  15
ATOM     15  C   UNL     1       3.371   5.851  19.693  0.00  0.00    +0.000 C 
BRANCH  15  16
ATOM     16  C   UNL     1       2.586   7.125  19.462  0.00  0.00    +0.000 A 
ATOM     17  C   UNL     1       1.833   7.759  20.464  0.00  0.00    +0.000 A 
ATOM     18  C   UNL     1       1.054   8.880  20.174  0.00  0.00    +0.000 A 
ATOM     19  C   UNL     1       1.036   9.394  18.880  0.00  0.00    +0.000 A 
ATOM     20 CL   UNL     1       0.028  10.736  18.510  0.00  0.00    +0.000 Cl
ATOM     21  C   UNL     1       1.816   8.815  17.883  0.00  0.00    +0.000 A 
ATOM     22  C   UNL     1       2.593   7.690  18.175  0.00  0.00    +0.000 A 
ENDBRANCH  15  16
ENDBRANCH   9  15
TORSDOF 5
ENDMDL
MODEL 3
REMARK VINA RESULT:      -6.8      4.204      6.712
REMARK  Name = 
REMARK  7 active torsions:
REMARK  status: ('A' for Active; 'I' for Inactive)
REMARK    1  A    between atoms: C_1  and  C_2
REMARK    2  A    between atoms: C_2  and  O_3
REMARK    3  A    between atoms: O_3  and  C_4
REMARK    4  A    between atoms: C_4  and  C_6
REMARK    5  A    between atoms: N_12  and  C_13
REMARK    6  A    between atoms: N_14  and  C_15
REMARK    7  A    between atoms: C_15  and  C_16
REMARK                            x       y       z     vdW  Elec       q    Type
REMARK                         _______ _______ _______ _____ _____    ______ ____
ROOT
ATOM      1  C   UNL     1       5.680   4.556  18.442  0.00  0.00    +0.000 A 
ATOM      2  C   UNL     1       5.010   3.690  19.305  0.00  0.00    +0.000 A 
ATOM      3  C   UNL     1       3.642   3.781  18.966  0.00  0.00    +0.000 A 
ATOM      4  C   UNL     1       3.504   4.615  17.912  0.00  0.00    +0.000 A 
ATOM      5  C   UNL     1       2.125   4.733  17.592  0.00  0.00    +0.000 A 
ATOM      6  C   UNL     1       1.480   3.923  18.511  0.00  0.00    +0.000 A 
ATOM      7  N   UNL     1       2.404   3.335  19.336  0.00  0.00    +0.000 N 
ATOM      8  C   UNL     1       2.169   2.448  20.443  0.00  0.00    +0.000 C 
ATOM      9  N   UNL     1       4.752   5.063  17.540  0.00  0.00    +0.000 N 
ENDROOT
BRANCH   1  10
ATOM     10  C   UNL     1       7.101   4.877  18.453  0.00  0.00    +0.000 C 
ATOM     11  O   UNL     1       7.985   4.243  17.897  0.00  0.00    +0.000 OA
BRANCH  10  12
ATOM     12  O   UNL     1       7.304   5.982  19.228  0.00  0.00    +0.000 OA
BRANCH  12  14
ATOM     13  C   UNL     1       7.641   7.758  17.603  0.00  0.00    +0.000 C 
ATOM     14  C   UNL     1       8.239   6.951  18.739  0.00  0.00    +0.000 C 
ENDBRANCH  12  14
ENDBRANCH  10  12
ENDBRANCH   1  10
BRANCH   9  15
ATOM     15  C   UNL     1       4.961   5.937  16.395  0.00  0.00    +0.000 C 
BRANCH  15  16
ATOM     16  C   UNL     1       5.475   5.231  15.157  0.00  0.00    +0.000 A 
ATOM     17  C   UNL     1       4.706   4.322  14.412  0.00  0.00    +0.000 A 
ATOM     18  C   UNL     1       5.258   3.630  13.334  0.00  0.00    +0.000 A 
ATOM     19  C   UNL     1       6.584   3.855  12.974  0.00  0.00    +0.000 A 
ATOM     20 CL   UNL     1       7.282   2.956  11.686  0.00  0.00    +0.000 Cl
ATOM     21  C   UNL     1       7.351   4.790  13.664  0.00  0.00    +0.000 A 
ATOM     22  C   UNL     1       6.796   5.480  14.746  0.00  0.00    +0.000 A 
ENDBRANCH  15  16
ENDBRANCH   9  15
TORSDOF 5
ENDMDL
MODEL 4
REMARK VINA RESULT:      -6.6      0.846      1.115
REMARK  Name = 
REMARK  7 active torsions:
REMARK  status: ('A' for Active; 'I' for Inactive)
REMARK    1  A    between atoms: C_1  and  C_2
REMARK    2  A    between atoms: C_2  and  O_3
REMARK    3  A    between atoms: O_3  and  C_4
REMARK    4  A    between atoms: C_4  and  C_6
REMARK    5  A    between atoms: N_12  and  C_13
REMARK    6  A    between atoms: N_14  and  C_15
REMARK    7  A    between atoms: C_15  and  C_16
REMARK                            x       y       z     vdW  Elec       q    Type
REMARK                         _______ _______ _______ _____ _____    ______ ____
ROOT
ATOM      1  C   UNL     1       3.939   3.614  17.655  0.00  0.00    +0.000 A 
ATOM      2  C   UNL     1       4.815   3.481  16.578  0.00  0.00    +0.000 A 
ATOM      3  C   UNL     1       5.607   4.651  16.572  0.00  0.00    +0.000 A 
ATOM      4  C   UNL     1       5.264   5.420  17.628  0.00  0.00    +0.000 A 
ATOM      5  C   UNL     1       6.037   6.612  17.604  0.00  0.00    +0.000 A 
ATOM      6  C   UNL     1       6.841   6.487  16.485  0.00  0.00    +0.000 A 
ATOM      7  N   UNL     1       6.589   5.289  15.867  0.00  0.00    +0.000 N 
ATOM      8  C   UNL     1       7.176   4.769  14.661  0.00  0.00    +0.000 C 
ATOM      9  N   UNL     1       4.275   4.777  18.339  0.00  0.00    +0.000 N 
ENDROOT
BRANCH   1  10
ATOM     10  C   UNL     1       2.865   2.702  18.027  0.00  0.00    +0.000 C 
ATOM     11  O   UNL     1       3.001   1.545  18.393  0.00  0.00    +0.000 OA
BRANCH  10  12
ATOM     12  O   UNL     1       1.666   3.331  17.859  0.00  0.00    +0.000 OA
BRANCH  12  14
ATOM     13  C   UNL     1       0.783   3.482  20.119  0.00  0.00    +0.000 C 
ATOM     14  C   UNL     1       0.596   2.924  18.721  0.00  0.00    +0.000 C 
ENDBRANCH  12  14
ENDBRANCH  10  12
ENDBRANCH   1  10
BRANCH   9  15
ATOM     15  C   UNL     1       3.721   5.314  19.573  0.00  0.00    +0.000 C 
BRANCH  15  16
ATOM     16  C   UNL     1       2.847   6.536  19.385  0.00  0.00    +0.000 A 
ATOM     17  C   UNL     1       2.713   7.206  18.158  0.00  0.00    +0.000 A 
ATOM     18  C   UNL     1       1.967   8.382  18.061  0.00  0.00    +0.000 A 
ATOM     19  C   UNL     1       1.329   8.891  19.189  0.00  0.00    +0.000 A 
ATOM     20 CL   UNL     1       0.463  10.372  19.082  0.00  0.00    +0.000 Cl
ATOM     21  C   UNL     1       1.403   8.215  20.404  0.00  0.00    +0.000 A 
ATOM     22  C   UNL     1       2.154   7.039  20.499  0.00  0.00    +0.000 A 
ENDBRANCH  15  16
ENDBRANCH   9  15
TORSDOF 5
ENDMDL
MODEL 5
REMARK VINA RESULT:      -6.6      2.316      4.416
REMARK  Name = 
REMARK  7 active torsions:
REMARK  status: ('A' for Active; 'I' for Inactive)
REMARK    1  A    between atoms: C_1  and  C_2
REMARK    2  A    between atoms: C_2  and  O_3
REMARK    3  A    between atoms: O_3  and  C_4
REMARK    4  A    between atoms: C_4  and  C_6
REMARK    5  A    between atoms: N_12  and  C_13
REMARK    6  A    between atoms: N_14  and  C_15
REMARK    7  A    between atoms: C_15  and  C_16
REMARK                            x       y       z     vdW  Elec       q    Type
REMARK                         _______ _______ _______ _____ _____    ______ ____
ROOT
ATOM      1  C   UNL     1       5.056   4.731  18.662  0.00  0.00    +0.000 A 
ATOM      2  C   UNL     1       4.674   3.422  18.949  0.00  0.00    +0.000 A 
ATOM      3  C   UNL     1       3.291   3.347  18.667  0.00  0.00    +0.000 A 
ATOM      4  C   UNL     1       2.877   4.537  18.178  0.00  0.00    +0.000 A 
ATOM      5  C   UNL     1       1.481   4.473  17.926  0.00  0.00    +0.000 A 
ATOM      6  C   UNL     1       1.115   3.189  18.290  0.00  0.00    +0.000 A 
ATOM      7  N   UNL     1       2.219   2.502  18.727  0.00  0.00    +0.000 N 
ATOM      8  C   UNL     1       2.287   1.155  19.227  0.00  0.00    +0.000 C 
ATOM      9  N   UNL     1       3.958   5.388  18.117  0.00  0.00    +0.000 N 
ENDROOT
BRANCH   1  10
ATOM     10  C   UNL     1       6.370   5.325  18.871  0.00  0.00    +0.000 C 
ATOM     11  O   UNL     1       6.905   5.520  19.952  0.00  0.00    +0.000 OA
BRANCH  10  12
ATOM     12  O   UNL     1       6.900   5.677  17.664  0.00  0.00    +0.000 OA
BRANCH  12  14
ATOM     13  C   UNL     1       6.786   4.753  15.419  0.00  0.00    +0.000 C 
ATOM     14  C   UNL     1       7.349   4.610  16.819  0.00  0.00    +0.000 C 
ENDBRANCH  12  14
ENDBRANCH  10  12
ENDBRANCH   1  10
BRANCH   9  15
ATOM     15  C   UNL     1       3.864   6.736  17.578  0.00  0.00    +0.000 C 
BRANCH  15  16
ATOM     16  C   UNL     1       2.900   7.639  18.320  0.00  0.00    +0.000 A 
ATOM     17  C   UNL     1       2.499   7.413  19.647  0.00  0.00    +0.000 A 
ATOM     18  C   UNL     1       1.538   8.223  20.253  0.00  0.00    +0.000 A 
ATOM     19  C   UNL     1       0.981   9.284  19.543  0.00  0.00    +0.000 A 
ATOM     20 CL   UNL     1      -0.248  10.242  20.269  0.00  0.00    +0.000 Cl
ATOM     21  C   UNL     1       1.402   9.560  18.246  0.00  0.00    +0.000 A 
ATOM     22  C   UNL     1       2.363   8.745  17.639  0.00  0.00    +0.000 A 
ENDBRANCH  15  16
ENDBRANCH   9  15
TORSDOF 5
ENDMDL
MODEL 6
REMARK VINA RESULT:      -6.6      4.192      6.919
REMARK  Name = 
REMARK  7 active torsions:
REMARK  status: ('A' for Active; 'I' for Inactive)
REMARK    1  A    between atoms: C_1  and  C_2
REMARK    2  A    between atoms: C_2  and  O_3
REMARK    3  A    between atoms: O_3  and  C_4
REMARK    4  A    between atoms: C_4  and  C_6
REMARK    5  A    between atoms: N_12  and  C_13
REMARK    6  A    between atoms: N_14  and  C_15
REMARK    7  A    between atoms: C_15  and  C_16
REMARK                            x       y       z     vdW  Elec       q    Type
REMARK                         _______ _______ _______ _____ _____    ______ ____
ROOT
ATOM      1  C   UNL     1       6.123   4.783  18.004  0.00  0.00    +0.000 A 
ATOM      2  C   UNL     1       5.533   4.114  19.075  0.00  0.00    +0.000 A 
ATOM      3  C   UNL     1       4.141   4.312  18.942  0.00  0.00    +0.000 A 
ATOM      4  C   UNL     1       3.903   5.015  17.813  0.00  0.00    +0.000 A 
ATOM      5  C   UNL     1       2.506   5.244  17.695  0.00  0.00    +0.000 A 
ATOM      6  C   UNL     1       1.954   4.635  18.809  0.00  0.00    +0.000 A 
ATOM      7  N   UNL     1       2.947   4.057  19.557  0.00  0.00    +0.000 N 
ATOM      8  C   UNL     1       2.824   3.350  20.804  0.00  0.00    +0.000 C 
ATOM      9  N   UNL     1       5.105   5.271  17.192  0.00  0.00    +0.000 N 
ENDROOT
BRANCH   1  10
ATOM     10  C   UNL     1       7.549   4.944  17.750  0.00  0.00    +0.000 C 
ATOM     11  O   UNL     1       8.401   4.076  17.869  0.00  0.00    +0.000 OA
BRANCH  10  12
ATOM     12  O   UNL     1       7.798   6.238  17.397  0.00  0.00    +0.000 OA
BRANCH  12  14
ATOM     13  C   UNL     1       8.094   8.588  17.942  0.00  0.00    +0.000 C 
ATOM     14  C   UNL     1       8.024   7.167  18.465  0.00  0.00    +0.000 C 
ENDBRANCH  12  14
ENDBRANCH  10  12
ENDBRANCH   1  10
BRANCH   9  15
ATOM     15  C   UNL     1       5.196   5.963  15.914  0.00  0.00    +0.000 C 
BRANCH  15  16
ATOM     16  C   UNL     1       5.757   5.121  14.787  0.00  0.00    +0.000 A 
ATOM     17  C   UNL     1       7.049   5.296  14.264  0.00  0.00    +0.000 A 
ATOM     18  C   UNL     1       7.484   4.555  13.165  0.00  0.00    +0.000 A 
ATOM     19  C   UNL     1       6.637   3.613  12.588  0.00  0.00    +0.000 A 
ATOM     20 CL   UNL     1       7.150   2.746  11.195  0.00  0.00    +0.000 Cl
ATOM     21  C   UNL     1       5.372   3.384  13.122  0.00  0.00    +0.000 A 
ATOM     22  C   UNL     1       4.937   4.130  14.222  0.00  0.00    +0.000 A 
ENDBRANCH  15  16
ENDBRANCH   9  15
TORSDOF 5
ENDMDL
MODEL 7
REMARK VINA RESULT:      -6.6      1.415      1.800
REMARK  Name = 
REMARK  7 active torsions:
REMARK  status: ('A' for Active; 'I' for Inactive)
REMARK    1  A    between atoms: C_1  and  C_2
REMARK    2  A    between atoms: C_2  and  O_3
REMARK    3  A    between atoms: O_3  and  C_4
REMARK    4  A    between atoms: C_4  and  C_6
REMARK    5  A    between atoms: N_12  and  C_13
REMARK    6  A    between atoms: N_14  and  C_15
REMARK    7  A    between atoms: C_15  and  C_16
REMARK                            x       y       z     vdW  Elec       q    Type
REMARK                         _______ _______ _______ _____ _____    ______ ____
ROOT
ATOM      1  C   UNL     1       3.332   4.680  17.961  0.00  0.00    +0.000 A 
ATOM      2  C   UNL     1       4.609   4.154  18.146  0.00  0.00    +0.000 A 
ATOM      3  C   UNL     1       5.510   5.205  17.864  0.00  0.00    +0.000 A 
ATOM      4  C   UNL     1       4.807   6.323  17.582  0.00  0.00    +0.000 A 
ATOM      5  C   UNL     1       5.712   7.372  17.266  0.00  0.00    +0.000 A 
ATOM      6  C   UNL     1       6.967   6.801  17.384  0.00  0.00    +0.000 A 
ATOM      7  N   UNL     1       6.843   5.489  17.761  0.00  0.00    +0.000 N 
ATOM      8  C   UNL     1       7.887   4.521  17.968  0.00  0.00    +0.000 C 
ATOM      9  N   UNL     1       3.464   6.037  17.687  0.00  0.00    +0.000 N 
ENDROOT
BRANCH   1  10
ATOM     10  C   UNL     1       2.067   3.961  18.049  0.00  0.00    +0.000 C 
ATOM     11  O   UNL     1       1.123   4.075  17.283  0.00  0.00    +0.000 OA
BRANCH  10  12
ATOM     12  O   UNL     1       2.081   3.166  19.158  0.00  0.00    +0.000 OA
BRANCH  12  14
ATOM     13  C   UNL     1       1.767   3.138  21.568  0.00  0.00    +0.000 C 
ATOM     14  C   UNL     1       1.188   3.523  20.220  0.00  0.00    +0.000 C 
ENDBRANCH  12  14
ENDBRANCH  10  12
ENDBRANCH   1  10
BRANCH   9  15
ATOM     15  C   UNL     1       2.431   7.046  17.502  0.00  0.00    +0.000 C 
BRANCH  15  16
ATOM     16  C   UNL     1       1.999   7.737  18.778  0.00  0.00    +0.000 A 
ATOM     17  C   UNL     1       2.055   7.128  20.042  0.00  0.00    +0.000 A 
ATOM     18  C   UNL     1       1.559   7.777  21.173  0.00  0.00    +0.000 A 
ATOM     19  C   UNL     1       1.017   9.054  21.056  0.00  0.00    +0.000 A 
ATOM     20 CL   UNL     1       0.349   9.826  22.439  0.00  0.00    +0.000 Cl
ATOM     21  C   UNL     1       0.999   9.700  19.823  0.00  0.00    +0.000 A 
ATOM     22  C   UNL     1       1.495   9.046  18.690  0.00  0.00    +0.000 A 
ENDBRANCH  15  16
ENDBRANCH   9  15
TORSDOF 5
ENDMDL
MODEL 8
REMARK VINA RESULT:      -6.5      1.530      2.118
REMARK  Name = 
REMARK  7 active torsions:
REMARK  status: ('A' for Active; 'I' for Inactive)
REMARK    1  A    between atoms: C_1  and  C_2
REMARK    2  A    between atoms: C_2  and  O_3
REMARK    3  A    between atoms: O_3  and  C_4
REMARK    4  A    between atoms: C_4  and  C_6
REMARK    5  A    between atoms: N_12  and  C_13
REMARK    6  A    between atoms: N_14  and  C_15
REMARK    7  A    between atoms: C_15  and  C_16
REMARK                            x       y       z     vdW  Elec       q    Type
REMARK                         _______ _______ _______ _____ _____    ______ ____
ROOT
ATOM      1  C   UNL     1       3.714   4.402  19.442  0.00  0.00    +0.000 A 
ATOM      2  C   UNL     1       5.090   4.189  19.379  0.00  0.00    +0.000 A 
ATOM      3  C   UNL     1       5.541   4.881  18.232  0.00  0.00    +0.000 A 
ATOM      4  C   UNL     1       4.496   5.526  17.669  0.00  0.00    +0.000 A 
ATOM      5  C   UNL     1       4.942   6.195  16.497  0.00  0.00    +0.000 A 
ATOM      6  C   UNL     1       6.293   5.904  16.419  0.00  0.00    +0.000 A 
ATOM      7  N   UNL     1       6.658   5.118  17.481  0.00  0.00    +0.000 N 
ATOM      8  C   UNL     1       7.953   4.563  17.773  0.00  0.00    +0.000 C 
ATOM      9  N   UNL     1       3.371   5.288  18.426  0.00  0.00    +0.000 N 
ENDROOT
BRANCH   1  10
ATOM     10  C   UNL     1       2.782   3.823  20.401  0.00  0.00    +0.000 C 
ATOM     11  O   UNL     1       2.198   4.427  21.288  0.00  0.00    +0.000 OA
BRANCH  10  12
ATOM     12  O   UNL     1       2.694   2.479  20.183  0.00  0.00    +0.000 OA
BRANCH  12  14
ATOM     13  C   UNL     1       0.673   2.451  18.833  0.00  0.00    +0.000 C 
ATOM     14  C   UNL     1       2.135   2.062  18.932  0.00  0.00    +0.000 C 
ENDBRANCH  12  14
ENDBRANCH  10  12
ENDBRANCH   1  10
BRANCH   9  15
ATOM     15  C   UNL     1       2.080   5.889  18.123  0.00  0.00    +0.000 C 
BRANCH  15  16
ATOM     16  C   UNL     1       1.900   7.289  18.671  0.00  0.00    +0.000 A 
ATOM     17  C   UNL     1       1.708   7.565  20.035  0.00  0.00    +0.000 A 
ATOM     18  C   UNL     1       1.455   8.865  20.475  0.00  0.00    +0.000 A 
ATOM     19  C   UNL     1       1.412   9.909  19.556  0.00  0.00    +0.000 A 
ATOM     20 CL   UNL     1       1.038  11.499  20.091  0.00  0.00    +0.000 Cl
ATOM     21  C   UNL     1       1.653   9.669  18.206  0.00  0.00    +0.000 A 
ATOM     22  C   UNL     1       1.903   8.365  17.767  0.00  0.00    +0.000 A 
ENDBRANCH  15  16
ENDBRANCH   9  15
TORSDOF 5
ENDMDL
MODEL 9
REMARK VINA RESULT:      -6.5      2.512      4.472
REMARK  Name = 
REMARK  7 active torsions:
REMARK  status: ('A' for Active; 'I' for Inactive)
REMARK    1  A    between atoms: C_1  and  C_2
REMARK    2  A    between atoms: C_2  and  O_3
REMARK    3  A    between atoms: O_3  and  C_4
REMARK    4  A    between atoms: C_4  and  C_6
REMARK    5  A    between atoms: N_12  and  C_13
REMARK    6  A    between atoms: N_14  and  C_15
REMARK    7  A    between atoms: C_15  and  C_16
REMARK                            x       y       z     vdW  Elec       q    Type
REMARK                         _______ _______ _______ _____ _____    ______ ____
ROOT
ATOM      1  C   UNL     1       5.109   4.973  18.644  0.00  0.00    +0.000 A 
ATOM      2  C   UNL     1       4.801   3.634  18.881  0.00  0.00    +0.000 A 
ATOM      3  C   UNL     1       3.436   3.482  18.549  0.00  0.00    +0.000 A 
ATOM      4  C   UNL     1       2.964   4.658  18.080  0.00  0.00    +0.000 A 
ATOM      5  C   UNL     1       1.583   4.515  17.778  0.00  0.00    +0.000 A 
ATOM      6  C   UNL     1       1.288   3.200  18.093  0.00  0.00    +0.000 A 
ATOM      7  N   UNL     1       2.417   2.571  18.548  0.00  0.00    +0.000 N 
ATOM      8  C   UNL     1       2.555   1.215  19.011  0.00  0.00    +0.000 C 
ATOM      9  N   UNL     1       3.990   5.576  18.080  0.00  0.00    +0.000 N 
ENDROOT
BRANCH   1  10
ATOM     10  C   UNL     1       6.375   5.641  18.915  0.00  0.00    +0.000 C 
ATOM     11  O   UNL     1       7.063   5.497  19.915  0.00  0.00    +0.000 OA
BRANCH  10  12
ATOM     12  O   UNL     1       6.658   6.498  17.891  0.00  0.00    +0.000 OA
BRANCH  12  14
ATOM     13  C   UNL     1       7.806   8.635  17.747  0.00  0.00    +0.000 C 
ATOM     14  C   UNL     1       7.941   7.134  17.916  0.00  0.00    +0.000 C 
ENDBRANCH  12  14
ENDBRANCH  10  12
ENDBRANCH   1  10
BRANCH   9  15
ATOM     15  C   UNL     1       3.828   6.932  17.577  0.00  0.00    +0.000 C 
BRANCH  15  16
ATOM     16  C   UNL     1       2.765   7.741  18.292  0.00  0.00    +0.000 A 
ATOM     17  C   UNL     1       2.084   8.815  17.696  0.00  0.00    +0.000 A 
ATOM     18  C   UNL     1       1.179   9.585  18.429  0.00  0.00    +0.000 A 
ATOM     19  C   UNL     1       0.929   9.274  19.763  0.00  0.00    +0.000 A 
ATOM     20 CL   UNL     1      -0.137  10.261  20.681  0.00  0.00    +0.000 Cl
ATOM     21  C   UNL     1       1.552   8.181  20.359  0.00  0.00    +0.000 A 
ATOM     22  C   UNL     1       2.460   7.414  19.624  0.00  0.00    +0.000 A 
ENDBRANCH  15  16
ENDBRANCH   9  15
TORSDOF 5
ENDMDL
