MODEL 1
REMARK VINA RESULT:      -8.4      0.000      0.000
REMARK  Name = 
REMARK  12 active torsions:
REMARK  status: ('A' for Active; 'I' for Inactive)
REMARK    1  A    between atoms: C_1  and  C_2
REMARK    2  A    between atoms: C_2  and  C_3
REMARK    3  A    between atoms: C_3  and  C_4
REMARK    4  A    between atoms: C_3  and  C_5
REMARK    5  A    between atoms: C_5  and  C_6
REMARK    6  A    between atoms: C_6  and  C_7
REMARK    7  A    between atoms: C_7  and  C_8
REMARK    8  A    between atoms: C_9  and  C_10
REMARK    9  A    between atoms: C_11  and  C_12
REMARK   10  A    between atoms: C_13  and  O_14
REMARK   11  A    between atoms: C_20  and  O_21
REMARK   12  A    between atoms: C_24  and  C_25
REMARK                            x       y       z     vdW  Elec       q    Type
REMARK                         _______ _______ _______ _____ _____    ______ ____
ROOT
ATOM      1  C   UNL     1       5.790   5.999  16.822  0.00  0.00    +0.000 A 
ATOM      2  C   UNL     1       6.266   4.951  16.005  0.00  0.00    +0.000 A 
ATOM      3  C   UNL     1       7.549   5.078  15.227  0.00  0.00    +0.000 C 
ATOM      4  C   UNL     1       5.530   3.766  15.952  0.00  0.00    +0.000 A 
ATOM      5  C   UNL     1       4.396   3.561  16.741  0.00  0.00    +0.000 A 
ATOM      6  C   UNL     1       3.959   4.560  17.637  0.00  0.00    +0.000 A 
ATOM      7  C   UNL     1       4.665   5.764  17.643  0.00  0.00    +0.000 A 
ATOM      8  N   UNL     1       4.045   6.582  18.557  0.00  0.00    +0.000 N 
ATOM      9  C   UNL     1       3.009   5.938  19.190  0.00  0.00    +0.000 A 
ATOM     10  C   UNL     1       2.151   6.372  20.216  0.00  0.00    +0.000 A 
ATOM     11  C   UNL     1       1.162   5.514  20.685  0.00  0.00    +0.000 A 
ATOM     12  C   UNL     1       1.022   4.247  20.137  0.00  0.00    +0.000 A 
ATOM     13  C   UNL     1       1.875   3.809  19.109  0.00  0.00    +0.000 A 
ATOM     14  C   UNL     1       2.904   4.659  18.618  0.00  0.00    +0.000 A 
ATOM     15  H   UNL     1       4.350   7.524  18.746  0.00  0.00    +0.000 HD
ENDROOT
BRANCH   1  18
ATOM     16  C   UNL     1       7.403   7.674  17.695  0.00  0.00    +0.000 C 
ATOM     17  C   UNL     1       8.082   6.686  18.610  0.00  0.00    +0.000 C 
ATOM     18  C   UNL     1       6.410   7.327  16.847  0.00  0.00    +0.000 C 
BRANCH  16  19
ATOM     19  C   UNL     1       7.819   9.127  17.839  0.00  0.00    +0.000 C 
BRANCH  19  20
ATOM     20  C   UNL     1       8.949   9.401  18.843  0.00  0.00    +0.000 C 
BRANCH  20  21
ATOM     21  C   UNL     1       9.278  10.889  19.070  0.00  0.00    +0.000 C 
ATOM     22  C   UNL     1       9.556  11.180  20.549  0.00  0.00    +0.000 C 
BRANCH  21  24
ATOM     23  C   UNL     1      11.742  11.623  19.056  0.00  0.00    +0.000 C 
ATOM     24  C   UNL     1      10.491  11.347  18.233  0.00  0.00    +0.000 C 
ENDBRANCH  21  24
ENDBRANCH  20  21
ENDBRANCH  19  20
ENDBRANCH  16  19
ENDBRANCH   1  18
BRANCH   4  25
ATOM     25  O   UNL     1       5.865   2.719  15.137  0.00  0.00    +0.000 OA
ATOM     26  H   UNL     1       5.929   1.905  15.662  0.00  0.00    +0.000 HD
ENDBRANCH   4  25
BRANCH  10  27
ATOM     27  O   UNL     1       2.228   7.606  20.808  0.00  0.00    +0.000 OA
ATOM     28  H   UNL     1       1.663   8.228  20.323  0.00  0.00    +0.000 HD
ENDBRANCH  10  27
BRANCH  13  29
ATOM     29  C   UNL     1       1.665   2.444  18.586  0.00  0.00    +0.000 C 
ATOM     30  O   UNL     1       2.451   1.533  18.820  0.00  0.00    +0.000 OA
ENDBRANCH  13  29
TORSDOF 8
ENDMDL
MODEL 2
REMARK VINA RESULT:      -7.9      3.557      6.347
REMARK  Name = 
REMARK  12 active torsions:
REMARK  status: ('A' for Active; 'I' for Inactive)
REMARK    1  A    between atoms: C_1  and  C_2
REMARK    2  A    between atoms: C_2  and  C_3
REMARK    3  A    between atoms: C_3  and  C_4
REMARK    4  A    between atoms: C_3  and  C_5
REMARK    5  A    between atoms: C_5  and  C_6
REMARK    6  A    between atoms: C_6  and  C_7
REMARK    7  A    between atoms: C_7  and  C_8
REMARK    8  A    between atoms: C_9  and  C_10
REMARK    9  A    between atoms: C_11  and  C_12
REMARK   10  A    between atoms: C_13  and  O_14
REMARK   11  A    between atoms: C_20  and  O_21
REMARK   12  A    between atoms: C_24  and  C_25
REMARK                            x       y       z     vdW  Elec       q    Type
REMARK                         _______ _______ _______ _____ _____    ______ ____
ROOT
ATOM      1  C   UNL     1       3.364   5.312  18.425  0.00  0.00    +0.000 A 
ATOM      2  C   UNL     1       3.278   4.277  19.381  0.00  0.00    +0.000 A 
ATOM      3  C   UNL     1       4.039   2.988  19.217  0.00  0.00    +0.000 C 
ATOM      4  C   UNL     1       2.484   4.483  20.510  0.00  0.00    +0.000 A 
ATOM      5  C   UNL     1       1.850   5.702  20.760  0.00  0.00    +0.000 A 
ATOM      6  C   UNL     1       2.003   6.783  19.866  0.00  0.00    +0.000 A 
ATOM      7  C   UNL     1       2.750   6.552  18.709  0.00  0.00    +0.000 A 
ATOM      8  N   UNL     1       2.733   7.721  17.987  0.00  0.00    +0.000 N 
ATOM      9  C   UNL     1       2.063   8.718  18.656  0.00  0.00    +0.000 A 
ATOM     10  C   UNL     1       1.852  10.066  18.316  0.00  0.00    +0.000 A 
ATOM     11  C   UNL     1       1.122  10.878  19.179  0.00  0.00    +0.000 A 
ATOM     12  C   UNL     1       0.604  10.357  20.355  0.00  0.00    +0.000 A 
ATOM     13  C   UNL     1       0.810   9.009  20.697  0.00  0.00    +0.000 A 
ATOM     14  C   UNL     1       1.563   8.158  19.842  0.00  0.00    +0.000 A 
ATOM     15  H   UNL     1       3.189   7.822  17.093  0.00  0.00    +0.000 HD
ENDROOT
BRANCH   1  18
ATOM     16  C   UNL     1       5.363   5.445  16.957  0.00  0.00    +0.000 C 
ATOM     17  C   UNL     1       6.286   5.833  18.085  0.00  0.00    +0.000 C 
ATOM     18  C   UNL     1       4.058   5.151  17.144  0.00  0.00    +0.000 C 
BRANCH  16  19
ATOM     19  C   UNL     1       5.948   5.497  15.557  0.00  0.00    +0.000 C 
BRANCH  19  20
ATOM     20  C   UNL     1       5.829   4.204  14.736  0.00  0.00    +0.000 C 
BRANCH  20  21
ATOM     21  C   UNL     1       6.021   4.373  13.217  0.00  0.00    +0.000 C 
ATOM     22  C   UNL     1       7.458   4.788  12.878  0.00  0.00    +0.000 C 
BRANCH  21  24
ATOM     23  C   UNL     1       4.485   3.219  11.507  0.00  0.00    +0.000 C 
ATOM     24  C   UNL     1       5.678   3.083  12.443  0.00  0.00    +0.000 C 
ENDBRANCH  21  24
ENDBRANCH  20  21
ENDBRANCH  19  20
ENDBRANCH  16  19
ENDBRANCH   1  18
BRANCH   4  25
ATOM     25  O   UNL     1       2.276   3.517  21.459  0.00  0.00    +0.000 OA
ATOM     26  H   UNL     1       3.127   3.133  21.723  0.00  0.00    +0.000 HD
ENDBRANCH   4  25
BRANCH  10  27
ATOM     27  O   UNL     1       2.333  10.655  17.175  0.00  0.00    +0.000 OA
ATOM     28  H   UNL     1       2.332  11.618  17.289  0.00  0.00    +0.000 HD
ENDBRANCH  10  27
BRANCH  13  29
ATOM     29  C   UNL     1       0.231   8.535  21.970  0.00  0.00    +0.000 C 
ATOM     30  O   UNL     1       0.305   9.196  23.001  0.00  0.00    +0.000 OA
ENDBRANCH  13  29
TORSDOF 8
ENDMDL
MODEL 3
REMARK VINA RESULT:      -7.9      3.607      6.161
REMARK  Name = 
REMARK  12 active torsions:
REMARK  status: ('A' for Active; 'I' for Inactive)
REMARK    1  A    between atoms: C_1  and  C_2
REMARK    2  A    between atoms: C_2  and  C_3
REMARK    3  A    between atoms: C_3  and  C_4
REMARK    4  A    between atoms: C_3  and  C_5
REMARK    5  A    between atoms: C_5  and  C_6
REMARK    6  A    between atoms: C_6  and  C_7
REMARK    7  A    between atoms: C_7  and  C_8
REMARK    8  A    between atoms: C_9  and  C_10
REMARK    9  A    between atoms: C_11  and  C_12
REMARK   10  A    between atoms: C_13  and  O_14
REMARK   11  A    between atoms: C_20  and  O_21
REMARK   12  A    between atoms: C_24  and  C_25
REMARK                            x       y       z     vdW  Elec       q    Type
REMARK                         _______ _______ _______ _____ _____    ______ ____
ROOT
ATOM      1  C   UNL     1       3.207   5.341  18.673  0.00  0.00    +0.000 A 
ATOM      2  C   UNL     1       3.125   4.325  19.650  0.00  0.00    +0.000 A 
ATOM      3  C   UNL     1       3.889   3.034  19.511  0.00  0.00    +0.000 C 
ATOM      4  C   UNL     1       2.333   4.552  20.776  0.00  0.00    +0.000 A 
ATOM      5  C   UNL     1       1.697   5.775  21.002  0.00  0.00    +0.000 A 
ATOM      6  C   UNL     1       1.846   6.837  20.086  0.00  0.00    +0.000 A 
ATOM      7  C   UNL     1       2.591   6.585  18.933  0.00  0.00    +0.000 A 
ATOM      8  N   UNL     1       2.570   7.739  18.187  0.00  0.00    +0.000 N 
ATOM      9  C   UNL     1       1.898   8.747  18.836  0.00  0.00    +0.000 A 
ATOM     10  C   UNL     1       1.683  10.087  18.470  0.00  0.00    +0.000 A 
ATOM     11  C   UNL     1       0.952  10.915  19.316  0.00  0.00    +0.000 A 
ATOM     12  C   UNL     1       0.437  10.417  20.504  0.00  0.00    +0.000 A 
ATOM     13  C   UNL     1       0.648   9.077  20.873  0.00  0.00    +0.000 A 
ATOM     14  C   UNL     1       1.401   8.211  20.035  0.00  0.00    +0.000 A 
ATOM     15  H   UNL     1       3.024   7.822  17.290  0.00  0.00    +0.000 HD
ENDROOT
BRANCH   1  18
ATOM     16  C   UNL     1       5.191   5.491  17.186  0.00  0.00    +0.000 C 
ATOM     17  C   UNL     1       6.105   5.961  18.291  0.00  0.00    +0.000 C 
ATOM     18  C   UNL     1       3.900   5.155  17.394  0.00  0.00    +0.000 C 
BRANCH  16  19
ATOM     19  C   UNL     1       5.765   5.510  15.781  0.00  0.00    +0.000 C 
BRANCH  19  20
ATOM     20  C   UNL     1       5.347   4.342  14.874  0.00  0.00    +0.000 C 
BRANCH  20  21
ATOM     21  C   UNL     1       6.417   3.879  13.868  0.00  0.00    +0.000 C 
ATOM     22  C   UNL     1       5.789   3.487  12.525  0.00  0.00    +0.000 C 
BRANCH  21  24
ATOM     23  C   UNL     1       7.693   5.308  12.152  0.00  0.00    +0.000 C 
ATOM     24  C   UNL     1       7.487   4.964  13.620  0.00  0.00    +0.000 C 
ENDBRANCH  21  24
ENDBRANCH  20  21
ENDBRANCH  19  20
ENDBRANCH  16  19
ENDBRANCH   1  18
BRANCH   4  25
ATOM     25  O   UNL     1       2.129   3.606  21.745  0.00  0.00    +0.000 OA
ATOM     26  H   UNL     1       1.177   3.454  21.856  0.00  0.00    +0.000 HD
ENDBRANCH   4  25
BRANCH  10  27
ATOM     27  O   UNL     1       2.161  10.654  17.316  0.00  0.00    +0.000 OA
ATOM     28  H   UNL     1       3.087  10.911  17.447  0.00  0.00    +0.000 HD
ENDBRANCH  10  27
BRANCH  13  29
ATOM     29  C   UNL     1       0.073   8.628  22.157  0.00  0.00    +0.000 C 
ATOM     30  O   UNL     1      -0.563   9.385  22.883  0.00  0.00    +0.000 OA
ENDBRANCH  13  29
TORSDOF 8
ENDMDL
MODEL 4
REMARK VINA RESULT:      -7.3      4.330      6.386
REMARK  Name = 
REMARK  12 active torsions:
REMARK  status: ('A' for Active; 'I' for Inactive)
REMARK    1  A    between atoms: C_1  and  C_2
REMARK    2  A    between atoms: C_2  and  C_3
REMARK    3  A    between atoms: C_3  and  C_4
REMARK    4  A    between atoms: C_3  and  C_5
REMARK    5  A    between atoms: C_5  and  C_6
REMARK    6  A    between atoms: C_6  and  C_7
REMARK    7  A    between atoms: C_7  and  C_8
REMARK    8  A    between atoms: C_9  and  C_10
REMARK    9  A    between atoms: C_11  and  C_12
REMARK   10  A    between atoms: C_13  and  O_14
REMARK   11  A    between atoms: C_20  and  O_21
REMARK   12  A    between atoms: C_24  and  C_25
REMARK                            x       y       z     vdW  Elec       q    Type
REMARK                         _______ _______ _______ _____ _____    ______ ____
ROOT
ATOM      1  C   UNL     1       3.550   5.233  18.978  0.00  0.00    +0.000 A 
ATOM      2  C   UNL     1       3.406   4.253  19.983  0.00  0.00    +0.000 A 
ATOM      3  C   UNL     1       4.269   3.018  20.010  0.00  0.00    +0.000 C 
ATOM      4  C   UNL     1       2.454   4.463  20.982  0.00  0.00    +0.000 A 
ATOM      5  C   UNL     1       1.710   5.643  21.060  0.00  0.00    +0.000 A 
ATOM      6  C   UNL     1       1.908   6.677  20.122  0.00  0.00    +0.000 A 
ATOM      7  C   UNL     1       2.819   6.436  19.092  0.00  0.00    +0.000 A 
ATOM      8  N   UNL     1       2.821   7.555  18.294  0.00  0.00    +0.000 N 
ATOM      9  C   UNL     1       1.999   8.535  18.799  0.00  0.00    +0.000 A 
ATOM     10  C   UNL     1       1.744   9.840  18.342  0.00  0.00    +0.000 A 
ATOM     11  C   UNL     1       0.849  10.643  19.043  0.00  0.00    +0.000 A 
ATOM     12  C   UNL     1       0.213  10.155  20.174  0.00  0.00    +0.000 A 
ATOM     13  C   UNL     1       0.463   8.850  20.633  0.00  0.00    +0.000 A 
ATOM     14  C   UNL     1       1.381   8.010  19.945  0.00  0.00    +0.000 A 
ATOM     15  H   UNL     1       3.386   7.637  17.464  0.00  0.00    +0.000 HD
ENDROOT
BRANCH   1  18
ATOM     16  C   UNL     1       4.164   4.177  16.814  0.00  0.00    +0.000 C 
ATOM     17  C   UNL     1       2.875   3.399  16.717  0.00  0.00    +0.000 C 
ATOM     18  C   UNL     1       4.422   5.050  17.813  0.00  0.00    +0.000 C 
BRANCH  16  19
ATOM     19  C   UNL     1       5.226   3.858  15.779  0.00  0.00    +0.000 C 
BRANCH  19  20
ATOM     20  C   UNL     1       5.909   5.070  15.127  0.00  0.00    +0.000 C 
BRANCH  20  21
ATOM     21  C   UNL     1       6.285   4.891  13.644  0.00  0.00    +0.000 C 
ATOM     22  C   UNL     1       7.770   5.192  13.404  0.00  0.00    +0.000 C 
BRANCH  21  24
ATOM     23  C   UNL     1       4.941   3.415  12.023  0.00  0.00    +0.000 C 
ATOM     24  C   UNL     1       5.977   3.466  13.137  0.00  0.00    +0.000 C 
ENDBRANCH  21  24
ENDBRANCH  20  21
ENDBRANCH  19  20
ENDBRANCH  16  19
ENDBRANCH   1  18
BRANCH   4  25
ATOM     25  O   UNL     1       2.186   3.543  21.959  0.00  0.00    +0.000 OA
ATOM     26  H   UNL     1       2.580   2.689  21.719  0.00  0.00    +0.000 HD
ENDBRANCH   4  25
BRANCH  10  27
ATOM     27  O   UNL     1       2.334  10.395  17.236  0.00  0.00    +0.000 OA
ATOM     28  H   UNL     1       3.290  10.463  17.385  0.00  0.00    +0.000 HD
ENDBRANCH  10  27
BRANCH  13  29
ATOM     29  C   UNL     1      -0.249   8.409  21.849  0.00  0.00    +0.000 C 
ATOM     30  O   UNL     1      -0.668   9.208  22.680  0.00  0.00    +0.000 OA
ENDBRANCH  13  29
TORSDOF 8
ENDMDL
MODEL 5
REMARK VINA RESULT:      -7.2      3.466      6.253
REMARK  Name = 
REMARK  12 active torsions:
REMARK  status: ('A' for Active; 'I' for Inactive)
REMARK    1  A    between atoms: C_1  and  C_2
REMARK    2  A    between atoms: C_2  and  C_3
REMARK    3  A    between atoms: C_3  and  C_4
REMARK    4  A    between atoms: C_3  and  C_5
REMARK    5  A    between atoms: C_5  and  C_6
REMARK    6  A    between atoms: C_6  and  C_7
REMARK    7  A    between atoms: C_7  and  C_8
REMARK    8  A    between atoms: C_9  and  C_10
REMARK    9  A    between atoms: C_11  and  C_12
REMARK   10  A    between atoms: C_13  and  O_14
REMARK   11  A    between atoms: C_20  and  O_21
REMARK   12  A    between atoms: C_24  and  C_25
REMARK                            x       y       z     vdW  Elec       q    Type
REMARK                         _______ _______ _______ _____ _____    ______ ____
ROOT
ATOM      1  C   UNL     1       3.110   5.778  18.508  0.00  0.00    +0.000 A 
ATOM      2  C   UNL     1       3.073   4.733  19.456  0.00  0.00    +0.000 A 
ATOM      3  C   UNL     1       3.808   3.438  19.231  0.00  0.00    +0.000 C 
ATOM      4  C   UNL     1       2.354   4.934  20.635  0.00  0.00    +0.000 A 
ATOM      5  C   UNL     1       1.750   6.156  20.937  0.00  0.00    +0.000 A 
ATOM      6  C   UNL     1       1.858   7.246  20.047  0.00  0.00    +0.000 A 
ATOM      7  C   UNL     1       2.528   7.020  18.843  0.00  0.00    +0.000 A 
ATOM      8  N   UNL     1       2.479   8.198  18.136  0.00  0.00    +0.000 N 
ATOM      9  C   UNL     1       1.863   9.194  18.856  0.00  0.00    +0.000 A 
ATOM     10  C   UNL     1       1.645  10.547  18.545  0.00  0.00    +0.000 A 
ATOM     11  C   UNL     1       0.979  11.357  19.460  0.00  0.00    +0.000 A 
ATOM     12  C   UNL     1       0.530  10.828  20.661  0.00  0.00    +0.000 A 
ATOM     13  C   UNL     1       0.743   9.474  20.975  0.00  0.00    +0.000 A 
ATOM     14  C   UNL     1       1.432   8.625  20.066  0.00  0.00    +0.000 A 
ATOM     15  H   UNL     1       2.879   8.304  17.217  0.00  0.00    +0.000 HD
ENDROOT
BRANCH   1  18
ATOM     16  C   UNL     1       4.966   6.051  16.879  0.00  0.00    +0.000 C 
ATOM     17  C   UNL     1       5.919   6.602  17.910  0.00  0.00    +0.000 C 
ATOM     18  C   UNL     1       3.721   5.624  17.184  0.00  0.00    +0.000 C 
BRANCH  16  19
ATOM     19  C   UNL     1       5.434   6.090  15.436  0.00  0.00    +0.000 C 
BRANCH  19  20
ATOM     20  C   UNL     1       6.656   5.219  15.107  0.00  0.00    +0.000 C 
BRANCH  20  21
ATOM     21  C   UNL     1       6.332   3.793  14.622  0.00  0.00    +0.000 C 
ATOM     22  C   UNL     1       5.447   3.048  15.629  0.00  0.00    +0.000 C 
BRANCH  21  24
ATOM     23  C   UNL     1       6.559   3.488  12.079  0.00  0.00    +0.000 C 
ATOM     24  C   UNL     1       5.632   3.795  13.247  0.00  0.00    +0.000 C 
ENDBRANCH  21  24
ENDBRANCH  20  21
ENDBRANCH  19  20
ENDBRANCH  16  19
ENDBRANCH   1  18
BRANCH   4  25
ATOM     25  O   UNL     1       2.196   3.960  21.584  0.00  0.00    +0.000 OA
ATOM     26  H   UNL     1       2.924   4.006  22.223  0.00  0.00    +0.000 HD
ENDBRANCH   4  25
BRANCH  10  27
ATOM     27  O   UNL     1       2.059  11.144  17.382  0.00  0.00    +0.000 OA
ATOM     28  H   UNL     1       1.761  12.067  17.374  0.00  0.00    +0.000 HD
ENDBRANCH  10  27
BRANCH  13  29
ATOM     29  C   UNL     1       0.241   8.991  22.277  0.00  0.00    +0.000 C 
ATOM     30  O   UNL     1      -0.869   8.481  22.395  0.00  0.00    +0.000 OA
ENDBRANCH  13  29
TORSDOF 8
ENDMDL
MODEL 6
REMARK VINA RESULT:      -7.2      3.260      5.766
REMARK  Name = 
REMARK  12 active torsions:
REMARK  status: ('A' for Active; 'I' for Inactive)
REMARK    1  A    between atoms: C_1  and  C_2
REMARK    2  A    between atoms: C_2  and  C_3
REMARK    3  A    between atoms: C_3  and  C_4
REMARK    4  A    between atoms: C_3  and  C_5
REMARK    5  A    between atoms: C_5  and  C_6
REMARK    6  A    between atoms: C_6  and  C_7
REMARK    7  A    between atoms: C_7  and  C_8
REMARK    8  A    between atoms: C_9  and  C_10
REMARK    9  A    between atoms: C_11  and  C_12
REMARK   10  A    between atoms: C_13  and  O_14
REMARK   11  A    between atoms: C_20  and  O_21
REMARK   12  A    between atoms: C_24  and  C_25
REMARK                            x       y       z     vdW  Elec       q    Type
REMARK                         _______ _______ _______ _____ _____    ______ ____
ROOT
ATOM      1  C   UNL     1       3.365   5.659  18.916  0.00  0.00    +0.000 A 
ATOM      2  C   UNL     1       3.259   4.632  19.879  0.00  0.00    +0.000 A 
ATOM      3  C   UNL     1       4.124   3.400  19.817  0.00  0.00    +0.000 C 
ATOM      4  C   UNL     1       2.343   4.793  20.920  0.00  0.00    +0.000 A 
ATOM      5  C   UNL     1       1.600   5.964  21.080  0.00  0.00    +0.000 A 
ATOM      6  C   UNL     1       1.764   7.042  20.185  0.00  0.00    +0.000 A 
ATOM      7  C   UNL     1       2.638   6.853  19.113  0.00  0.00    +0.000 A 
ATOM      8  N   UNL     1       2.609   8.009  18.370  0.00  0.00    +0.000 N 
ATOM      9  C   UNL     1       1.804   8.961  18.949  0.00  0.00    +0.000 A 
ATOM     10  C   UNL     1       1.531  10.285  18.563  0.00  0.00    +0.000 A 
ATOM     11  C   UNL     1       0.661  11.052  19.332  0.00  0.00    +0.000 A 
ATOM     12  C   UNL     1       0.066  10.509  20.461  0.00  0.00    +0.000 A 
ATOM     13  C   UNL     1       0.334   9.184  20.849  0.00  0.00    +0.000 A 
ATOM     14  C   UNL     1       1.229   8.381  20.090  0.00  0.00    +0.000 A 
ATOM     15  H   UNL     1       3.144   8.131  17.524  0.00  0.00    +0.000 HD
ENDROOT
BRANCH   1  18
ATOM     16  C   UNL     1       3.987   4.607  16.753  0.00  0.00    +0.000 C 
ATOM     17  C   UNL     1       2.787   3.692  16.743  0.00  0.00    +0.000 C 
ATOM     18  C   UNL     1       4.195   5.533  17.713  0.00  0.00    +0.000 C 
BRANCH  16  19
ATOM     19  C   UNL     1       5.027   4.371  15.674  0.00  0.00    +0.000 C 
BRANCH  19  20
ATOM     20  C   UNL     1       6.327   3.696  16.135  0.00  0.00    +0.000 C 
BRANCH  20  21
ATOM     21  C   UNL     1       7.437   4.660  16.596  0.00  0.00    +0.000 C 
ATOM     22  C   UNL     1       7.179   6.088  16.100  0.00  0.00    +0.000 C 
BRANCH  21  24
ATOM     23  C   UNL     1       7.744   6.080  18.718  0.00  0.00    +0.000 C 
ATOM     24  C   UNL     1       7.582   4.684  18.132  0.00  0.00    +0.000 C 
ENDBRANCH  21  24
ENDBRANCH  20  21
ENDBRANCH  19  20
ENDBRANCH  16  19
ENDBRANCH   1  18
BRANCH   4  25
ATOM     25  O   UNL     1       2.111   3.826  21.861  0.00  0.00    +0.000 OA
ATOM     26  H   UNL     1       2.403   4.142  22.731  0.00  0.00    +0.000 HD
ENDBRANCH   4  25
BRANCH  10  27
ATOM     27  O   UNL     1       2.080  10.894  17.464  0.00  0.00    +0.000 OA
ATOM     28  H   UNL     1       2.795  11.484  17.751  0.00  0.00    +0.000 HD
ENDBRANCH  10  27
BRANCH  13  29
ATOM     29  C   UNL     1      -0.333   8.684  22.068  0.00  0.00    +0.000 C 
ATOM     30  O   UNL     1      -0.170   9.217  23.161  0.00  0.00    +0.000 OA
ENDBRANCH  13  29
TORSDOF 8
ENDMDL
MODEL 7
REMARK VINA RESULT:      -7.2      4.298      6.364
REMARK  Name = 
REMARK  12 active torsions:
REMARK  status: ('A' for Active; 'I' for Inactive)
REMARK    1  A    between atoms: C_1  and  C_2
REMARK    2  A    between atoms: C_2  and  C_3
REMARK    3  A    between atoms: C_3  and  C_4
REMARK    4  A    between atoms: C_3  and  C_5
REMARK    5  A    between atoms: C_5  and  C_6
REMARK    6  A    between atoms: C_6  and  C_7
REMARK    7  A    between atoms: C_7  and  C_8
REMARK    8  A    between atoms: C_9  and  C_10
REMARK    9  A    between atoms: C_11  and  C_12
REMARK   10  A    between atoms: C_13  and  O_14
REMARK   11  A    between atoms: C_20  and  O_21
REMARK   12  A    between atoms: C_24  and  C_25
REMARK                            x       y       z     vdW  Elec       q    Type
REMARK                         _______ _______ _______ _____ _____    ______ ____
ROOT
ATOM      1  C   UNL     1       3.749   5.274  18.827  0.00  0.00    +0.000 A 
ATOM      2  C   UNL     1       3.565   4.272  19.804  0.00  0.00    +0.000 A 
ATOM      3  C   UNL     1       4.439   3.045  19.850  0.00  0.00    +0.000 C 
ATOM      4  C   UNL     1       2.562   4.452  20.758  0.00  0.00    +0.000 A 
ATOM      5  C   UNL     1       1.802   5.622  20.823  0.00  0.00    +0.000 A 
ATOM      6  C   UNL     1       2.037   6.678  19.916  0.00  0.00    +0.000 A 
ATOM      7  C   UNL     1       3.000   6.467  18.928  0.00  0.00    +0.000 A 
ATOM      8  N   UNL     1       3.030   7.602  18.155  0.00  0.00    +0.000 N 
ATOM      9  C   UNL     1       2.173   8.564  18.636  0.00  0.00    +0.000 A 
ATOM     10  C   UNL     1       1.927   9.875  18.194  0.00  0.00    +0.000 A 
ATOM     11  C   UNL     1       0.990  10.655  18.865  0.00  0.00    +0.000 A 
ATOM     12  C   UNL     1       0.303  10.137  19.952  0.00  0.00    +0.000 A 
ATOM     13  C   UNL     1       0.544   8.825  20.397  0.00  0.00    +0.000 A 
ATOM     14  C   UNL     1       1.505   8.009  19.740  0.00  0.00    +0.000 A 
ATOM     15  H   UNL     1       3.635   7.707  17.355  0.00  0.00    +0.000 HD
ENDROOT
BRANCH   1  18
ATOM     16  C   UNL     1       4.495   4.250  16.690  0.00  0.00    +0.000 C 
ATOM     17  C   UNL     1       3.234   3.437  16.528  0.00  0.00    +0.000 C 
ATOM     18  C   UNL     1       4.680   5.123  17.704  0.00  0.00    +0.000 C 
BRANCH  16  19
ATOM     19  C   UNL     1       5.613   3.968  15.704  0.00  0.00    +0.000 C 
BRANCH  19  20
ATOM     20  C   UNL     1       5.420   4.541  14.292  0.00  0.00    +0.000 C 
BRANCH  20  21
ATOM     21  C   UNL     1       5.782   3.584  13.141  0.00  0.00    +0.000 C 
ATOM     22  C   UNL     1       4.634   3.465  12.131  0.00  0.00    +0.000 C 
BRANCH  21  24
ATOM     23  C   UNL     1       7.699   5.290  12.966  0.00  0.00    +0.000 C 
ATOM     24  C   UNL     1       7.057   4.033  12.395  0.00  0.00    +0.000 C 
ENDBRANCH  21  24
ENDBRANCH  20  21
ENDBRANCH  19  20
ENDBRANCH  16  19
ENDBRANCH   1  18
BRANCH   4  25
ATOM     25  O   UNL     1       2.256   3.509  21.702  0.00  0.00    +0.000 OA
ATOM     26  H   UNL     1       2.052   3.946  22.544  0.00  0.00    +0.000 HD
ENDBRANCH   4  25
BRANCH  10  27
ATOM     27  O   UNL     1       2.565  10.459  17.130  0.00  0.00    +0.000 OA
ATOM     28  H   UNL     1       2.501   9.872  16.359  0.00  0.00    +0.000 HD
ENDBRANCH  10  27
BRANCH  13  29
ATOM     29  C   UNL     1      -0.224   8.352  21.567  0.00  0.00    +0.000 C 
ATOM     30  O   UNL     1      -0.490   9.092  22.509  0.00  0.00    +0.000 OA
ENDBRANCH  13  29
TORSDOF 8
ENDMDL
MODEL 8
REMARK VINA RESULT:      -6.9      4.666      7.565
REMARK  Name = 
REMARK  12 active torsions:
REMARK  status: ('A' for Active; 'I' for Inactive)
REMARK    1  A    between atoms: C_1  and  C_2
REMARK    2  A    between atoms: C_2  and  C_3
REMARK    3  A    between atoms: C_3  and  C_4
REMARK    4  A    between atoms: C_3  and  C_5
REMARK    5  A    between atoms: C_5  and  C_6
REMARK    6  A    between atoms: C_6  and  C_7
REMARK    7  A    between atoms: C_7  and  C_8
REMARK    8  A    between atoms: C_9  and  C_10
REMARK    9  A    between atoms: C_11  and  C_12
REMARK   10  A    between atoms: C_13  and  O_14
REMARK   11  A    between atoms: C_20  and  O_21
REMARK   12  A    between atoms: C_24  and  C_25
REMARK                            x       y       z     vdW  Elec       q    Type
REMARK                         _______ _______ _______ _____ _____    ______ ____
ROOT
ATOM      1  C   UNL     1       2.547   6.655  19.662  0.00  0.00    +0.000 A 
ATOM      2  C   UNL     1       3.006   6.717  18.329  0.00  0.00    +0.000 A 
ATOM      3  C   UNL     1       3.632   5.524  17.654  0.00  0.00    +0.000 C 
ATOM      4  C   UNL     1       2.844   7.913  17.628  0.00  0.00    +0.000 A 
ATOM      5  C   UNL     1       2.171   9.008  18.174  0.00  0.00    +0.000 A 
ATOM      6  C   UNL     1       1.618   8.933  19.470  0.00  0.00    +0.000 A 
ATOM      7  C   UNL     1       1.835   7.755  20.187  0.00  0.00    +0.000 A 
ATOM      8  N   UNL     1       1.240   7.924  21.415  0.00  0.00    +0.000 N 
ATOM      9  C   UNL     1       0.593   9.135  21.500  0.00  0.00    +0.000 A 
ATOM     10  C   UNL     1      -0.178   9.690  22.536  0.00  0.00    +0.000 A 
ATOM     11  C   UNL     1      -0.728  10.957  22.371  0.00  0.00    +0.000 A 
ATOM     12  C   UNL     1      -0.509  11.665  21.199  0.00  0.00    +0.000 A 
ATOM     13  C   UNL     1       0.264  11.115  20.161  0.00  0.00    +0.000 A 
ATOM     14  C   UNL     1       0.828   9.817  20.295  0.00  0.00    +0.000 A 
ATOM     15  H   UNL     1       1.262   7.222  22.138  0.00  0.00    +0.000 HD
ENDROOT
BRANCH   1  18
ATOM     16  C   UNL     1       1.909   4.482  20.682  0.00  0.00    +0.000 C 
ATOM     17  C   UNL     1       0.647   4.358  19.865  0.00  0.00    +0.000 C 
ATOM     18  C   UNL     1       2.787   5.497  20.529  0.00  0.00    +0.000 C 
BRANCH  16  19
ATOM     19  C   UNL     1       2.107   3.452  21.780  0.00  0.00    +0.000 C 
BRANCH  19  20
ATOM     20  C   UNL     1       2.706   2.109  21.335  0.00  0.00    +0.000 C 
BRANCH  20  21
ATOM     21  C   UNL     1       3.753   2.199  20.209  0.00  0.00    +0.000 C 
ATOM     22  C   UNL     1       5.133   1.736  20.691  0.00  0.00    +0.000 C 
BRANCH  21  24
ATOM     23  C   UNL     1       2.609   2.156  17.906  0.00  0.00    +0.000 C 
ATOM     24  C   UNL     1       3.350   1.365  18.976  0.00  0.00    +0.000 C 
ENDBRANCH  21  24
ENDBRANCH  20  21
ENDBRANCH  19  20
ENDBRANCH  16  19
ENDBRANCH   1  18
BRANCH   4  25
ATOM     25  O   UNL     1       3.319   8.100  16.357  0.00  0.00    +0.000 OA
ATOM     26  H   UNL     1       3.497   9.042  16.212  0.00  0.00    +0.000 HD
ENDBRANCH   4  25
BRANCH  10  27
ATOM     27  O   UNL     1      -0.441   9.053  23.722  0.00  0.00    +0.000 OA
ATOM     28  H   UNL     1      -0.961   8.253  23.545  0.00  0.00    +0.000 HD
ENDBRANCH  10  27
BRANCH  13  29
ATOM     29  C   UNL     1       0.444  11.930  18.942  0.00  0.00    +0.000 C 
ATOM     30  O   UNL     1       1.507  12.485  18.685  0.00  0.00    +0.000 OA
ENDBRANCH  13  29
TORSDOF 8
ENDMDL
MODEL 9
REMARK VINA RESULT:      -6.9      3.510      6.259
REMARK  Name = 
REMARK  12 active torsions:
REMARK  status: ('A' for Active; 'I' for Inactive)
REMARK    1  A    between atoms: C_1  and  C_2
REMARK    2  A    between atoms: C_2  and  C_3
REMARK    3  A    between atoms: C_3  and  C_4
REMARK    4  A    between atoms: C_3  and  C_5
REMARK    5  A    between atoms: C_5  and  C_6
REMARK    6  A    between atoms: C_6  and  C_7
REMARK    7  A    between atoms: C_7  and  C_8
REMARK    8  A    between atoms: C_9  and  C_10
REMARK    9  A    between atoms: C_11  and  C_12
REMARK   10  A    between atoms: C_13  and  O_14
REMARK   11  A    between atoms: C_20  and  O_21
REMARK   12  A    between atoms: C_24  and  C_25
REMARK                            x       y       z     vdW  Elec       q    Type
REMARK                         _______ _______ _______ _____ _____    ______ ____
ROOT
ATOM      1  C   UNL     1       2.786   6.375  18.574  0.00  0.00    +0.000 A 
ATOM      2  C   UNL     1       2.835   5.263  19.443  0.00  0.00    +0.000 A 
ATOM      3  C   UNL     1       3.611   4.021  19.090  0.00  0.00    +0.000 C 
ATOM      4  C   UNL     1       2.165   5.347  20.664  0.00  0.00    +0.000 A 
ATOM      5  C   UNL     1       1.526   6.517  21.081  0.00  0.00    +0.000 A 
ATOM      6  C   UNL     1       1.549   7.671  20.271  0.00  0.00    +0.000 A 
ATOM      7  C   UNL     1       2.171   7.563  19.026  0.00  0.00    +0.000 A 
ATOM      8  N   UNL     1       2.041   8.785  18.410  0.00  0.00    +0.000 N 
ATOM      9  C   UNL     1       1.419   9.699  19.229  0.00  0.00    +0.000 A 
ATOM     10  C   UNL     1       1.132  11.060  19.029  0.00  0.00    +0.000 A 
ATOM     11  C   UNL     1       0.478  11.772  20.030  0.00  0.00    +0.000 A 
ATOM     12  C   UNL     1       0.107  11.138  21.206  0.00  0.00    +0.000 A 
ATOM     13  C   UNL     1       0.389   9.776  21.409  0.00  0.00    +0.000 A 
ATOM     14  C   UNL     1       1.068   9.026  20.411  0.00  0.00    +0.000 A 
ATOM     15  H   UNL     1       2.393   8.975  17.485  0.00  0.00    +0.000 HD
ENDROOT
BRANCH   1  18
ATOM     16  C   UNL     1       4.598   6.731  16.913  0.00  0.00    +0.000 C 
ATOM     17  C   UNL     1       5.618   7.101  17.960  0.00  0.00    +0.000 C 
ATOM     18  C   UNL     1       3.340   6.344  17.217  0.00  0.00    +0.000 C 
BRANCH  16  19
ATOM     19  C   UNL     1       5.018   6.914  15.466  0.00  0.00    +0.000 C 
BRANCH  19  20
ATOM     20  C   UNL     1       6.037   5.896  14.933  0.00  0.00    +0.000 C 
BRANCH  20  21
ATOM     21  C   UNL     1       5.553   4.434  14.910  0.00  0.00    +0.000 C 
ATOM     22  C   UNL     1       5.691   3.820  13.512  0.00  0.00    +0.000 C 
BRANCH  21  24
ATOM     23  C   UNL     1       7.309   4.324  16.786  0.00  0.00    +0.000 C 
ATOM     24  C   UNL     1       6.321   3.555  15.919  0.00  0.00    +0.000 C 
ENDBRANCH  21  24
ENDBRANCH  20  21
ENDBRANCH  19  20
ENDBRANCH  16  19
ENDBRANCH   1  18
BRANCH   4  25
ATOM     25  O   UNL     1       2.090   4.301  21.544  0.00  0.00    +0.000 OA
ATOM     26  H   UNL     1       2.954   3.864  21.604  0.00  0.00    +0.000 HD
ENDBRANCH   4  25
BRANCH  10  27
ATOM     27  O   UNL     1       1.468  11.757  17.896  0.00  0.00    +0.000 OA
ATOM     28  H   UNL     1       1.847  12.613  18.150  0.00  0.00    +0.000 HD
ENDBRANCH  10  27
BRANCH  13  29
ATOM     29  C   UNL     1      -0.032   9.179  22.693  0.00  0.00    +0.000 C 
ATOM     30  O   UNL     1       0.423   9.561  23.766  0.00  0.00    +0.000 OA
ENDBRANCH  13  29
TORSDOF 8
ENDMDL
