MODEL 1
REMARK VINA RESULT:      -6.8      0.000      0.000
REMARK  Name = 
REMARK  11 active torsions:
REMARK  status: ('A' for Active; 'I' for Inactive)
REMARK    1  A    between atoms: C_1  and  C_2
REMARK    2  A    between atoms: C_2  and  O_3
REMARK    3  A    between atoms: O_3  and  P_4
REMARK    4  A    between atoms: P_4  and  O_6
REMARK    5  A    between atoms: P_4  and  O_9
REMARK    6  A    between atoms: O_6  and  C_7
REMARK    7  A    between atoms: C_7  and  C_8
REMARK    8  A    between atoms: O_9  and  C_10
REMARK    9  A    between atoms: C_13  and  N_14
REMARK   10  A    between atoms: C_16  and  C_17
REMARK   11  A    between atoms: C_17  and  N_18
REMARK                            x       y       z     vdW  Elec       q    Type
REMARK                         _______ _______ _______ _____ _____    ______ ____
ROOT
ATOM      1  C   UNL     1       4.673   4.580  18.354  0.00  0.00    +0.000 A 
ATOM      2  C   UNL     1       4.775   3.228  18.677  0.00  0.00    +0.000 A 
ATOM      3  C   UNL     1       3.623   2.449  18.784  0.00  0.00    +0.000 A 
ATOM      4  C   UNL     1       2.362   3.017  18.620  0.00  0.00    +0.000 A 
ATOM      5  C   UNL     1       2.271   4.368  18.270  0.00  0.00    +0.000 A 
ATOM      6  C   UNL     1       3.411   5.191  18.178  0.00  0.00    +0.000 A 
ENDROOT
BRANCH   4   7
ATOM      7  N   UNL     1       1.224   2.202  18.576  0.00  0.00    +0.000 N 
ATOM      8  H   UNL     1       0.773   2.178  17.667  0.00  0.00    +0.000 HD
ATOM      9  H   UNL     1       1.379   1.268  18.946  0.00  0.00    +0.000 HD
ENDBRANCH   4   7
BRANCH   1  10
ATOM     10  O   UNL     1       5.793   5.355  18.213  0.00  0.00    +0.000 OA
BRANCH  10  11
ATOM     11  P   UNL     1       6.672   5.411  16.723  0.00  0.00    +0.000 P 
ATOM     12  O   UNL     1       7.830   4.647  17.383  0.00  0.00    +0.000 OA
BRANCH  11  13
ATOM     13  O   UNL     1       7.551   5.466  15.234  0.00  0.00    +0.000 OA
BRANCH  13  15
ATOM     14  C   UNL     1       5.520   4.323  14.656  0.00  0.00    +0.000 C 
ATOM     15  C   UNL     1       6.900   4.739  14.197  0.00  0.00    +0.000 C 
ENDBRANCH  13  15
ENDBRANCH  11  13
BRANCH  11  16
ATOM     16  O   UNL     1       6.934   7.023  16.938  0.00  0.00    +0.000 OA
BRANCH  16  17
ATOM     17  C   UNL     1       7.804   7.468  17.970  0.00  0.00    +0.000 C 
ATOM     18  C   UNL     1       8.087   8.953  17.888  0.00  0.00    +0.000 C 
ENDBRANCH  16  17
ENDBRANCH  11  16
ENDBRANCH  10  11
ENDBRANCH   1  10
BRANCH   6  19
ATOM     19  C   UNL     1       3.303   6.667  17.809  0.00  0.00    +0.000 C 
BRANCH  19  20
ATOM     20  N   UNL     1       2.238   7.451  18.412  0.00  0.00    +0.000 NA
ATOM     21  C   UNL     1       1.666   8.583  17.722  0.00  0.00    +0.000 C 
ATOM     22  C   UNL     1       1.514   9.640  18.802  0.00  0.00    +0.000 C 
ATOM     23  C   UNL     1       1.417   8.868  20.110  0.00  0.00    +0.000 C 
ATOM     24  C   UNL     1       2.063   7.514  19.841  0.00  0.00    +0.000 C 
ENDBRANCH  19  20
ENDBRANCH   6  19
TORSDOF 9
ENDMDL
MODEL 2
REMARK VINA RESULT:      -6.8      1.690      3.915
REMARK  Name = 
REMARK  11 active torsions:
REMARK  status: ('A' for Active; 'I' for Inactive)
REMARK    1  A    between atoms: C_1  and  C_2
REMARK    2  A    between atoms: C_2  and  O_3
REMARK    3  A    between atoms: O_3  and  P_4
REMARK    4  A    between atoms: P_4  and  O_6
REMARK    5  A    between atoms: P_4  and  O_9
REMARK    6  A    between atoms: O_6  and  C_7
REMARK    7  A    between atoms: C_7  and  C_8
REMARK    8  A    between atoms: O_9  and  C_10
REMARK    9  A    between atoms: C_13  and  N_14
REMARK   10  A    between atoms: C_16  and  C_17
REMARK   11  A    between atoms: C_17  and  N_18
REMARK                            x       y       z     vdW  Elec       q    Type
REMARK                         _______ _______ _______ _____ _____    ______ ____
ROOT
ATOM      1  C   UNL     1       4.464   5.419  17.714  0.00  0.00    +0.000 A 
ATOM      2  C   UNL     1       4.168   6.591  17.021  0.00  0.00    +0.000 A 
ATOM      3  C   UNL     1       3.283   7.519  17.570  0.00  0.00    +0.000 A 
ATOM      4  C   UNL     1       2.651   7.267  18.786  0.00  0.00    +0.000 A 
ATOM      5  C   UNL     1       2.977   6.101  19.486  0.00  0.00    +0.000 A 
ATOM      6  C   UNL     1       3.846   5.130  18.950  0.00  0.00    +0.000 A 
ENDROOT
BRANCH   4   7
ATOM      7  N   UNL     1       1.888   8.266  19.401  0.00  0.00    +0.000 N 
ATOM      8  H   UNL     1       1.617   9.018  18.775  0.00  0.00    +0.000 HD
ATOM      9  H   UNL     1       1.095   7.907  19.925  0.00  0.00    +0.000 HD
ENDBRANCH   4   7
BRANCH   1  10
ATOM     10  O   UNL     1       5.355   4.509  17.207  0.00  0.00    +0.000 OA
BRANCH  10  11
ATOM     11  P   UNL     1       6.501   4.949  15.988  0.00  0.00    +0.000 P 
ATOM     12  O   UNL     1       6.157   3.670  15.209  0.00  0.00    +0.000 OA
BRANCH  11  13
ATOM     13  O   UNL     1       7.648   5.388  14.769  0.00  0.00    +0.000 OA
BRANCH  13  15
ATOM     14  C   UNL     1       8.024   5.607  12.407  0.00  0.00    +0.000 C 
ATOM     15  C   UNL     1       7.325   4.829  13.499  0.00  0.00    +0.000 C 
ENDBRANCH  13  15
ENDBRANCH  11  13
BRANCH  11  16
ATOM     16  O   UNL     1       7.735   4.601  17.023  0.00  0.00    +0.000 OA
BRANCH  16  17
ATOM     17  C   UNL     1       7.708   5.104  18.352  0.00  0.00    +0.000 C 
ATOM     18  C   UNL     1       7.847   6.612  18.403  0.00  0.00    +0.000 C 
ENDBRANCH  16  17
ENDBRANCH  11  16
ENDBRANCH  10  11
ENDBRANCH   1  10
BRANCH   6  19
ATOM     19  C   UNL     1       4.185   3.854  19.715  0.00  0.00    +0.000 C 
BRANCH  19  20
ATOM     20  N   UNL     1       3.091   3.004  20.154  0.00  0.00    +0.000 NA
ATOM     21  C   UNL     1       2.070   2.570  19.230  0.00  0.00    +0.000 C 
ATOM     22  C   UNL     1       0.776   2.708  20.012  0.00  0.00    +0.000 C 
ATOM     23  C   UNL     1       1.178   2.609  21.477  0.00  0.00    +0.000 C 
ATOM     24  C   UNL     1       2.655   2.983  21.527  0.00  0.00    +0.000 C 
ENDBRANCH  19  20
ENDBRANCH   6  19
TORSDOF 9
ENDMDL
MODEL 3
REMARK VINA RESULT:      -6.6      1.812      3.932
REMARK  Name = 
REMARK  11 active torsions:
REMARK  status: ('A' for Active; 'I' for Inactive)
REMARK    1  A    between atoms: C_1  and  C_2
REMARK    2  A    between atoms: C_2  and  O_3
REMARK    3  A    between atoms: O_3  and  P_4
REMARK    4  A    between atoms: P_4  and  O_6
REMARK    5  A    between atoms: P_4  and  O_9
REMARK    6  A    between atoms: O_6  and  C_7
REMARK    7  A    between atoms: C_7  and  C_8
REMARK    8  A    between atoms: O_9  and  C_10
REMARK    9  A    between atoms: C_13  and  N_14
REMARK   10  A    between atoms: C_16  and  C_17
REMARK   11  A    between atoms: C_17  and  N_18
REMARK                            x       y       z     vdW  Elec       q    Type
REMARK                         _______ _______ _______ _____ _____    ______ ____
ROOT
ATOM      1  C   UNL     1       4.222   5.518  17.410  0.00  0.00    +0.000 A 
ATOM      2  C   UNL     1       4.571   6.867  17.410  0.00  0.00    +0.000 A 
ATOM      3  C   UNL     1       3.644   7.825  17.820  0.00  0.00    +0.000 A 
ATOM      4  C   UNL     1       2.352   7.455  18.187  0.00  0.00    +0.000 A 
ATOM      5  C   UNL     1       2.021   6.096  18.209  0.00  0.00    +0.000 A 
ATOM      6  C   UNL     1       2.923   5.104  17.778  0.00  0.00    +0.000 A 
ENDROOT
BRANCH   4   7
ATOM      7  N   UNL     1       1.481   8.400  18.742  0.00  0.00    +0.000 N 
ATOM      8  H   UNL     1       1.947   9.234  19.086  0.00  0.00    +0.000 HD
ATOM      9  H   UNL     1       0.693   8.628  18.142  0.00  0.00    +0.000 HD
ENDBRANCH   4   7
BRANCH   1  10
ATOM     10  O   UNL     1       5.128   4.558  17.042  0.00  0.00    +0.000 OA
BRANCH  10  11
ATOM     11  P   UNL     1       5.970   4.641  15.533  0.00  0.00    +0.000 P 
ATOM     12  O   UNL     1       5.943   3.108  15.437  0.00  0.00    +0.000 OA
BRANCH  11  13
ATOM     13  O   UNL     1       6.812   4.724  14.023  0.00  0.00    +0.000 OA
BRANCH  13  15
ATOM     14  C   UNL     1       7.100   3.893  11.789  0.00  0.00    +0.000 C 
ATOM     15  C   UNL     1       6.298   3.801  13.068  0.00  0.00    +0.000 C 
ENDBRANCH  13  15
ENDBRANCH  11  13
BRANCH  11  16
ATOM     16  O   UNL     1       7.345   5.082  16.324  0.00  0.00    +0.000 OA
BRANCH  16  17
ATOM     17  C   UNL     1       7.614   4.563  17.620  0.00  0.00    +0.000 C 
ATOM     18  C   UNL     1       7.813   5.655  18.651  0.00  0.00    +0.000 C 
ENDBRANCH  16  17
ENDBRANCH  11  16
ENDBRANCH  10  11
ENDBRANCH   1  10
BRANCH   6  19
ATOM     19  C   UNL     1       2.549   3.625  17.793  0.00  0.00    +0.000 C 
BRANCH  19  20
ATOM     20  N   UNL     1       2.342   2.980  19.079  0.00  0.00    +0.000 NA
ATOM     21  C   UNL     1       1.013   2.799  19.614  0.00  0.00    +0.000 C 
ATOM     22  C   UNL     1       1.153   3.145  21.086  0.00  0.00    +0.000 C 
ATOM     23  C   UNL     1       2.617   2.895  21.421  0.00  0.00    +0.000 C 
ATOM     24  C   UNL     1       3.364   2.974  20.094  0.00  0.00    +0.000 C 
ENDBRANCH  19  20
ENDBRANCH   6  19
TORSDOF 9
ENDMDL
MODEL 4
REMARK VINA RESULT:      -6.5      1.098      1.192
REMARK  Name = 
REMARK  11 active torsions:
REMARK  status: ('A' for Active; 'I' for Inactive)
REMARK    1  A    between atoms: C_1  and  C_2
REMARK    2  A    between atoms: C_2  and  O_3
REMARK    3  A    between atoms: O_3  and  P_4
REMARK    4  A    between atoms: P_4  and  O_6
REMARK    5  A    between atoms: P_4  and  O_9
REMARK    6  A    between atoms: O_6  and  C_7
REMARK    7  A    between atoms: C_7  and  C_8
REMARK    8  A    between atoms: O_9  and  C_10
REMARK    9  A    between atoms: C_13  and  N_14
REMARK   10  A    between atoms: C_16  and  C_17
REMARK   11  A    between atoms: C_17  and  N_18
REMARK                            x       y       z     vdW  Elec       q    Type
REMARK                         _______ _______ _______ _____ _____    ______ ____
ROOT
ATOM      1  C   UNL     1       4.119   4.289  17.888  0.00  0.00    +0.000 A 
ATOM      2  C   UNL     1       3.950   3.013  17.354  0.00  0.00    +0.000 A 
ATOM      3  C   UNL     1       2.795   2.285  17.643  0.00  0.00    +0.000 A 
ATOM      4  C   UNL     1       1.825   2.799  18.501  0.00  0.00    +0.000 A 
ATOM      5  C   UNL     1       1.992   4.092  19.009  0.00  0.00    +0.000 A 
ATOM      6  C   UNL     1       3.156   4.845  18.760  0.00  0.00    +0.000 A 
ENDROOT
BRANCH   4   7
ATOM      7  N   UNL     1       0.605   2.132  18.663  0.00  0.00    +0.000 N 
ATOM      8  H   UNL     1      -0.103   2.406  17.988  0.00  0.00    +0.000 HD
ATOM      9  H   UNL     1       0.699   1.122  18.723  0.00  0.00    +0.000 HD
ENDBRANCH   4   7
BRANCH   1  10
ATOM     10  O   UNL     1       5.230   5.033  17.591  0.00  0.00    +0.000 OA
BRANCH  10  11
ATOM     11  P   UNL     1       5.835   5.150  15.975  0.00  0.00    +0.000 P 
ATOM     12  O   UNL     1       7.023   4.256  16.358  0.00  0.00    +0.000 OA
BRANCH  11  13
ATOM     13  O   UNL     1       6.439   5.267  14.358  0.00  0.00    +0.000 OA
BRANCH  13  15
ATOM     14  C   UNL     1       7.007   4.172  12.298  0.00  0.00    +0.000 C 
ATOM     15  C   UNL     1       6.444   4.008  13.692  0.00  0.00    +0.000 C 
ENDBRANCH  13  15
ENDBRANCH  11  13
BRANCH  11  16
ATOM     16  O   UNL     1       6.263   6.717  16.248  0.00  0.00    +0.000 OA
BRANCH  16  17
ATOM     17  C   UNL     1       6.609   7.138  17.561  0.00  0.00    +0.000 C 
ATOM     18  C   UNL     1       7.777   8.103  17.570  0.00  0.00    +0.000 C 
ENDBRANCH  16  17
ENDBRANCH  11  16
ENDBRANCH  10  11
ENDBRANCH   1  10
BRANCH   6  19
ATOM     19  C   UNL     1       3.336   6.249  19.329  0.00  0.00    +0.000 C 
BRANCH  19  20
ATOM     20  N   UNL     1       2.323   7.247  19.032  0.00  0.00    +0.000 NA
ATOM     21  C   UNL     1       2.286   7.908  17.749  0.00  0.00    +0.000 C 
ATOM     22  C   UNL     1       1.998   9.361  18.085  0.00  0.00    +0.000 C 
ATOM     23  C   UNL     1       1.286   9.329  19.431  0.00  0.00    +0.000 C 
ATOM     24  C   UNL     1       1.677   8.004  20.075  0.00  0.00    +0.000 C 
ENDBRANCH  19  20
ENDBRANCH   6  19
TORSDOF 9
ENDMDL
MODEL 5
REMARK VINA RESULT:      -6.5      1.765      4.294
REMARK  Name = 
REMARK  11 active torsions:
REMARK  status: ('A' for Active; 'I' for Inactive)
REMARK    1  A    between atoms: C_1  and  C_2
REMARK    2  A    between atoms: C_2  and  O_3
REMARK    3  A    between atoms: O_3  and  P_4
REMARK    4  A    between atoms: P_4  and  O_6
REMARK    5  A    between atoms: P_4  and  O_9
REMARK    6  A    between atoms: O_6  and  C_7
REMARK    7  A    between atoms: C_7  and  C_8
REMARK    8  A    between atoms: O_9  and  C_10
REMARK    9  A    between atoms: C_13  and  N_14
REMARK   10  A    between atoms: C_16  and  C_17
REMARK   11  A    between atoms: C_17  and  N_18
REMARK                            x       y       z     vdW  Elec       q    Type
REMARK                         _______ _______ _______ _____ _____    ______ ____
ROOT
ATOM      1  C   UNL     1       2.887   6.427  18.275  0.00  0.00    +0.000 A 
ATOM      2  C   UNL     1       2.535   7.580  17.576  0.00  0.00    +0.000 A 
ATOM      3  C   UNL     1       1.886   8.623  18.238  0.00  0.00    +0.000 A 
ATOM      4  C   UNL     1       1.542   8.508  19.583  0.00  0.00    +0.000 A 
ATOM      5  C   UNL     1       1.925   7.359  20.281  0.00  0.00    +0.000 A 
ATOM      6  C   UNL     1       2.557   6.275  19.640  0.00  0.00    +0.000 A 
ENDROOT
BRANCH   4   7
ATOM      7  N   UNL     1       1.032   9.614  20.274  0.00  0.00    +0.000 N 
ATOM      8  H   UNL     1       0.584  10.300  19.675  0.00  0.00    +0.000 HD
ATOM      9  H   UNL     1       0.447   9.363  21.066  0.00  0.00    +0.000 HD
ENDBRANCH   4   7
BRANCH   1  10
ATOM     10  O   UNL     1       3.553   5.404  17.653  0.00  0.00    +0.000 OA
BRANCH  10  11
ATOM     11  P   UNL     1       4.988   5.689  16.730  0.00  0.00    +0.000 P 
ATOM     12  O   UNL     1       5.240   4.175  16.661  0.00  0.00    +0.000 OA
BRANCH  11  13
ATOM     13  O   UNL     1       6.424   5.974  15.807  0.00  0.00    +0.000 OA
BRANCH  13  15
ATOM     14  C   UNL     1       6.996   4.772  13.808  0.00  0.00    +0.000 C 
ATOM     15  C   UNL     1       7.001   4.765  15.321  0.00  0.00    +0.000 C 
ENDBRANCH  13  15
ENDBRANCH  11  13
BRANCH  11  16
ATOM     16  O   UNL     1       5.738   6.272  18.075  0.00  0.00    +0.000 OA
BRANCH  16  17
ATOM     17  C   UNL     1       6.390   5.377  18.967  0.00  0.00    +0.000 C 
ATOM     18  C   UNL     1       7.837   5.753  19.209  0.00  0.00    +0.000 C 
ENDBRANCH  16  17
ENDBRANCH  11  16
ENDBRANCH  10  11
ENDBRANCH   1  10
BRANCH   6  19
ATOM     19  C   UNL     1       2.959   5.019  20.407  0.00  0.00    +0.000 C 
BRANCH  19  20
ATOM     20  N   UNL     1       2.302   3.768  20.070  0.00  0.00    +0.000 NA
ATOM     21  C   UNL     1       3.044   2.670  19.497  0.00  0.00    +0.000 C 
ATOM     22  C   UNL     1       2.132   2.130  18.409  0.00  0.00    +0.000 C 
ATOM     23  C   UNL     1       0.723   2.525  18.832  0.00  0.00    +0.000 C 
ATOM     24  C   UNL     1       0.892   3.709  19.777  0.00  0.00    +0.000 C 
ENDBRANCH  19  20
ENDBRANCH   6  19
TORSDOF 9
ENDMDL
MODEL 6
REMARK VINA RESULT:      -6.5      1.622      3.958
REMARK  Name = 
REMARK  11 active torsions:
REMARK  status: ('A' for Active; 'I' for Inactive)
REMARK    1  A    between atoms: C_1  and  C_2
REMARK    2  A    between atoms: C_2  and  O_3
REMARK    3  A    between atoms: O_3  and  P_4
REMARK    4  A    between atoms: P_4  and  O_6
REMARK    5  A    between atoms: P_4  and  O_9
REMARK    6  A    between atoms: O_6  and  C_7
REMARK    7  A    between atoms: C_7  and  C_8
REMARK    8  A    between atoms: O_9  and  C_10
REMARK    9  A    between atoms: C_13  and  N_14
REMARK   10  A    between atoms: C_16  and  C_17
REMARK   11  A    between atoms: C_17  and  N_18
REMARK                            x       y       z     vdW  Elec       q    Type
REMARK                         _______ _______ _______ _____ _____    ______ ____
ROOT
ATOM      1  C   UNL     1       3.962   6.527  18.066  0.00  0.00    +0.000 A 
ATOM      2  C   UNL     1       3.639   7.674  17.343  0.00  0.00    +0.000 A 
ATOM      3  C   UNL     1       2.640   8.530  17.807  0.00  0.00    +0.000 A 
ATOM      4  C   UNL     1       1.925   8.229  18.964  0.00  0.00    +0.000 A 
ATOM      5  C   UNL     1       2.276   7.090  19.696  0.00  0.00    +0.000 A 
ATOM      6  C   UNL     1       3.261   6.190  19.245  0.00  0.00    +0.000 A 
ENDROOT
BRANCH   4   7
ATOM      7  N   UNL     1       1.036   9.166  19.505  0.00  0.00    +0.000 N 
ATOM      8  H   UNL     1       1.493   9.978  19.907  0.00  0.00    +0.000 HD
ATOM      9  H   UNL     1       0.288   9.430  18.869  0.00  0.00    +0.000 HD
ENDBRANCH   4   7
BRANCH   1  10
ATOM     10  O   UNL     1       4.961   5.689  17.645  0.00  0.00    +0.000 OA
BRANCH  10  11
ATOM     11  P   UNL     1       5.235   5.381  15.964  0.00  0.00    +0.000 P 
ATOM     12  O   UNL     1       5.331   3.877  16.259  0.00  0.00    +0.000 OA
BRANCH  11  13
ATOM     13  O   UNL     1       5.508   5.074  14.284  0.00  0.00    +0.000 OA
BRANCH  13  15
ATOM     14  C   UNL     1       6.239   3.507  12.617  0.00  0.00    +0.000 C 
ATOM     15  C   UNL     1       6.309   3.915  14.072  0.00  0.00    +0.000 C 
ENDBRANCH  13  15
ENDBRANCH  11  13
BRANCH  11  16
ATOM     16  O   UNL     1       6.745   6.026  16.092  0.00  0.00    +0.000 OA
BRANCH  16  17
ATOM     17  C   UNL     1       7.314   6.249  17.376  0.00  0.00    +0.000 C 
ATOM     18  C   UNL     1       7.668   7.703  17.607  0.00  0.00    +0.000 C 
ENDBRANCH  16  17
ENDBRANCH  11  16
ENDBRANCH  10  11
ENDBRANCH   1  10
BRANCH   6  19
ATOM     19  C   UNL     1       3.628   4.943  20.043  0.00  0.00    +0.000 C 
BRANCH  19  20
ATOM     20  N   UNL     1       2.798   3.759  19.891  0.00  0.00    +0.000 NA
ATOM     21  C   UNL     1       2.779   3.019  18.652  0.00  0.00    +0.000 C 
ATOM     22  C   UNL     1       1.313   2.688  18.437  0.00  0.00    +0.000 C 
ATOM     23  C   UNL     1       0.689   2.704  19.825  0.00  0.00    +0.000 C 
ATOM     24  C   UNL     1       1.610   3.563  20.684  0.00  0.00    +0.000 C 
ENDBRANCH  19  20
ENDBRANCH   6  19
TORSDOF 9
ENDMDL
MODEL 7
REMARK VINA RESULT:      -6.5      2.890      5.791
REMARK  Name = 
REMARK  11 active torsions:
REMARK  status: ('A' for Active; 'I' for Inactive)
REMARK    1  A    between atoms: C_1  and  C_2
REMARK    2  A    between atoms: C_2  and  O_3
REMARK    3  A    between atoms: O_3  and  P_4
REMARK    4  A    between atoms: P_4  and  O_6
REMARK    5  A    between atoms: P_4  and  O_9
REMARK    6  A    between atoms: O_6  and  C_7
REMARK    7  A    between atoms: C_7  and  C_8
REMARK    8  A    between atoms: O_9  and  C_10
REMARK    9  A    between atoms: C_13  and  N_14
REMARK   10  A    between atoms: C_16  and  C_17
REMARK   11  A    between atoms: C_17  and  N_18
REMARK                            x       y       z     vdW  Elec       q    Type
REMARK                         _______ _______ _______ _____ _____    ______ ____
ROOT
ATOM      1  C   UNL     1       3.667   6.254  18.888  0.00  0.00    +0.000 A 
ATOM      2  C   UNL     1       2.700   6.786  19.739  0.00  0.00    +0.000 A 
ATOM      3  C   UNL     1       1.967   7.905  19.346  0.00  0.00    +0.000 A 
ATOM      4  C   UNL     1       2.223   8.532  18.129  0.00  0.00    +0.000 A 
ATOM      5  C   UNL     1       3.176   7.975  17.270  0.00  0.00    +0.000 A 
ATOM      6  C   UNL     1       3.952   6.861  17.644  0.00  0.00    +0.000 A 
ENDROOT
BRANCH   4   7
ATOM      7  N   UNL     1       1.382   9.557  17.676  0.00  0.00    +0.000 N 
ATOM      8  H   UNL     1       0.507   9.623  18.186  0.00  0.00    +0.000 HD
ATOM      9  H   UNL     1       1.845  10.459  17.601  0.00  0.00    +0.000 HD
ENDBRANCH   4   7
BRANCH   1  10
ATOM     10  O   UNL     1       4.376   5.136  19.240  0.00  0.00    +0.000 OA
BRANCH  10  11
ATOM     11  P   UNL     1       3.590   3.623  19.535  0.00  0.00    +0.000 P 
ATOM     12  O   UNL     1       4.903   3.055  20.096  0.00  0.00    +0.000 OA
BRANCH  11  13
ATOM     13  O   UNL     1       2.805   2.110  19.829  0.00  0.00    +0.000 OA
BRANCH  13  15
ATOM     14  C   UNL     1       1.390   3.600  21.072  0.00  0.00    +0.000 C 
ATOM     15  C   UNL     1       1.890   2.181  20.918  0.00  0.00    +0.000 C 
ENDBRANCH  13  15
ENDBRANCH  11  13
BRANCH  11  16
ATOM     16  O   UNL     1       3.555   3.326  17.915  0.00  0.00    +0.000 OA
BRANCH  16  17
ATOM     17  C   UNL     1       2.314   3.078  17.267  0.00  0.00    +0.000 C 
ATOM     18  C   UNL     1       1.317   4.198  17.478  0.00  0.00    +0.000 C 
ENDBRANCH  16  17
ENDBRANCH  11  16
ENDBRANCH  10  11
ENDBRANCH   1  10
BRANCH   6  19
ATOM     19  C   UNL     1       4.999   6.267  16.707  0.00  0.00    +0.000 C 
BRANCH  19  20
ATOM     20  N   UNL     1       6.397   6.347  17.098  0.00  0.00    +0.000 NA
ATOM     21  C   UNL     1       7.082   5.200  17.645  0.00  0.00    +0.000 C 
ATOM     22  C   UNL     1       7.904   5.767  18.789  0.00  0.00    +0.000 C 
ATOM     23  C   UNL     1       8.125   7.232  18.439  0.00  0.00    +0.000 C 
ATOM     24  C   UNL     1       7.007   7.599  17.469  0.00  0.00    +0.000 C 
ENDBRANCH  19  20
ENDBRANCH   6  19
TORSDOF 9
ENDMDL
MODEL 8
REMARK VINA RESULT:      -6.4      1.027      1.369
REMARK  Name = 
REMARK  11 active torsions:
REMARK  status: ('A' for Active; 'I' for Inactive)
REMARK    1  A    between atoms: C_1  and  C_2
REMARK    2  A    between atoms: C_2  and  O_3
REMARK    3  A    between atoms: O_3  and  P_4
REMARK    4  A    between atoms: P_4  and  O_6
REMARK    5  A    between atoms: P_4  and  O_9
REMARK    6  A    between atoms: O_6  and  C_7
REMARK    7  A    between atoms: C_7  and  C_8
REMARK    8  A    between atoms: O_9  and  C_10
REMARK    9  A    between atoms: C_13  and  N_14
REMARK   10  A    between atoms: C_16  and  C_17
REMARK   11  A    between atoms: C_17  and  N_18
REMARK                            x       y       z     vdW  Elec       q    Type
REMARK                         _______ _______ _______ _____ _____    ______ ____
ROOT
ATOM      1  C   UNL     1       3.941   4.829  19.186  0.00  0.00    +0.000 A 
ATOM      2  C   UNL     1       3.987   3.536  19.706  0.00  0.00    +0.000 A 
ATOM      3  C   UNL     1       2.821   2.776  19.784  0.00  0.00    +0.000 A 
ATOM      4  C   UNL     1       1.595   3.310  19.393  0.00  0.00    +0.000 A 
ATOM      5  C   UNL     1       1.564   4.597  18.848  0.00  0.00    +0.000 A 
ATOM      6  C   UNL     1       2.717   5.403  18.777  0.00  0.00    +0.000 A 
ENDROOT
BRANCH   4   7
ATOM      7  N   UNL     1       0.460   2.492  19.330  0.00  0.00    +0.000 N 
ATOM      8  H   UNL     1      -0.089   2.488  20.184  0.00  0.00    +0.000 HD
ATOM      9  H   UNL     1      -0.117   2.661  18.510  0.00  0.00    +0.000 HD
ENDBRANCH   4   7
BRANCH   1  10
ATOM     10  O   UNL     1       5.080   5.581  19.071  0.00  0.00    +0.000 OA
BRANCH  10  11
ATOM     11  P   UNL     1       6.257   5.257  17.846  0.00  0.00    +0.000 P 
ATOM     12  O   UNL     1       7.247   4.793  18.925  0.00  0.00    +0.000 OA
BRANCH  11  13
ATOM     13  O   UNL     1       7.435   4.932  16.620  0.00  0.00    +0.000 OA
BRANCH  13  15
ATOM     14  C   UNL     1       5.353   4.272  15.623  0.00  0.00    +0.000 C 
ATOM     15  C   UNL     1       6.851   4.380  15.444  0.00  0.00    +0.000 C 
ENDBRANCH  13  15
ENDBRANCH  11  13
BRANCH  11  16
ATOM     16  O   UNL     1       6.467   6.874  17.619  0.00  0.00    +0.000 OA
BRANCH  16  17
ATOM     17  C   UNL     1       7.767   7.391  17.364  0.00  0.00    +0.000 C 
ATOM     18  C   UNL     1       7.940   8.803  17.887  0.00  0.00    +0.000 C 
ENDBRANCH  16  17
ENDBRANCH  11  16
ENDBRANCH  10  11
ENDBRANCH   1  10
BRANCH   6  19
ATOM     19  C   UNL     1       2.671   6.812  18.193  0.00  0.00    +0.000 C 
BRANCH  19  20
ATOM     20  N   UNL     1       2.263   7.904  19.061  0.00  0.00    +0.000 NA
ATOM     21  C   UNL     1       1.943   7.669  20.450  0.00  0.00    +0.000 C 
ATOM     22  C   UNL     1       0.705   8.513  20.696  0.00  0.00    +0.000 C 
ATOM     23  C   UNL     1       0.764   9.625  19.658  0.00  0.00    +0.000 C 
ATOM     24  C   UNL     1       1.652   9.099  18.536  0.00  0.00    +0.000 C 
ENDBRANCH  19  20
ENDBRANCH   6  19
TORSDOF 9
ENDMDL
MODEL 9
REMARK VINA RESULT:      -6.4      1.932      5.008
REMARK  Name = 
REMARK  11 active torsions:
REMARK  status: ('A' for Active; 'I' for Inactive)
REMARK    1  A    between atoms: C_1  and  C_2
REMARK    2  A    between atoms: C_2  and  O_3
REMARK    3  A    between atoms: O_3  and  P_4
REMARK    4  A    between atoms: P_4  and  O_6
REMARK    5  A    between atoms: P_4  and  O_9
REMARK    6  A    between atoms: O_6  and  C_7
REMARK    7  A    between atoms: C_7  and  C_8
REMARK    8  A    between atoms: O_9  and  C_10
REMARK    9  A    between atoms: C_13  and  N_14
REMARK   10  A    between atoms: C_16  and  C_17
REMARK   11  A    between atoms: C_17  and  N_18
REMARK                            x       y       z     vdW  Elec       q    Type
REMARK                         _______ _______ _______ _____ _____    ______ ____
ROOT
ATOM      1  C   UNL     1       2.887   7.216  18.134  0.00  0.00    +0.000 A 
ATOM      2  C   UNL     1       2.494   8.382  17.479  0.00  0.00    +0.000 A 
ATOM      3  C   UNL     1       1.736   9.338  18.155  0.00  0.00    +0.000 A 
ATOM      4  C   UNL     1       1.323   9.121  19.468  0.00  0.00    +0.000 A 
ATOM      5  C   UNL     1       1.746   7.961  20.125  0.00  0.00    +0.000 A 
ATOM      6  C   UNL     1       2.491   6.963  19.466  0.00  0.00    +0.000 A 
ENDROOT
BRANCH   4   7
ATOM      7  N   UNL     1       0.698  10.147  20.187  0.00  0.00    +0.000 N 
ATOM      8  H   UNL     1       0.690  11.039  19.702  0.00  0.00    +0.000 HD
ATOM      9  H   UNL     1      -0.224   9.896  20.533  0.00  0.00    +0.000 HD
ENDBRANCH   4   7
BRANCH   1  10
ATOM     10  O   UNL     1       3.659   6.279  17.499  0.00  0.00    +0.000 OA
BRANCH  10  11
ATOM     11  P   UNL     1       5.322   6.578  17.128  0.00  0.00    +0.000 P 
ATOM     12  O   UNL     1       4.928   6.979  15.699  0.00  0.00    +0.000 OA
BRANCH  11  13
ATOM     13  O   UNL     1       6.986   6.878  16.757  0.00  0.00    +0.000 OA
BRANCH  13  15
ATOM     14  C   UNL     1       8.082   8.728  17.826  0.00  0.00    +0.000 C 
ATOM     15  C   UNL     1       7.734   7.258  17.908  0.00  0.00    +0.000 C 
ENDBRANCH  13  15
ENDBRANCH  11  13
BRANCH  11  16
ATOM     16  O   UNL     1       5.617   4.958  17.143  0.00  0.00    +0.000 OA
BRANCH  16  17
ATOM     17  C   UNL     1       4.917   4.119  18.052  0.00  0.00    +0.000 C 
ATOM     18  C   UNL     1       4.079   3.073  17.346  0.00  0.00    +0.000 C 
ENDBRANCH  16  17
ENDBRANCH  11  16
ENDBRANCH  10  11
ENDBRANCH   1  10
BRANCH   6  19
ATOM     19  C   UNL     1       2.936   5.693  20.186  0.00  0.00    +0.000 C 
BRANCH  19  20
ATOM     20  N   UNL     1       1.955   4.643  20.399  0.00  0.00    +0.000 NA
ATOM     21  C   UNL     1       2.068   3.737  21.518  0.00  0.00    +0.000 C 
ATOM     22  C   UNL     1       1.723   2.378  20.935  0.00  0.00    +0.000 C 
ATOM     23  C   UNL     1       0.852   2.671  19.721  0.00  0.00    +0.000 C 
ATOM     24  C   UNL     1       1.177   4.103  19.313  0.00  0.00    +0.000 C 
ENDBRANCH  19  20
ENDBRANCH   6  19
TORSDOF 9
ENDMDL
