MODEL 1
REMARK VINA RESULT:      -8.3      0.000      0.000
REMARK  Name = 
REMARK  10 active torsions:
REMARK  status: ('A' for Active; 'I' for Inactive)
REMARK    1  A    between atoms: C_4  and  O_5
REMARK    2  A    between atoms: C_7  and  O_8
REMARK    3  A    between atoms: C_13  and  O_14
REMARK    4  A    between atoms: C_17  and  O_18
REMARK    5  A    between atoms: O_18  and  C_19
REMARK    6  A    between atoms: C_21  and  C_22
REMARK    7  A    between atoms: C_22  and  O_23
REMARK    8  A    between atoms: C_24  and  O_25
REMARK    9  A    between atoms: C_26  and  O_27
REMARK   10  A    between atoms: C_28  and  O_29
REMARK                            x       y       z     vdW  Elec       q    Type
REMARK                         _______ _______ _______ _____ _____    ______ ____
ROOT
ATOM      1  O   UNL     1       0.045   7.968  21.963  0.00  0.00    +0.000 OA
ATOM      2  C   UNL     1       0.415   8.874  21.224  0.00  0.00    +0.000 A 
ATOM      3  C   UNL     1      -0.004  10.255  21.518  0.00  0.00    +0.000 A 
ATOM      4  C   UNL     1      -0.734  10.585  22.667  0.00  0.00    +0.000 A 
ATOM      5  C   UNL     1      -1.088  11.909  22.934  0.00  0.00    +0.000 A 
ATOM      6  C   UNL     1      -0.711  12.901  22.035  0.00  0.00    +0.000 A 
ATOM      7  C   UNL     1      -0.000  12.586  20.881  0.00  0.00    +0.000 A 
ATOM      8  C   UNL     1       0.348  11.256  20.621  0.00  0.00    +0.000 A 
ATOM      9  O   UNL     1       1.019  11.025  19.444  0.00  0.00    +0.000 OA
ATOM     10  C   UNL     1       1.458   9.748  19.182  0.00  0.00    +0.000 A 
ATOM     11  C   UNL     1       2.167   9.594  17.979  0.00  0.00    +0.000 A 
ATOM     12  C   UNL     1       2.683   8.366  17.615  0.00  0.00    +0.000 A 
ATOM     13  C   UNL     1       2.536   7.282  18.470  0.00  0.00    +0.000 A 
ATOM     14  C   UNL     1       1.866   7.406  19.698  0.00  0.00    +0.000 A 
ATOM     15  C   UNL     1       1.265   8.647  20.025  0.00  0.00    +0.000 A 
ENDROOT
BRANCH   4  16
ATOM     16  O   UNL     1      -1.138   9.649  23.584  0.00  0.00    +0.000 OA
ATOM     17  H   UNL     1      -2.117   9.702  23.649  0.00  0.00    +0.000 HD
ENDBRANCH   4  16
BRANCH   6  18
ATOM     18  O   UNL     1      -1.029  14.211  22.247  0.00  0.00    +0.000 OA
ATOM     19  H   UNL     1      -1.715  14.262  22.933  0.00  0.00    +0.000 HD
ENDBRANCH   6  18
BRANCH  11  20
ATOM     20  O   UNL     1       2.372  10.642  17.132  0.00  0.00    +0.000 OA
ATOM     21  H   UNL     1       1.521  10.843  16.706  0.00  0.00    +0.000 HD
ENDBRANCH  11  20
BRANCH  14  22
ATOM     22  O   UNL     1       1.754   6.343  20.549  0.00  0.00    +0.000 OA
BRANCH  22  23
ATOM     23  C   UNL     1       2.472   5.124  20.244  0.00  0.00    +0.000 C 
ATOM     24  O   UNL     1       3.684   5.308  19.490  0.00  0.00    +0.000 OA
ATOM     25  C   UNL     1       4.452   4.101  19.383  0.00  0.00    +0.000 C 
ATOM     26  C   UNL     1       3.660   3.008  18.658  0.00  0.00    +0.000 C 
ATOM     27  C   UNL     1       2.312   2.763  19.351  0.00  0.00    +0.000 C 
ATOM     28  C   UNL     1       1.535   4.070  19.588  0.00  0.00    +0.000 C 
BRANCH  26  29
ATOM     29  O   UNL     1       4.444   1.811  18.610  0.00  0.00    +0.000 OA
ATOM     30  H   UNL     1       3.928   1.110  18.176  0.00  0.00    +0.000 HD
ENDBRANCH  26  29
BRANCH  27  31
ATOM     31  O   UNL     1       1.555   1.822  18.572  0.00  0.00    +0.000 OA
ATOM     32  H   UNL     1       1.311   2.238  17.727  0.00  0.00    +0.000 HD
ENDBRANCH  27  31
BRANCH  28  33
ATOM     33  O   UNL     1       0.372   3.777  20.376  0.00  0.00    +0.000 OA
ATOM     34  H   UNL     1      -0.160   3.096  19.929  0.00  0.00    +0.000 HD
ENDBRANCH  28  33
BRANCH  25  35
ATOM     35  C   UNL     1       5.773   4.370  18.633  0.00  0.00    +0.000 C 
BRANCH  35  36
ATOM     36  O   UNL     1       5.768   3.853  17.303  0.00  0.00    +0.000 OA
ATOM     37  H   UNL     1       5.630   4.591  16.686  0.00  0.00    +0.000 HD
ENDBRANCH  35  36
ENDBRANCH  25  35
ENDBRANCH  22  23
ENDBRANCH  14  22
TORSDOF 10
ENDMDL
MODEL 2
REMARK VINA RESULT:      -8.2      2.302      8.404
REMARK  Name = 
REMARK  10 active torsions:
REMARK  status: ('A' for Active; 'I' for Inactive)
REMARK    1  A    between atoms: C_4  and  O_5
REMARK    2  A    between atoms: C_7  and  O_8
REMARK    3  A    between atoms: C_13  and  O_14
REMARK    4  A    between atoms: C_17  and  O_18
REMARK    5  A    between atoms: O_18  and  C_19
REMARK    6  A    between atoms: C_21  and  C_22
REMARK    7  A    between atoms: C_22  and  O_23
REMARK    8  A    between atoms: C_24  and  O_25
REMARK    9  A    between atoms: C_26  and  O_27
REMARK   10  A    between atoms: C_28  and  O_29
REMARK                            x       y       z     vdW  Elec       q    Type
REMARK                         _______ _______ _______ _____ _____    ______ ____
ROOT
ATOM      1  O   UNL     1       3.646   7.753  17.762  0.00  0.00    +0.000 OA
ATOM      2  C   UNL     1       3.594   6.531  17.863  0.00  0.00    +0.000 A 
ATOM      3  C   UNL     1       4.342   5.700  16.904  0.00  0.00    +0.000 A 
ATOM      4  C   UNL     1       5.188   6.257  15.936  0.00  0.00    +0.000 A 
ATOM      5  C   UNL     1       5.908   5.439  15.063  0.00  0.00    +0.000 A 
ATOM      6  C   UNL     1       5.769   4.060  15.162  0.00  0.00    +0.000 A 
ATOM      7  C   UNL     1       4.919   3.494  16.108  0.00  0.00    +0.000 A 
ATOM      8  C   UNL     1       4.200   4.320  16.977  0.00  0.00    +0.000 A 
ATOM      9  O   UNL     1       3.357   3.685  17.858  0.00  0.00    +0.000 OA
ATOM     10  C   UNL     1       2.691   4.447  18.790  0.00  0.00    +0.000 A 
ATOM     11  C   UNL     1       1.878   3.726  19.680  0.00  0.00    +0.000 A 
ATOM     12  C   UNL     1       1.177   4.373  20.679  0.00  0.00    +0.000 A 
ATOM     13  C   UNL     1       1.315   5.747  20.831  0.00  0.00    +0.000 A 
ATOM     14  C   UNL     1       2.148   6.495  19.984  0.00  0.00    +0.000 A 
ATOM     15  C   UNL     1       2.796   5.837  18.909  0.00  0.00    +0.000 A 
ENDROOT
BRANCH   4  16
ATOM     16  O   UNL     1       5.358   7.608  15.788  0.00  0.00    +0.000 OA
ATOM     17  H   UNL     1       5.988   7.905  16.482  0.00  0.00    +0.000 HD
ENDBRANCH   4  16
BRANCH   6  18
ATOM     18  O   UNL     1       6.451   3.215  14.335  0.00  0.00    +0.000 OA
ATOM     19  H   UNL     1       7.048   3.736  13.773  0.00  0.00    +0.000 HD
ENDBRANCH   6  18
BRANCH  11  20
ATOM     20  O   UNL     1       1.749   2.373  19.593  0.00  0.00    +0.000 OA
ATOM     21  H   UNL     1       1.523   2.043  20.481  0.00  0.00    +0.000 HD
ENDBRANCH  11  20
BRANCH  14  22
ATOM     22  O   UNL     1       2.305   7.841  20.161  0.00  0.00    +0.000 OA
BRANCH  22  23
ATOM     23  C   UNL     1       1.127   8.669  20.308  0.00  0.00    +0.000 C 
ATOM     24  O   UNL     1       0.667   9.288  19.093  0.00  0.00    +0.000 OA
ATOM     25  C   UNL     1      -0.603   9.934  19.252  0.00  0.00    +0.000 C 
ATOM     26  C   UNL     1      -0.524  11.052  20.298  0.00  0.00    +0.000 C 
ATOM     27  C   UNL     1       0.010  10.511  21.633  0.00  0.00    +0.000 C 
ATOM     28  C   UNL     1       1.308   9.704  21.454  0.00  0.00    +0.000 C 
BRANCH  26  29
ATOM     29  O   UNL     1      -1.820  11.641  20.457  0.00  0.00    +0.000 OA
ATOM     30  H   UNL     1      -1.751  12.402  21.058  0.00  0.00    +0.000 HD
ENDBRANCH  26  29
BRANCH  27  31
ATOM     31  O   UNL     1       0.181  11.610  22.542  0.00  0.00    +0.000 OA
ATOM     32  H   UNL     1       0.424  12.403  22.034  0.00  0.00    +0.000 HD
ENDBRANCH  27  31
BRANCH  28  33
ATOM     33  O   UNL     1       1.652   9.104  22.711  0.00  0.00    +0.000 OA
ATOM     34  H   UNL     1       2.217   9.713  23.218  0.00  0.00    +0.000 HD
ENDBRANCH  28  33
BRANCH  25  35
ATOM     35  C   UNL     1      -1.084  10.514  17.906  0.00  0.00    +0.000 C 
BRANCH  35  36
ATOM     36  O   UNL     1      -0.856  11.918  17.798  0.00  0.00    +0.000 OA
ATOM     37  H   UNL     1       0.103  12.075  17.794  0.00  0.00    +0.000 HD
ENDBRANCH  35  36
ENDBRANCH  25  35
ENDBRANCH  22  23
ENDBRANCH  14  22
TORSDOF 10
ENDMDL
MODEL 3
REMARK VINA RESULT:      -8.0      2.465      8.571
REMARK  Name = 
REMARK  10 active torsions:
REMARK  status: ('A' for Active; 'I' for Inactive)
REMARK    1  A    between atoms: C_4  and  O_5
REMARK    2  A    between atoms: C_7  and  O_8
REMARK    3  A    between atoms: C_13  and  O_14
REMARK    4  A    between atoms: C_17  and  O_18
REMARK    5  A    between atoms: O_18  and  C_19
REMARK    6  A    between atoms: C_21  and  C_22
REMARK    7  A    between atoms: C_22  and  O_23
REMARK    8  A    between atoms: C_24  and  O_25
REMARK    9  A    between atoms: C_26  and  O_27
REMARK   10  A    between atoms: C_28  and  O_29
REMARK                            x       y       z     vdW  Elec       q    Type
REMARK                         _______ _______ _______ _____ _____    ______ ____
ROOT
ATOM      1  O   UNL     1       3.153   8.310  17.001  0.00  0.00    +0.000 OA
ATOM      2  C   UNL     1       3.287   7.262  17.625  0.00  0.00    +0.000 A 
ATOM      3  C   UNL     1       4.132   6.195  17.062  0.00  0.00    +0.000 A 
ATOM      4  C   UNL     1       4.867   6.371  15.882  0.00  0.00    +0.000 A 
ATOM      5  C   UNL     1       5.685   5.351  15.392  0.00  0.00    +0.000 A 
ATOM      6  C   UNL     1       5.756   4.150  16.090  0.00  0.00    +0.000 A 
ATOM      7  C   UNL     1       5.019   3.956  17.254  0.00  0.00    +0.000 A 
ATOM      8  C   UNL     1       4.200   4.982  17.736  0.00  0.00    +0.000 A 
ATOM      9  O   UNL     1       3.479   4.699  18.872  0.00  0.00    +0.000 OA
ATOM     10  C   UNL     1       2.724   5.703  19.434  0.00  0.00    +0.000 A 
ATOM     11  C   UNL     1       2.044   5.351  20.612  0.00  0.00    +0.000 A 
ATOM     12  C   UNL     1       1.274   6.277  21.287  0.00  0.00    +0.000 A 
ATOM     13  C   UNL     1       1.208   7.583  20.817  0.00  0.00    +0.000 A 
ATOM     14  C   UNL     1       1.903   7.981  19.664  0.00  0.00    +0.000 A 
ATOM     15  C   UNL     1       2.621   7.004  18.930  0.00  0.00    +0.000 A 
ENDROOT
BRANCH   4  16
ATOM     16  O   UNL     1       4.831   7.529  15.150  0.00  0.00    +0.000 OA
ATOM     17  H   UNL     1       4.185   7.397  14.421  0.00  0.00    +0.000 HD
ENDBRANCH   4  16
BRANCH   6  18
ATOM     18  O   UNL     1       6.541   3.121  15.657  0.00  0.00    +0.000 OA
ATOM     19  H   UNL     1       5.978   2.352  15.468  0.00  0.00    +0.000 HD
ENDBRANCH   6  18
BRANCH  11  20
ATOM     20  O   UNL     1       2.118   4.093  21.130  0.00  0.00    +0.000 OA
ATOM     21  H   UNL     1       2.987   4.005  21.560  0.00  0.00    +0.000 HD
ENDBRANCH  11  20
BRANCH  14  22
ATOM     22  O   UNL     1       1.860   9.275  19.228  0.00  0.00    +0.000 OA
BRANCH  22  23
ATOM     23  C   UNL     1       0.590   9.970  19.225  0.00  0.00    +0.000 C 
ATOM     24  O   UNL     1      -0.132   9.906  17.982  0.00  0.00    +0.000 OA
ATOM     25  C   UNL     1      -1.459  10.438  18.091  0.00  0.00    +0.000 C 
ATOM     26  C   UNL     1      -1.427  11.918  18.490  0.00  0.00    +0.000 C 
ATOM     27  C   UNL     1      -0.628  12.114  19.787  0.00  0.00    +0.000 C 
ATOM     28  C   UNL     1       0.750  11.432  19.728  0.00  0.00    +0.000 C 
BRANCH  26  29
ATOM     29  O   UNL     1      -2.768  12.399  18.628  0.00  0.00    +0.000 OA
ATOM     30  H   UNL     1      -2.965  13.007  17.895  0.00  0.00    +0.000 HD
ENDBRANCH  26  29
BRANCH  27  31
ATOM     31  O   UNL     1      -0.521  13.521  20.057  0.00  0.00    +0.000 OA
ATOM     32  H   UNL     1      -0.754  14.014  19.251  0.00  0.00    +0.000 HD
ENDBRANCH  27  31
BRANCH  28  33
ATOM     33  O   UNL     1       1.363  11.523  21.023  0.00  0.00    +0.000 OA
ATOM     34  H   UNL     1       0.796  12.047  21.615  0.00  0.00    +0.000 HD
ENDBRANCH  28  33
BRANCH  25  35
ATOM     35  C   UNL     1      -2.214  10.277  16.755  0.00  0.00    +0.000 C 
BRANCH  35  36
ATOM     36  O   UNL     1      -2.286  11.492  16.011  0.00  0.00    +0.000 OA
ATOM     37  H   UNL     1      -1.611  12.103  16.354  0.00  0.00    +0.000 HD
ENDBRANCH  35  36
ENDBRANCH  25  35
ENDBRANCH  22  23
ENDBRANCH  14  22
TORSDOF 10
ENDMDL
MODEL 4
REMARK VINA RESULT:      -7.9      0.975      2.246
REMARK  Name = 
REMARK  10 active torsions:
REMARK  status: ('A' for Active; 'I' for Inactive)
REMARK    1  A    between atoms: C_4  and  O_5
REMARK    2  A    between atoms: C_7  and  O_8
REMARK    3  A    between atoms: C_13  and  O_14
REMARK    4  A    between atoms: C_17  and  O_18
REMARK    5  A    between atoms: O_18  and  C_19
REMARK    6  A    between atoms: C_21  and  C_22
REMARK    7  A    between atoms: C_22  and  O_23
REMARK    8  A    between atoms: C_24  and  O_25
REMARK    9  A    between atoms: C_26  and  O_27
REMARK   10  A    between atoms: C_28  and  O_29
REMARK                            x       y       z     vdW  Elec       q    Type
REMARK                         _______ _______ _______ _____ _____    ______ ____
ROOT
ATOM      1  O   UNL     1       0.392   7.826  21.623  0.00  0.00    +0.000 OA
ATOM      2  C   UNL     1       0.647   8.856  21.006  0.00  0.00    +0.000 A 
ATOM      3  C   UNL     1       0.104  10.135  21.493  0.00  0.00    +0.000 A 
ATOM      4  C   UNL     1      -0.617  10.233  22.690  0.00  0.00    +0.000 A 
ATOM      5  C   UNL     1      -1.090  11.467  23.140  0.00  0.00    +0.000 A 
ATOM      6  C   UNL     1      -0.842  12.603  22.377  0.00  0.00    +0.000 A 
ATOM      7  C   UNL     1      -0.141  12.518  21.177  0.00  0.00    +0.000 A 
ATOM      8  C   UNL     1       0.327  11.277  20.733  0.00  0.00    +0.000 A 
ATOM      9  O   UNL     1       0.980  11.274  19.523  0.00  0.00    +0.000 OA
ATOM     10  C   UNL     1       1.533  10.094  19.083  0.00  0.00    +0.000 A 
ATOM     11  C   UNL     1       2.214  10.174  17.857  0.00  0.00    +0.000 A 
ATOM     12  C   UNL     1       2.837   9.065  17.320  0.00  0.00    +0.000 A 
ATOM     13  C   UNL     1       2.824   7.867  18.023  0.00  0.00    +0.000 A 
ATOM     14  C   UNL     1       2.185   7.758  19.269  0.00  0.00    +0.000 A 
ATOM     15  C   UNL     1       1.476   8.877  19.772  0.00  0.00    +0.000 A 
ENDROOT
BRANCH   4  16
ATOM     16  O   UNL     1      -0.897   9.148  23.478  0.00  0.00    +0.000 OA
ATOM     17  H   UNL     1      -0.864   8.349  22.905  0.00  0.00    +0.000 HD
ENDBRANCH   4  16
BRANCH   6  18
ATOM     18  O   UNL     1      -1.280  13.834  22.771  0.00  0.00    +0.000 OA
ATOM     19  H   UNL     1      -2.223  13.918  22.552  0.00  0.00    +0.000 HD
ENDBRANCH   6  18
BRANCH  11  20
ATOM     20  O   UNL     1       2.288  11.341  17.156  0.00  0.00    +0.000 OA
ATOM     21  H   UNL     1       2.605  11.125  16.262  0.00  0.00    +0.000 HD
ENDBRANCH  11  20
BRANCH  14  22
ATOM     22  O   UNL     1       2.206   6.585  19.970  0.00  0.00    +0.000 OA
BRANCH  22  23
ATOM     23  C   UNL     1       2.525   5.358  19.272  0.00  0.00    +0.000 C 
ATOM     24  O   UNL     1       1.512   4.340  19.344  0.00  0.00    +0.000 OA
ATOM     25  C   UNL     1       1.788   3.228  18.482  0.00  0.00    +0.000 C 
ATOM     26  C   UNL     1       3.106   2.547  18.869  0.00  0.00    +0.000 C 
ATOM     27  C   UNL     1       4.260   3.560  18.877  0.00  0.00    +0.000 C 
ATOM     28  C   UNL     1       3.921   4.819  19.695  0.00  0.00    +0.000 C 
BRANCH  26  29
ATOM     29  O   UNL     1       3.366   1.472  17.960  0.00  0.00    +0.000 OA
ATOM     30  H   UNL     1       3.181   1.770  17.053  0.00  0.00    +0.000 HD
ENDBRANCH  26  29
BRANCH  27  31
ATOM     31  O   UNL     1       5.446   2.909  19.360  0.00  0.00    +0.000 OA
ATOM     32  H   UNL     1       5.893   3.498  19.991  0.00  0.00    +0.000 HD
ENDBRANCH  27  31
BRANCH  28  33
ATOM     33  O   UNL     1       4.975   5.777  19.523  0.00  0.00    +0.000 OA
ATOM     34  H   UNL     1       5.560   5.490  18.801  0.00  0.00    +0.000 HD
ENDBRANCH  28  33
BRANCH  25  35
ATOM     35  C   UNL     1       0.637   2.202  18.541  0.00  0.00    +0.000 C 
BRANCH  35  36
ATOM     36  O   UNL     1      -0.217   2.395  19.667  0.00  0.00    +0.000 OA
ATOM     37  H   UNL     1      -0.300   3.350  19.831  0.00  0.00    +0.000 HD
ENDBRANCH  35  36
ENDBRANCH  25  35
ENDBRANCH  22  23
ENDBRANCH  14  22
TORSDOF 10
ENDMDL
MODEL 5
REMARK VINA RESULT:      -7.9      2.839      8.405
REMARK  Name = 
REMARK  10 active torsions:
REMARK  status: ('A' for Active; 'I' for Inactive)
REMARK    1  A    between atoms: C_4  and  O_5
REMARK    2  A    between atoms: C_7  and  O_8
REMARK    3  A    between atoms: C_13  and  O_14
REMARK    4  A    between atoms: C_17  and  O_18
REMARK    5  A    between atoms: O_18  and  C_19
REMARK    6  A    between atoms: C_21  and  C_22
REMARK    7  A    between atoms: C_22  and  O_23
REMARK    8  A    between atoms: C_24  and  O_25
REMARK    9  A    between atoms: C_26  and  O_27
REMARK   10  A    between atoms: C_28  and  O_29
REMARK                            x       y       z     vdW  Elec       q    Type
REMARK                         _______ _______ _______ _____ _____    ______ ____
ROOT
ATOM      1  O   UNL     1       1.589  10.308  18.175  0.00  0.00    +0.000 OA
ATOM      2  C   UNL     1       1.399   9.686  19.215  0.00  0.00    +0.000 A 
ATOM      3  C   UNL     1       1.825   8.279  19.298  0.00  0.00    +0.000 A 
ATOM      4  C   UNL     1       2.526   7.650  18.261  0.00  0.00    +0.000 A 
ATOM      5  C   UNL     1       2.945   6.323  18.384  0.00  0.00    +0.000 A 
ATOM      6  C   UNL     1       2.649   5.629  19.552  0.00  0.00    +0.000 A 
ATOM      7  C   UNL     1       1.938   6.236  20.583  0.00  0.00    +0.000 A 
ATOM      8  C   UNL     1       1.521   7.565  20.450  0.00  0.00    +0.000 A 
ATOM      9  O   UNL     1       0.795   8.080  21.498  0.00  0.00    +0.000 OA
ATOM     10  C   UNL     1       0.434   9.406  21.453  0.00  0.00    +0.000 A 
ATOM     11  C   UNL     1      -0.273   9.871  22.575  0.00  0.00    +0.000 A 
ATOM     12  C   UNL     1      -0.669  11.191  22.663  0.00  0.00    +0.000 A 
ATOM     13  C   UNL     1      -0.324  12.077  21.651  0.00  0.00    +0.000 A 
ATOM     14  C   UNL     1       0.414  11.657  20.532  0.00  0.00    +0.000 A 
ATOM     15  C   UNL     1       0.742  10.285  20.408  0.00  0.00    +0.000 A 
ENDROOT
BRANCH   4  16
ATOM     16  O   UNL     1       2.840   8.282  17.086  0.00  0.00    +0.000 OA
ATOM     17  H   UNL     1       2.291   7.879  16.378  0.00  0.00    +0.000 HD
ENDBRANCH   4  16
BRANCH   6  18
ATOM     18  O   UNL     1       3.035   4.332  19.725  0.00  0.00    +0.000 OA
ATOM     19  H   UNL     1       3.997   4.270  19.607  0.00  0.00    +0.000 HD
ENDBRANCH   6  18
BRANCH  11  20
ATOM     20  O   UNL     1      -0.592   9.045  23.610  0.00  0.00    +0.000 OA
ATOM     21  H   UNL     1      -1.439   9.352  23.978  0.00  0.00    +0.000 HD
ENDBRANCH  11  20
BRANCH  14  22
ATOM     22  O   UNL     1       0.777  12.542  19.557  0.00  0.00    +0.000 OA
BRANCH  22  23
ATOM     23  C   UNL     1       2.087  13.155  19.621  0.00  0.00    +0.000 C 
ATOM     24  O   UNL     1       2.263  14.093  20.697  0.00  0.00    +0.000 OA
ATOM     25  C   UNL     1       3.625  14.522  20.834  0.00  0.00    +0.000 C 
ATOM     26  C   UNL     1       4.108  15.233  19.565  0.00  0.00    +0.000 C 
ATOM     27  C   UNL     1       3.915  14.337  18.333  0.00  0.00    +0.000 C 
ATOM     28  C   UNL     1       2.489  13.765  18.248  0.00  0.00    +0.000 C 
BRANCH  26  29
ATOM     29  O   UNL     1       5.480  15.606  19.726  0.00  0.00    +0.000 OA
ATOM     30  H   UNL     1       5.765  15.388  20.630  0.00  0.00    +0.000 HD
ENDBRANCH  26  29
BRANCH  27  31
ATOM     31  O   UNL     1       4.265  15.084  17.157  0.00  0.00    +0.000 OA
ATOM     32  H   UNL     1       4.196  16.033  17.356  0.00  0.00    +0.000 HD
ENDBRANCH  27  31
BRANCH  28  33
ATOM     33  O   UNL     1       2.436  12.820  17.170  0.00  0.00    +0.000 OA
ATOM     34  H   UNL     1       3.118  13.039  16.512  0.00  0.00    +0.000 HD
ENDBRANCH  28  33
BRANCH  25  35
ATOM     35  C   UNL     1       3.773  15.465  22.046  0.00  0.00    +0.000 C 
BRANCH  35  36
ATOM     36  O   UNL     1       3.958  14.762  23.274  0.00  0.00    +0.000 OA
ATOM     37  H   UNL     1       4.632  14.076  23.136  0.00  0.00    +0.000 HD
ENDBRANCH  35  36
ENDBRANCH  25  35
ENDBRANCH  22  23
ENDBRANCH  14  22
TORSDOF 10
ENDMDL
MODEL 6
REMARK VINA RESULT:      -7.8      2.781      8.889
REMARK  Name = 
REMARK  10 active torsions:
REMARK  status: ('A' for Active; 'I' for Inactive)
REMARK    1  A    between atoms: C_4  and  O_5
REMARK    2  A    between atoms: C_7  and  O_8
REMARK    3  A    between atoms: C_13  and  O_14
REMARK    4  A    between atoms: C_17  and  O_18
REMARK    5  A    between atoms: O_18  and  C_19
REMARK    6  A    between atoms: C_21  and  C_22
REMARK    7  A    between atoms: C_22  and  O_23
REMARK    8  A    between atoms: C_24  and  O_25
REMARK    9  A    between atoms: C_26  and  O_27
REMARK   10  A    between atoms: C_28  and  O_29
REMARK                            x       y       z     vdW  Elec       q    Type
REMARK                         _______ _______ _______ _____ _____    ______ ____
ROOT
ATOM      1  O   UNL     1       1.359  10.201  17.927  0.00  0.00    +0.000 OA
ATOM      2  C   UNL     1       1.259   9.676  19.031  0.00  0.00    +0.000 A 
ATOM      3  C   UNL     1       1.798   8.320  19.232  0.00  0.00    +0.000 A 
ATOM      4  C   UNL     1       2.506   7.643  18.231  0.00  0.00    +0.000 A 
ATOM      5  C   UNL     1       3.032   6.371  18.465  0.00  0.00    +0.000 A 
ATOM      6  C   UNL     1       2.837   5.779  19.708  0.00  0.00    +0.000 A 
ATOM      7  C   UNL     1       2.121   6.433  20.706  0.00  0.00    +0.000 A 
ATOM      8  C   UNL     1       1.595   7.706  20.462  0.00  0.00    +0.000 A 
ATOM      9  O   UNL     1       0.872   8.269  21.487  0.00  0.00    +0.000 OA
ATOM     10  C   UNL     1       0.406   9.554  21.328  0.00  0.00    +0.000 A 
ATOM     11  C   UNL     1      -0.292  10.076  22.430  0.00  0.00    +0.000 A 
ATOM     12  C   UNL     1      -0.787  11.365  22.406  0.00  0.00    +0.000 A 
ATOM     13  C   UNL     1      -0.553  12.167  21.297  0.00  0.00    +0.000 A 
ATOM     14  C   UNL     1       0.173  11.692  20.192  0.00  0.00    +0.000 A 
ATOM     15  C   UNL     1       0.603  10.342  20.189  0.00  0.00    +0.000 A 
ENDROOT
BRANCH   4  16
ATOM     16  O   UNL     1       2.723   8.174  16.987  0.00  0.00    +0.000 OA
ATOM     17  H   UNL     1       2.977   9.116  17.107  0.00  0.00    +0.000 HD
ENDBRANCH   4  16
BRANCH   6  18
ATOM     18  O   UNL     1       3.331   4.538  19.990  0.00  0.00    +0.000 OA
ATOM     19  H   UNL     1       2.710   4.078  20.579  0.00  0.00    +0.000 HD
ENDBRANCH   6  18
BRANCH  11  20
ATOM     20  O   UNL     1      -0.505   9.338  23.555  0.00  0.00    +0.000 OA
ATOM     21  H   UNL     1      -0.159   8.445  23.389  0.00  0.00    +0.000 HD
ENDBRANCH  11  20
BRANCH  14  22
ATOM     22  O   UNL     1       0.428  12.497  19.118  0.00  0.00    +0.000 OA
BRANCH  22  23
ATOM     23  C   UNL     1       1.341  13.608  19.278  0.00  0.00    +0.000 C 
ATOM     24  O   UNL     1       0.715  14.868  19.577  0.00  0.00    +0.000 OA
ATOM     25  C   UNL     1       1.666  15.887  19.917  0.00  0.00    +0.000 C 
ATOM     26  C   UNL     1       2.626  16.153  18.752  0.00  0.00    +0.000 C 
ATOM     27  C   UNL     1       3.317  14.855  18.310  0.00  0.00    +0.000 C 
ATOM     28  C   UNL     1       2.312  13.715  18.068  0.00  0.00    +0.000 C 
BRANCH  26  29
ATOM     29  O   UNL     1       3.582  17.143  19.145  0.00  0.00    +0.000 OA
ATOM     30  H   UNL     1       3.264  17.592  19.947  0.00  0.00    +0.000 HD
ENDBRANCH  26  29
BRANCH  27  31
ATOM     31  O   UNL     1       4.112  15.127  17.144  0.00  0.00    +0.000 OA
ATOM     32  H   UNL     1       3.613  15.719  16.555  0.00  0.00    +0.000 HD
ENDBRANCH  27  31
BRANCH  28  33
ATOM     33  O   UNL     1       3.041  12.505  17.817  0.00  0.00    +0.000 OA
ATOM     34  H   UNL     1       2.564  11.751  18.205  0.00  0.00    +0.000 HD
ENDBRANCH  28  33
BRANCH  25  35
ATOM     35  C   UNL     1       0.940  17.193  20.301  0.00  0.00    +0.000 C 
BRANCH  35  36
ATOM     36  O   UNL     1       0.765  18.073  19.191  0.00  0.00    +0.000 OA
ATOM     37  H   UNL     1      -0.187  18.158  19.014  0.00  0.00    +0.000 HD
ENDBRANCH  35  36
ENDBRANCH  25  35
ENDBRANCH  22  23
ENDBRANCH  14  22
TORSDOF 10
ENDMDL
MODEL 7
REMARK VINA RESULT:      -7.7      2.191      8.372
REMARK  Name = 
REMARK  10 active torsions:
REMARK  status: ('A' for Active; 'I' for Inactive)
REMARK    1  A    between atoms: C_4  and  O_5
REMARK    2  A    between atoms: C_7  and  O_8
REMARK    3  A    between atoms: C_13  and  O_14
REMARK    4  A    between atoms: C_17  and  O_18
REMARK    5  A    between atoms: O_18  and  C_19
REMARK    6  A    between atoms: C_21  and  C_22
REMARK    7  A    between atoms: C_22  and  O_23
REMARK    8  A    between atoms: C_24  and  O_25
REMARK    9  A    between atoms: C_26  and  O_27
REMARK   10  A    between atoms: C_28  and  O_29
REMARK                            x       y       z     vdW  Elec       q    Type
REMARK                         _______ _______ _______ _____ _____    ______ ____
ROOT
ATOM      1  O   UNL     1       4.510   7.292  18.074  0.00  0.00    +0.000 OA
ATOM      2  C   UNL     1       4.134   6.149  17.832  0.00  0.00    +0.000 A 
ATOM      3  C   UNL     1       4.772   5.403  16.734  0.00  0.00    +0.000 A 
ATOM      4  C   UNL     1       5.858   5.917  16.015  0.00  0.00    +0.000 A 
ATOM      5  C   UNL     1       6.461   5.170  15.001  0.00  0.00    +0.000 A 
ATOM      6  C   UNL     1       5.962   3.906  14.707  0.00  0.00    +0.000 A 
ATOM      7  C   UNL     1       4.872   3.390  15.402  0.00  0.00    +0.000 A 
ATOM      8  C   UNL     1       4.273   4.146  16.415  0.00  0.00    +0.000 A 
ATOM      9  O   UNL     1       3.181   3.579  17.029  0.00  0.00    +0.000 OA
ATOM     10  C   UNL     1       2.609   4.245  18.088  0.00  0.00    +0.000 A 
ATOM     11  C   UNL     1       1.522   3.589  18.689  0.00  0.00    +0.000 A 
ATOM     12  C   UNL     1       0.877   4.141  19.778  0.00  0.00    +0.000 A 
ATOM     13  C   UNL     1       1.339   5.338  20.311  0.00  0.00    +0.000 A 
ATOM     14  C   UNL     1       2.446   6.004  19.760  0.00  0.00    +0.000 A 
ATOM     15  C   UNL     1       3.047   5.475  18.591  0.00  0.00    +0.000 A 
ENDROOT
BRANCH   4  16
ATOM     16  O   UNL     1       6.388   7.158  16.256  0.00  0.00    +0.000 OA
ATOM     17  H   UNL     1       6.769   7.486  15.411  0.00  0.00    +0.000 HD
ENDBRANCH   4  16
BRANCH   6  18
ATOM     18  O   UNL     1       6.513   3.133  13.727  0.00  0.00    +0.000 OA
ATOM     19  H   UNL     1       7.481   3.220  13.764  0.00  0.00    +0.000 HD
ENDBRANCH   6  18
BRANCH  11  20
ATOM     20  O   UNL     1       1.065   2.392  18.225  0.00  0.00    +0.000 OA
ATOM     21  H   UNL     1       1.319   1.712  18.873  0.00  0.00    +0.000 HD
ENDBRANCH  11  20
BRANCH  14  22
ATOM     22  O   UNL     1       2.915   7.164  20.310  0.00  0.00    +0.000 OA
BRANCH  22  23
ATOM     23  C   UNL     1       2.030   8.306  20.393  0.00  0.00    +0.000 C 
ATOM     24  O   UNL     1       1.048   8.235  21.442  0.00  0.00    +0.000 OA
ATOM     25  C   UNL     1       0.330   9.466  21.605  0.00  0.00    +0.000 C 
ATOM     26  C   UNL     1      -0.435   9.830  20.328  0.00  0.00    +0.000 C 
ATOM     27  C   UNL     1       0.515   9.883  19.122  0.00  0.00    +0.000 C 
ATOM     28  C   UNL     1       1.385   8.618  19.013  0.00  0.00    +0.000 C 
BRANCH  26  29
ATOM     29  O   UNL     1      -1.102  11.083  20.518  0.00  0.00    +0.000 OA
ATOM     30  H   UNL     1      -0.785  11.489  21.343  0.00  0.00    +0.000 HD
ENDBRANCH  26  29
BRANCH  27  31
ATOM     31  O   UNL     1      -0.259  10.107  17.932  0.00  0.00    +0.000 OA
ATOM     32  H   UNL     1      -0.778   9.307  17.740  0.00  0.00    +0.000 HD
ENDBRANCH  27  31
BRANCH  28  33
ATOM     33  O   UNL     1       2.348   8.811  17.967  0.00  0.00    +0.000 OA
ATOM     34  H   UNL     1       3.066   8.162  18.063  0.00  0.00    +0.000 HD
ENDBRANCH  28  33
BRANCH  25  35
ATOM     35  C   UNL     1      -0.655   9.361  22.788  0.00  0.00    +0.000 C 
BRANCH  35  36
ATOM     36  O   UNL     1      -0.842  10.603  23.463  0.00  0.00    +0.000 OA
ATOM     37  H   UNL     1      -0.440  11.308  22.928  0.00  0.00    +0.000 HD
ENDBRANCH  35  36
ENDBRANCH  25  35
ENDBRANCH  22  23
ENDBRANCH  14  22
TORSDOF 10
ENDMDL
MODEL 8
REMARK VINA RESULT:      -7.4      2.093      8.216
REMARK  Name = 
REMARK  10 active torsions:
REMARK  status: ('A' for Active; 'I' for Inactive)
REMARK    1  A    between atoms: C_4  and  O_5
REMARK    2  A    between atoms: C_7  and  O_8
REMARK    3  A    between atoms: C_13  and  O_14
REMARK    4  A    between atoms: C_17  and  O_18
REMARK    5  A    between atoms: O_18  and  C_19
REMARK    6  A    between atoms: C_21  and  C_22
REMARK    7  A    between atoms: C_22  and  O_23
REMARK    8  A    between atoms: C_24  and  O_25
REMARK    9  A    between atoms: C_26  and  O_27
REMARK   10  A    between atoms: C_28  and  O_29
REMARK                            x       y       z     vdW  Elec       q    Type
REMARK                         _______ _______ _______ _____ _____    ______ ____
ROOT
ATOM      1  O   UNL     1       3.923   7.280  18.092  0.00  0.00    +0.000 OA
ATOM      2  C   UNL     1       3.744   6.080  17.913  0.00  0.00    +0.000 A 
ATOM      3  C   UNL     1       4.493   5.394  16.846  0.00  0.00    +0.000 A 
ATOM      4  C   UNL     1       5.475   6.045  16.088  0.00  0.00    +0.000 A 
ATOM      5  C   UNL     1       6.191   5.358  15.106  0.00  0.00    +0.000 A 
ATOM      6  C   UNL     1       5.910   4.014  14.883  0.00  0.00    +0.000 A 
ATOM      7  C   UNL     1       4.925   3.360  15.617  0.00  0.00    +0.000 A 
ATOM      8  C   UNL     1       4.211   4.057  16.598  0.00  0.00    +0.000 A 
ATOM      9  O   UNL     1       3.233   3.348  17.254  0.00  0.00    +0.000 OA
ATOM     10  C   UNL     1       2.560   3.963  18.284  0.00  0.00    +0.000 A 
ATOM     11  C   UNL     1       1.601   3.166  18.932  0.00  0.00    +0.000 A 
ATOM     12  C   UNL     1       0.878   3.659  19.999  0.00  0.00    +0.000 A 
ATOM     13  C   UNL     1       1.134   4.942  20.465  0.00  0.00    +0.000 A 
ATOM     14  C   UNL     1       2.111   5.754  19.867  0.00  0.00    +0.000 A 
ATOM     15  C   UNL     1       2.788   5.273  18.719  0.00  0.00    +0.000 A 
ENDROOT
BRANCH   4  16
ATOM     16  O   UNL     1       5.789   7.368  16.260  0.00  0.00    +0.000 OA
ATOM     17  H   UNL     1       6.354   7.638  15.501  0.00  0.00    +0.000 HD
ENDBRANCH   4  16
BRANCH   6  18
ATOM     18  O   UNL     1       6.580   3.295  13.937  0.00  0.00    +0.000 OA
ATOM     19  H   UNL     1       6.058   3.288  13.117  0.00  0.00    +0.000 HD
ENDBRANCH   6  18
BRANCH  11  20
ATOM     20  O   UNL     1       1.350   1.887  18.535  0.00  0.00    +0.000 OA
ATOM     21  H   UNL     1       1.593   1.300  19.271  0.00  0.00    +0.000 HD
ENDBRANCH  11  20
BRANCH  14  22
ATOM     22  O   UNL     1       2.380   7.003  20.352  0.00  0.00    +0.000 OA
BRANCH  22  23
ATOM     23  C   UNL     1       1.543   8.109  19.939  0.00  0.00    +0.000 C 
ATOM     24  O   UNL     1       2.215   9.122  19.168  0.00  0.00    +0.000 OA
ATOM     25  C   UNL     1       1.307  10.089  18.623  0.00  0.00    +0.000 C 
ATOM     26  C   UNL     1       0.557  10.828  19.736  0.00  0.00    +0.000 C 
ATOM     27  C   UNL     1      -0.161   9.834  20.661  0.00  0.00    +0.000 C 
ATOM     28  C   UNL     1       0.777   8.715  21.149  0.00  0.00    +0.000 C 
BRANCH  26  29
ATOM     29  O   UNL     1      -0.367  11.751  19.150  0.00  0.00    +0.000 OA
ATOM     30  H   UNL     1       0.106  12.569  18.916  0.00  0.00    +0.000 HD
ENDBRANCH  26  29
BRANCH  27  31
ATOM     31  O   UNL     1      -0.747  10.558  21.754  0.00  0.00    +0.000 OA
ATOM     32  H   UNL     1      -1.696  10.350  21.796  0.00  0.00    +0.000 HD
ENDBRANCH  27  31
BRANCH  28  33
ATOM     33  O   UNL     1       0.000   7.747  21.870  0.00  0.00    +0.000 OA
ATOM     34  H   UNL     1      -0.919   8.058  21.944  0.00  0.00    +0.000 HD
ENDBRANCH  28  33
BRANCH  25  35
ATOM     35  C   UNL     1       2.068  11.105  17.746  0.00  0.00    +0.000 C 
BRANCH  35  36
ATOM     36  O   UNL     1       2.322  12.336  18.421  0.00  0.00    +0.000 OA
ATOM     37  H   UNL     1       1.686  12.423  19.151  0.00  0.00    +0.000 HD
ENDBRANCH  35  36
ENDBRANCH  25  35
ENDBRANCH  22  23
ENDBRANCH  14  22
TORSDOF 10
ENDMDL
MODEL 9
REMARK VINA RESULT:      -7.2      2.557      8.756
REMARK  Name = 
REMARK  10 active torsions:
REMARK  status: ('A' for Active; 'I' for Inactive)
REMARK    1  A    between atoms: C_4  and  O_5
REMARK    2  A    between atoms: C_7  and  O_8
REMARK    3  A    between atoms: C_13  and  O_14
REMARK    4  A    between atoms: C_17  and  O_18
REMARK    5  A    between atoms: O_18  and  C_19
REMARK    6  A    between atoms: C_21  and  C_22
REMARK    7  A    between atoms: C_22  and  O_23
REMARK    8  A    between atoms: C_24  and  O_25
REMARK    9  A    between atoms: C_26  and  O_27
REMARK   10  A    between atoms: C_28  and  O_29
REMARK                            x       y       z     vdW  Elec       q    Type
REMARK                         _______ _______ _______ _____ _____    ______ ____
ROOT
ATOM      1  O   UNL     1       1.163  10.379  18.049  0.00  0.00    +0.000 OA
ATOM      2  C   UNL     1       1.095   9.809  19.133  0.00  0.00    +0.000 A 
ATOM      3  C   UNL     1       1.693   8.471  19.278  0.00  0.00    +0.000 A 
ATOM      4  C   UNL     1       2.422   7.864  18.248  0.00  0.00    +0.000 A 
ATOM      5  C   UNL     1       3.004   6.608  18.429  0.00  0.00    +0.000 A 
ATOM      6  C   UNL     1       2.845   5.962  19.650  0.00  0.00    +0.000 A 
ATOM      7  C   UNL     1       2.109   6.546  20.677  0.00  0.00    +0.000 A 
ATOM      8  C   UNL     1       1.527   7.803  20.485  0.00  0.00    +0.000 A 
ATOM      9  O   UNL     1       0.789   8.295  21.535  0.00  0.00    +0.000 OA
ATOM     10  C   UNL     1       0.267   9.563  21.429  0.00  0.00    +0.000 A 
ATOM     11  C   UNL     1      -0.444  10.013  22.554  0.00  0.00    +0.000 A 
ATOM     12  C   UNL     1      -0.995  11.279  22.583  0.00  0.00    +0.000 A 
ATOM     13  C   UNL     1      -0.804  12.132  21.503  0.00  0.00    +0.000 A 
ATOM     14  C   UNL     1      -0.068  11.731  20.377  0.00  0.00    +0.000 A 
ATOM     15  C   UNL     1       0.420  10.402  20.319  0.00  0.00    +0.000 A 
ENDROOT
BRANCH   4  16
ATOM     16  O   UNL     1       2.605   8.451  17.023  0.00  0.00    +0.000 OA
ATOM     17  H   UNL     1       1.818   8.240  16.473  0.00  0.00    +0.000 HD
ENDBRANCH   4  16
BRANCH   6  18
ATOM     18  O   UNL     1       3.394   4.734  19.881  0.00  0.00    +0.000 OA
ATOM     19  H   UNL     1       4.362   4.811  19.856  0.00  0.00    +0.000 HD
ENDBRANCH   6  18
BRANCH  11  20
ATOM     20  O   UNL     1      -0.616   9.225  23.652  0.00  0.00    +0.000 OA
ATOM     21  H   UNL     1       0.026   9.515  24.323  0.00  0.00    +0.000 HD
ENDBRANCH  11  20
BRANCH  14  22
ATOM     22  O   UNL     1       0.143  12.587  19.332  0.00  0.00    +0.000 OA
BRANCH  22  23
ATOM     23  C   UNL     1       1.089  13.670  19.496  0.00  0.00    +0.000 C 
ATOM     24  O   UNL     1       2.065  13.468  20.534  0.00  0.00    +0.000 OA
ATOM     25  C   UNL     1       3.090  14.472  20.525  0.00  0.00    +0.000 C 
ATOM     26  C   UNL     1       2.496  15.865  20.762  0.00  0.00    +0.000 C 
ATOM     27  C   UNL     1       1.396  16.169  19.735  0.00  0.00    +0.000 C 
ATOM     28  C   UNL     1       0.359  15.035  19.642  0.00  0.00    +0.000 C 
BRANCH  26  29
ATOM     29  O   UNL     1       3.543  16.840  20.704  0.00  0.00    +0.000 OA
ATOM     30  H   UNL     1       3.723  17.167  21.602  0.00  0.00    +0.000 HD
ENDBRANCH  26  29
BRANCH  27  31
ATOM     31  O   UNL     1       0.787  17.427  20.066  0.00  0.00    +0.000 OA
ATOM     32  H   UNL     1       1.220  18.131  19.553  0.00  0.00    +0.000 HD
ENDBRANCH  27  31
BRANCH  28  33
ATOM     33  O   UNL     1      -0.537  15.318  18.558  0.00  0.00    +0.000 OA
ATOM     34  H   UNL     1      -0.060  15.240  17.714  0.00  0.00    +0.000 HD
ENDBRANCH  28  33
BRANCH  25  35
ATOM     35  C   UNL     1       4.149  14.168  21.606  0.00  0.00    +0.000 C 
BRANCH  35  36
ATOM     36  O   UNL     1       3.788  14.675  22.889  0.00  0.00    +0.000 OA
ATOM     37  H   UNL     1       3.246  14.008  23.342  0.00  0.00    +0.000 HD
ENDBRANCH  35  36
ENDBRANCH  25  35
ENDBRANCH  22  23
ENDBRANCH  14  22
TORSDOF 10
ENDMDL
