MODEL 1
REMARK VINA RESULT:      -7.8      0.000      0.000
REMARK  Name = 
REMARK  2 active torsions:
REMARK  status: ('A' for Active; 'I' for Inactive)
REMARK    1  A    between atoms: C_1  and  O_2
REMARK    2  A    between atoms: O_2  and  C_3
REMARK                            x       y       z     vdW  Elec       q    Type
REMARK                         _______ _______ _______ _____ _____    ______ ____
ROOT
ATOM      1  C   UNL     1       6.646   5.660  16.072  0.00  0.00    +0.000 A 
ATOM      2  N   UNL     1       5.689   5.449  16.993  0.00  0.00    +0.000 NA
ATOM      3  C   UNL     1       4.706   4.590  16.678  0.00  0.00    +0.000 A 
ATOM      4  N   UNL     1       3.685   4.305  17.641  0.00  0.00    +0.000 N 
ATOM      5  C   UNL     1       2.751   3.299  17.417  0.00  0.00    +0.000 A 
ATOM      6  C   UNL     1       1.747   2.987  18.250  0.00  0.00    +0.000 A 
ATOM      7  C   UNL     1       1.609   3.779  19.497  0.00  0.00    +0.000 A 
ATOM      8  N   UNL     1       0.652   3.590  20.345  0.00  0.00    +0.000 NA
ATOM      9  C   UNL     1       2.632   4.823  19.753  0.00  0.00    +0.000 A 
ATOM     10  C   UNL     1       3.583   5.022  18.830  0.00  0.00    +0.000 A 
ATOM     11  N   UNL     1       4.658   3.967  15.483  0.00  0.00    +0.000 NA
ATOM     12  C   UNL     1       5.601   4.217  14.569  0.00  0.00    +0.000 A 
ATOM     13  C   UNL     1       5.539   3.568  13.342  0.00  0.00    +0.000 A 
ATOM     14  C   UNL     1       6.502   3.772  12.350  0.00  0.00    +0.000 A 
ATOM     15  C   UNL     1       7.551   4.653  12.578  0.00  0.00    +0.000 A 
ATOM     16  C   UNL     1       7.633   5.316  13.801  0.00  0.00    +0.000 A 
ATOM     17  C   UNL     1       6.656   5.093  14.802  0.00  0.00    +0.000 A 
ATOM     18  H   UNL     1       0.027   2.844  20.026  0.00  0.00    +0.000 HD
ENDROOT
BRANCH   1  20
ATOM     19  C   UNL     1       7.399   7.318  17.529  0.00  0.00    +0.000 C 
ATOM     20  O   UNL     1       7.702   6.489  16.409  0.00  0.00    +0.000 OA
ENDBRANCH   1  20
TORSDOF 1
ENDMDL
MODEL 2
REMARK VINA RESULT:      -7.1      3.486      4.666
REMARK  Name = 
REMARK  2 active torsions:
REMARK  status: ('A' for Active; 'I' for Inactive)
REMARK    1  A    between atoms: C_1  and  O_2
REMARK    2  A    between atoms: O_2  and  C_3
REMARK                            x       y       z     vdW  Elec       q    Type
REMARK                         _______ _______ _______ _____ _____    ______ ____
ROOT
ATOM      1  C   UNL     1       4.165   4.734  18.804  0.00  0.00    +0.000 A 
ATOM      2  N   UNL     1       3.351   5.665  19.332  0.00  0.00    +0.000 NA
ATOM      3  C   UNL     1       3.133   6.777  18.611  0.00  0.00    +0.000 A 
ATOM      4  N   UNL     1       2.244   7.779  19.116  0.00  0.00    +0.000 N 
ATOM      5  C   UNL     1       1.862   8.860  18.327  0.00  0.00    +0.000 A 
ATOM      6  C   UNL     1       1.060   9.857  18.731  0.00  0.00    +0.000 A 
ATOM      7  C   UNL     1       0.549   9.816  20.123  0.00  0.00    +0.000 A 
ATOM      8  N   UNL     1      -0.194  10.747  20.625  0.00  0.00    +0.000 NA
ATOM      9  C   UNL     1       0.924   8.640  20.948  0.00  0.00    +0.000 A 
ATOM     10  C   UNL     1       1.733   7.717  20.409  0.00  0.00    +0.000 A 
ATOM     11  N   UNL     1       3.713   6.974  17.410  0.00  0.00    +0.000 NA
ATOM     12  C   UNL     1       4.545   6.051  16.918  0.00  0.00    +0.000 A 
ATOM     13  C   UNL     1       5.136   6.267  15.679  0.00  0.00    +0.000 A 
ATOM     14  C   UNL     1       6.002   5.335  15.102  0.00  0.00    +0.000 A 
ATOM     15  C   UNL     1       6.299   4.159  15.778  0.00  0.00    +0.000 A 
ATOM     16  C   UNL     1       5.720   3.921  17.023  0.00  0.00    +0.000 A 
ATOM     17  C   UNL     1       4.836   4.870  17.592  0.00  0.00    +0.000 A 
ATOM     18  H   UNL     1      -0.359  11.489  19.938  0.00  0.00    +0.000 HD
ENDROOT
BRANCH   1  20
ATOM     19  C   UNL     1       3.137   2.800  19.606  0.00  0.00    +0.000 C 
ATOM     20  O   UNL     1       4.345   3.553  19.504  0.00  0.00    +0.000 OA
ENDBRANCH   1  20
TORSDOF 1
ENDMDL
MODEL 3
REMARK VINA RESULT:      -6.9      3.031      6.911
REMARK  Name = 
REMARK  2 active torsions:
REMARK  status: ('A' for Active; 'I' for Inactive)
REMARK    1  A    between atoms: C_1  and  O_2
REMARK    2  A    between atoms: O_2  and  C_3
REMARK                            x       y       z     vdW  Elec       q    Type
REMARK                         _______ _______ _______ _____ _____    ______ ____
ROOT
ATOM      1  C   UNL     1       2.417   5.527  20.175  0.00  0.00    +0.000 A 
ATOM      2  N   UNL     1       3.180   5.000  19.201  0.00  0.00    +0.000 NA
ATOM      3  C   UNL     1       3.498   5.794  18.166  0.00  0.00    +0.000 A 
ATOM      4  N   UNL     1       4.341   5.288  17.124  0.00  0.00    +0.000 N 
ATOM      5  C   UNL     1       4.828   6.128  16.127  0.00  0.00    +0.000 A 
ATOM      6  C   UNL     1       5.596   5.732  15.101  0.00  0.00    +0.000 A 
ATOM      7  C   UNL     1       5.943   4.292  15.010  0.00  0.00    +0.000 A 
ATOM      8  N   UNL     1       6.640   3.800  14.038  0.00  0.00    +0.000 NA
ATOM      9  C   UNL     1       5.457   3.408  16.097  0.00  0.00    +0.000 A 
ATOM     10  C   UNL     1       4.700   3.945  17.064  0.00  0.00    +0.000 A 
ATOM     11  N   UNL     1       3.063   7.068  18.082  0.00  0.00    +0.000 NA
ATOM     12  C   UNL     1       2.276   7.561  19.044  0.00  0.00    +0.000 A 
ATOM     13  C   UNL     1       1.834   8.875  18.946  0.00  0.00    +0.000 A 
ATOM     14  C   UNL     1       1.024   9.457  19.924  0.00  0.00    +0.000 A 
ATOM     15  C   UNL     1       0.632   8.710  21.027  0.00  0.00    +0.000 A 
ATOM     16  C   UNL     1       1.061   7.390  21.147  0.00  0.00    +0.000 A 
ATOM     17  C   UNL     1       1.891   6.815  20.153  0.00  0.00    +0.000 A 
ATOM     18  H   UNL     1       6.894   4.531  13.367  0.00  0.00    +0.000 HD
ENDROOT
BRANCH   1  20
ATOM     19  C   UNL     1       1.442   3.548  20.932  0.00  0.00    +0.000 C 
ATOM     20  O   UNL     1       2.139   4.743  21.281  0.00  0.00    +0.000 OA
ENDBRANCH   1  20
TORSDOF 1
ENDMDL
MODEL 4
REMARK VINA RESULT:      -6.8      4.123      5.445
REMARK  Name = 
REMARK  2 active torsions:
REMARK  status: ('A' for Active; 'I' for Inactive)
REMARK    1  A    between atoms: C_1  and  O_2
REMARK    2  A    between atoms: O_2  and  C_3
REMARK                            x       y       z     vdW  Elec       q    Type
REMARK                         _______ _______ _______ _____ _____    ______ ____
ROOT
ATOM      1  C   UNL     1       3.302   5.241  19.157  0.00  0.00    +0.000 A 
ATOM      2  N   UNL     1       2.572   6.294  19.565  0.00  0.00    +0.000 NA
ATOM      3  C   UNL     1       2.615   7.406  18.813  0.00  0.00    +0.000 A 
ATOM      4  N   UNL     1       1.825   8.540  19.187  0.00  0.00    +0.000 N 
ATOM      5  C   UNL     1       1.713   9.643  18.347  0.00  0.00    +0.000 A 
ATOM      6  C   UNL     1       1.020  10.756  18.632  0.00  0.00    +0.000 A 
ATOM      7  C   UNL     1       0.331  10.827  19.944  0.00  0.00    +0.000 A 
ATOM      8  N   UNL     1      -0.326  11.869  20.334  0.00  0.00    +0.000 NA
ATOM      9  C   UNL     1       0.417   9.632  20.820  0.00  0.00    +0.000 A 
ATOM     10  C   UNL     1       1.145   8.587  20.401  0.00  0.00    +0.000 A 
ATOM     11  N   UNL     1       3.370   7.485  17.698  0.00  0.00    +0.000 NA
ATOM     12  C   UNL     1       4.115   6.439  17.329  0.00  0.00    +0.000 A 
ATOM     13  C   UNL     1       4.889   6.534  16.179  0.00  0.00    +0.000 A 
ATOM     14  C   UNL     1       5.677   5.471  15.729  0.00  0.00    +0.000 A 
ATOM     15  C   UNL     1       5.707   4.283  16.448  0.00  0.00    +0.000 A 
ATOM     16  C   UNL     1       4.940   4.164  17.605  0.00  0.00    +0.000 A 
ATOM     17  C   UNL     1       4.138   5.246  18.045  0.00  0.00    +0.000 A 
ATOM     18  H   UNL     1      -0.289  12.608  19.627  0.00  0.00    +0.000 HD
ENDROOT
BRANCH   1  20
ATOM     19  C   UNL     1       2.286   4.171  20.963  0.00  0.00    +0.000 C 
ATOM     20  O   UNL     1       3.212   4.066  19.883  0.00  0.00    +0.000 OA
ENDBRANCH   1  20
TORSDOF 1
ENDMDL
MODEL 5
REMARK VINA RESULT:      -6.8      5.059      8.239
REMARK  Name = 
REMARK  2 active torsions:
REMARK  status: ('A' for Active; 'I' for Inactive)
REMARK    1  A    between atoms: C_1  and  O_2
REMARK    2  A    between atoms: O_2  and  C_3
REMARK                            x       y       z     vdW  Elec       q    Type
REMARK                         _______ _______ _______ _____ _____    ______ ____
ROOT
ATOM      1  C   UNL     1       1.009  10.026  19.413  0.00  0.00    +0.000 A 
ATOM      2  N   UNL     1       1.699   8.941  19.019  0.00  0.00    +0.000 NA
ATOM      3  C   UNL     1       1.764   7.905  19.871  0.00  0.00    +0.000 A 
ATOM      4  N   UNL     1       2.456   6.714  19.480  0.00  0.00    +0.000 N 
ATOM      5  C   UNL     1       2.401   5.565  20.262  0.00  0.00    +0.000 A 
ATOM      6  C   UNL     1       3.043   4.420  19.986  0.00  0.00    +0.000 A 
ATOM      7  C   UNL     1       3.884   4.373  18.765  0.00  0.00    +0.000 A 
ATOM      8  N   UNL     1       4.577   3.334  18.431  0.00  0.00    +0.000 NA
ATOM      9  C   UNL     1       3.906   5.586  17.910  0.00  0.00    +0.000 A 
ATOM     10  C   UNL     1       3.211   6.659  18.312  0.00  0.00    +0.000 A 
ATOM     11  N   UNL     1       1.179   7.943  21.086  0.00  0.00    +0.000 NA
ATOM     12  C   UNL     1       0.527   9.043  21.471  0.00  0.00    +0.000 A 
ATOM     13  C   UNL     1      -0.071   9.069  22.725  0.00  0.00    +0.000 A 
ATOM     14  C   UNL     1      -0.782  10.182  23.183  0.00  0.00    +0.000 A 
ATOM     15  C   UNL     1      -0.893  11.307  22.376  0.00  0.00    +0.000 A 
ATOM     16  C   UNL     1      -0.301  11.305  21.115  0.00  0.00    +0.000 A 
ATOM     17  C   UNL     1       0.408  10.167  20.660  0.00  0.00    +0.000 A 
ATOM     18  H   UNL     1       4.463   2.585  19.120  0.00  0.00    +0.000 HD
ENDROOT
BRANCH   1  20
ATOM     19  C   UNL     1       2.095  11.789  18.341  0.00  0.00    +0.000 C 
ATOM     20  O   UNL     1       0.874  11.073  18.517  0.00  0.00    +0.000 OA
ENDBRANCH   1  20
TORSDOF 1
ENDMDL
MODEL 6
REMARK VINA RESULT:      -6.7      3.928      6.129
REMARK  Name = 
REMARK  2 active torsions:
REMARK  status: ('A' for Active; 'I' for Inactive)
REMARK    1  A    between atoms: C_1  and  O_2
REMARK    2  A    between atoms: O_2  and  C_3
REMARK                            x       y       z     vdW  Elec       q    Type
REMARK                         _______ _______ _______ _____ _____    ______ ____
ROOT
ATOM      1  C   UNL     1       3.700   5.489  17.835  0.00  0.00    +0.000 A 
ATOM      2  N   UNL     1       3.178   6.726  17.909  0.00  0.00    +0.000 NA
ATOM      3  C   UNL     1       2.446   7.024  18.995  0.00  0.00    +0.000 A 
ATOM      4  N   UNL     1       1.902   8.341  19.136  0.00  0.00    +0.000 N 
ATOM      5  C   UNL     1       1.284   8.737  20.318  0.00  0.00    +0.000 A 
ATOM      6  C   UNL     1       0.723   9.938  20.523  0.00  0.00    +0.000 A 
ATOM      7  C   UNL     1       0.747  10.915  19.407  0.00  0.00    +0.000 A 
ATOM      8  N   UNL     1       0.196  12.082  19.486  0.00  0.00    +0.000 NA
ATOM      9  C   UNL     1       1.443  10.505  18.162  0.00  0.00    +0.000 A 
ATOM     10  C   UNL     1       1.962   9.271  18.101  0.00  0.00    +0.000 A 
ATOM     11  N   UNL     1       2.220   6.124  19.973  0.00  0.00    +0.000 NA
ATOM     12  C   UNL     1       2.719   4.889  19.863  0.00  0.00    +0.000 A 
ATOM     13  C   UNL     1       2.479   3.971  20.878  0.00  0.00    +0.000 A 
ATOM     14  C   UNL     1       2.986   2.670  20.832  0.00  0.00    +0.000 A 
ATOM     15  C   UNL     1       3.745   2.264  19.743  0.00  0.00    +0.000 A 
ATOM     16  C   UNL     1       3.998   3.166  18.712  0.00  0.00    +0.000 A 
ATOM     17  C   UNL     1       3.487   4.486  18.775  0.00  0.00    +0.000 A 
ATOM     18  H   UNL     1      -0.247  12.214  20.399  0.00  0.00    +0.000 HD
ENDROOT
BRANCH   1  20
ATOM     19  C   UNL     1       5.233   6.331  16.291  0.00  0.00    +0.000 C 
ATOM     20  O   UNL     1       4.515   5.189  16.756  0.00  0.00    +0.000 OA
ENDBRANCH   1  20
TORSDOF 1
ENDMDL
MODEL 7
REMARK VINA RESULT:      -6.7      2.245      6.432
REMARK  Name = 
REMARK  2 active torsions:
REMARK  status: ('A' for Active; 'I' for Inactive)
REMARK    1  A    between atoms: C_1  and  O_2
REMARK    2  A    between atoms: O_2  and  C_3
REMARK                            x       y       z     vdW  Elec       q    Type
REMARK                         _______ _______ _______ _____ _____    ______ ____
ROOT
ATOM      1  C   UNL     1       2.803   5.901  19.208  0.00  0.00    +0.000 A 
ATOM      2  N   UNL     1       3.692   6.028  18.207  0.00  0.00    +0.000 NA
ATOM      3  C   UNL     1       4.168   4.900  17.655  0.00  0.00    +0.000 A 
ATOM      4  N   UNL     1       5.088   4.987  16.561  0.00  0.00    +0.000 N 
ATOM      5  C   UNL     1       5.470   3.850  15.856  0.00  0.00    +0.000 A 
ATOM      6  C   UNL     1       6.348   3.836  14.841  0.00  0.00    +0.000 A 
ATOM      7  C   UNL     1       6.969   5.124  14.445  0.00  0.00    +0.000 A 
ATOM      8  N   UNL     1       7.857   5.215  13.510  0.00  0.00    +0.000 NA
ATOM      9  C   UNL     1       6.527   6.341  15.170  0.00  0.00    +0.000 A 
ATOM     10  C   UNL     1       5.638   6.202  16.164  0.00  0.00    +0.000 A 
ATOM     11  N   UNL     1       3.792   3.680  18.087  0.00  0.00    +0.000 NA
ATOM     12  C   UNL     1       2.933   3.576  19.106  0.00  0.00    +0.000 A 
ATOM     13  C   UNL     1       2.554   2.312  19.542  0.00  0.00    +0.000 A 
ATOM     14  C   UNL     1       1.648   2.133  20.591  0.00  0.00    +0.000 A 
ATOM     15  C   UNL     1       1.111   3.241  21.233  0.00  0.00    +0.000 A 
ATOM     16  C   UNL     1       1.477   4.518  20.815  0.00  0.00    +0.000 A 
ATOM     17  C   UNL     1       2.389   4.686  19.744  0.00  0.00    +0.000 A 
ATOM     18  H   UNL     1       8.060   4.294  13.112  0.00  0.00    +0.000 HD
ENDROOT
BRANCH   1  20
ATOM     19  C   UNL     1       2.147   8.096  18.771  0.00  0.00    +0.000 C 
ATOM     20  O   UNL     1       2.251   7.054  19.740  0.00  0.00    +0.000 OA
ENDBRANCH   1  20
TORSDOF 1
ENDMDL
MODEL 8
REMARK VINA RESULT:      -6.7      1.633      1.835
REMARK  Name = 
REMARK  2 active torsions:
REMARK  status: ('A' for Active; 'I' for Inactive)
REMARK    1  A    between atoms: C_1  and  O_2
REMARK    2  A    between atoms: O_2  and  C_3
REMARK                            x       y       z     vdW  Elec       q    Type
REMARK                         _______ _______ _______ _____ _____    ______ ____
ROOT
ATOM      1  C   UNL     1       6.745   4.505  17.792  0.00  0.00    +0.000 A 
ATOM      2  N   UNL     1       5.795   4.179  18.686  0.00  0.00    +0.000 NA
ATOM      3  C   UNL     1       4.603   3.786  18.206  0.00  0.00    +0.000 A 
ATOM      4  N   UNL     1       3.572   3.393  19.119  0.00  0.00    +0.000 N 
ATOM      5  C   UNL     1       2.390   2.821  18.660  0.00  0.00    +0.000 A 
ATOM      6  C   UNL     1       1.363   2.453  19.441  0.00  0.00    +0.000 A 
ATOM      7  C   UNL     1       1.487   2.681  20.902  0.00  0.00    +0.000 A 
ATOM      8  N   UNL     1       0.541   2.404  21.737  0.00  0.00    +0.000 NA
ATOM      9  C   UNL     1       2.767   3.252  21.393  0.00  0.00    +0.000 A 
ATOM     10  C   UNL     1       3.708   3.569  20.493  0.00  0.00    +0.000 A 
ATOM     11  N   UNL     1       4.349   3.731  16.883  0.00  0.00    +0.000 NA
ATOM     12  C   UNL     1       5.297   4.092  16.013  0.00  0.00    +0.000 A 
ATOM     13  C   UNL     1       5.022   4.031  14.652  0.00  0.00    +0.000 A 
ATOM     14  C   UNL     1       5.974   4.378  13.689  0.00  0.00    +0.000 A 
ATOM     15  C   UNL     1       7.232   4.809  14.089  0.00  0.00    +0.000 A 
ATOM     16  C   UNL     1       7.531   4.880  15.448  0.00  0.00    +0.000 A 
ATOM     17  C   UNL     1       6.560   4.515  16.413  0.00  0.00    +0.000 A 
ATOM     18  H   UNL     1      -0.276   2.026  21.248  0.00  0.00    +0.000 HD
ENDROOT
BRANCH   1  20
ATOM     19  C   UNL     1       7.938   5.879  19.250  0.00  0.00    +0.000 C 
ATOM     20  O   UNL     1       7.999   4.845  18.270  0.00  0.00    +0.000 OA
ENDBRANCH   1  20
TORSDOF 1
ENDMDL
MODEL 9
REMARK VINA RESULT:      -6.7      4.289      6.158
REMARK  Name = 
REMARK  2 active torsions:
REMARK  status: ('A' for Active; 'I' for Inactive)
REMARK    1  A    between atoms: C_1  and  O_2
REMARK    2  A    between atoms: O_2  and  C_3
REMARK                            x       y       z     vdW  Elec       q    Type
REMARK                         _______ _______ _______ _____ _____    ______ ____
ROOT
ATOM      1  C   UNL     1       2.579   5.119  19.942  0.00  0.00    +0.000 A 
ATOM      2  N   UNL     1       1.904   6.127  20.522  0.00  0.00    +0.000 NA
ATOM      3  C   UNL     1       1.967   7.333  19.935  0.00  0.00    +0.000 A 
ATOM      4  N   UNL     1       1.234   8.428  20.495  0.00  0.00    +0.000 N 
ATOM      5  C   UNL     1       1.138   9.644  19.825  0.00  0.00    +0.000 A 
ATOM      6  C   UNL     1       0.499  10.727  20.290  0.00  0.00    +0.000 A 
ATOM      7  C   UNL     1      -0.145  10.632  21.624  0.00  0.00    +0.000 A 
ATOM      8  N   UNL     1      -0.749  11.630  22.182  0.00  0.00    +0.000 NA
ATOM      9  C   UNL     1      -0.078   9.322  22.317  0.00  0.00    +0.000 A 
ATOM     10  C   UNL     1       0.595   8.324  21.727  0.00  0.00    +0.000 A 
ATOM     11  N   UNL     1       2.690   7.546  18.816  0.00  0.00    +0.000 NA
ATOM     12  C   UNL     1       3.381   6.538  18.275  0.00  0.00    +0.000 A 
ATOM     13  C   UNL     1       4.121   6.771  17.122  0.00  0.00    +0.000 A 
ATOM     14  C   UNL     1       4.853   5.757  16.497  0.00  0.00    +0.000 A 
ATOM     15  C   UNL     1       4.859   4.478  17.038  0.00  0.00    +0.000 A 
ATOM     16  C   UNL     1       4.125   4.221  18.194  0.00  0.00    +0.000 A 
ATOM     17  C   UNL     1       3.380   5.255  18.812  0.00  0.00    +0.000 A 
ATOM     18  H   UNL     1      -0.704  12.461  21.586  0.00  0.00    +0.000 HD
ENDROOT
BRANCH   1  20
ATOM     19  C   UNL     1       1.129   3.363  20.445  0.00  0.00    +0.000 C 
ATOM     20  O   UNL     1       2.467   3.856  20.497  0.00  0.00    +0.000 OA
ENDBRANCH   1  20
TORSDOF 1
ENDMDL
