MODEL 1
REMARK VINA RESULT:      -9.3      0.000      0.000
REMARK  Name = 
REMARK  7 active torsions:
REMARK  status: ('A' for Active; 'I' for Inactive)
REMARK    1  A    between atoms: C_2  and  O_3
REMARK    2  A    between atoms: C_2  and  C_22
REMARK    3  A    between atoms: O_3  and  C_4
REMARK    4  A    between atoms: C_6  and  S_7
REMARK    5  A    between atoms: S_7  and  C_8
REMARK    6  A    between atoms: C_8  and  C_9
REMARK    7  A    between atoms: C_9  and  C_10
REMARK                            x       y       z     vdW  Elec       q    Type
REMARK                         _______ _______ _______ _____ _____    ______ ____
ROOT
ATOM      1  C   UNL     1       5.019   5.949  18.215  0.00  0.00    +0.000 A 
ATOM      2  N   UNL     1       4.313   7.068  17.894  0.00  0.00    +0.000 NA
ATOM      3  C   UNL     1       2.984   7.097  18.139  0.00  0.00    +0.000 A 
ATOM      4  N   UNL     1       2.253   6.118  18.702  0.00  0.00    +0.000 NA
ATOM      5  C   UNL     1       2.993   5.055  19.029  0.00  0.00    +0.000 A 
ATOM      6  N   UNL     1       2.542   3.932  19.657  0.00  0.00    +0.000 N 
ATOM      7  N   UNL     1       3.508   3.024  19.891  0.00  0.00    +0.000 NA
ATOM      8  C   UNL     1       4.603   3.605  19.378  0.00  0.00    +0.000 A 
ATOM      9  C   UNL     1       4.351   4.882  18.828  0.00  0.00    +0.000 A 
ATOM     10  H   UNL     1       1.597   3.744  19.969  0.00  0.00    +0.000 HD
ENDROOT
BRANCH   1  11
ATOM     11  O   UNL     1       6.430   6.077  18.069  0.00  0.00    +0.000 OA
BRANCH  11  13
ATOM     12  O   UNL     1       7.990   4.368  18.236  0.00  0.00    +0.000 OA
ATOM     13  C   UNL     1       7.174   5.008  17.583  0.00  0.00    +0.000 C 
BRANCH  13  14
ATOM     14  C   UNL     1       6.918   4.801  16.172  0.00  0.00    +0.000 A 
ATOM     15  C   UNL     1       6.002   3.959  15.567  0.00  0.00    +0.000 A 
ATOM     16  C   UNL     1       6.273   3.974  14.175  0.00  0.00    +0.000 A 
ATOM     17  C   UNL     1       5.799   3.267  13.056  0.00  0.00    +0.000 A 
ATOM     18  C   UNL     1       6.363   3.534  11.801  0.00  0.00    +0.000 A 
ATOM     19  C   UNL     1       7.344   4.519  11.652  0.00  0.00    +0.000 A 
ATOM     20  C   UNL     1       7.812   5.249  12.754  0.00  0.00    +0.000 A 
ATOM     21  C   UNL     1       7.273   4.923  13.997  0.00  0.00    +0.000 A 
ATOM     22  O   UNL     1       7.659   5.435  15.205  0.00  0.00    +0.000 OA
ENDBRANCH  13  14
ENDBRANCH  11  13
ENDBRANCH   1  11
BRANCH   3  23
ATOM     23  S   UNL     1       2.080   8.597  17.817  0.00  0.00    +0.000 S 
BRANCH  23  24
ATOM     24  C   UNL     1       1.375   8.935  19.460  0.00  0.00    +0.000 C 
BRANCH  24  25
ATOM     25  C   UNL     1       0.305  10.024  19.330  0.00  0.00    +0.000 C 
BRANCH  25  26
ATOM     26  C   UNL     1      -0.262  10.412  20.676  0.00  0.00    +0.000 A 
ATOM     27  C   UNL     1      -0.073   9.592  21.796  0.00  0.00    +0.000 A 
ATOM     28  C   UNL     1      -0.620   9.946  23.030  0.00  0.00    +0.000 A 
ATOM     29  C   UNL     1      -1.361  11.120  23.156  0.00  0.00    +0.000 A 
ATOM     30  C   UNL     1      -1.553  11.943  22.049  0.00  0.00    +0.000 A 
ATOM     31  C   UNL     1      -1.008  11.590  20.813  0.00  0.00    +0.000 A 
ENDBRANCH  25  26
ENDBRANCH  24  25
ENDBRANCH  23  24
ENDBRANCH   3  23
TORSDOF 7
ENDMDL
MODEL 2
REMARK VINA RESULT:      -9.1      4.286      7.847
REMARK  Name = 
REMARK  7 active torsions:
REMARK  status: ('A' for Active; 'I' for Inactive)
REMARK    1  A    between atoms: C_2  and  O_3
REMARK    2  A    between atoms: C_2  and  C_22
REMARK    3  A    between atoms: O_3  and  C_4
REMARK    4  A    between atoms: C_6  and  S_7
REMARK    5  A    between atoms: S_7  and  C_8
REMARK    6  A    between atoms: C_8  and  C_9
REMARK    7  A    between atoms: C_9  and  C_10
REMARK                            x       y       z     vdW  Elec       q    Type
REMARK                         _______ _______ _______ _____ _____    ______ ____
ROOT
ATOM      1  C   UNL     1       5.821   4.425  17.563  0.00  0.00    +0.000 A 
ATOM      2  N   UNL     1       6.482   5.337  18.327  0.00  0.00    +0.000 NA
ATOM      3  C   UNL     1       7.355   6.181  17.732  0.00  0.00    +0.000 A 
ATOM      4  N   UNL     1       7.643   6.239  16.419  0.00  0.00    +0.000 NA
ATOM      5  C   UNL     1       6.946   5.349  15.707  0.00  0.00    +0.000 A 
ATOM      6  N   UNL     1       6.988   5.205  14.351  0.00  0.00    +0.000 N 
ATOM      7  N   UNL     1       6.164   4.246  13.888  0.00  0.00    +0.000 NA
ATOM      8  C   UNL     1       5.593   3.770  15.006  0.00  0.00    +0.000 A 
ATOM      9  C   UNL     1       6.035   4.421  16.179  0.00  0.00    +0.000 A 
ATOM     10  H   UNL     1       7.538   5.747  13.696  0.00  0.00    +0.000 HD
ENDROOT
BRANCH   1  11
ATOM     11  O   UNL     1       4.811   3.696  18.253  0.00  0.00    +0.000 OA
BRANCH  11  13
ATOM     12  O   UNL     1       2.747   3.182  17.326  0.00  0.00    +0.000 OA
ATOM     13  C   UNL     1       3.471   3.933  17.968  0.00  0.00    +0.000 C 
BRANCH  13  14
ATOM     14  C   UNL     1       3.062   5.232  18.462  0.00  0.00    +0.000 A 
ATOM     15  C   UNL     1       2.745   5.612  19.755  0.00  0.00    +0.000 A 
ATOM     16  C   UNL     1       2.222   6.928  19.689  0.00  0.00    +0.000 A 
ATOM     17  C   UNL     1       1.623   7.814  20.602  0.00  0.00    +0.000 A 
ATOM     18  C   UNL     1       1.171   9.057  20.139  0.00  0.00    +0.000 A 
ATOM     19  C   UNL     1       1.354   9.434  18.806  0.00  0.00    +0.000 A 
ATOM     20  C   UNL     1       1.970   8.572  17.886  0.00  0.00    +0.000 A 
ATOM     21  C   UNL     1       2.358   7.321  18.363  0.00  0.00    +0.000 A 
ATOM     22  O   UNL     1       2.879   6.299  17.618  0.00  0.00    +0.000 OA
ENDBRANCH  13  14
ENDBRANCH  11  13
ENDBRANCH   1  11
BRANCH   3  23
ATOM     23  S   UNL     1       8.141   7.442  18.713  0.00  0.00    +0.000 S 
BRANCH  23  24
ATOM     24  C   UNL     1       8.327   8.770  17.484  0.00  0.00    +0.000 C 
BRANCH  24  25
ATOM     25  C   UNL     1       8.016  10.114  18.149  0.00  0.00    +0.000 C 
BRANCH  25  26
ATOM     26  C   UNL     1       9.268  10.788  18.660  0.00  0.00    +0.000 A 
ATOM     27  C   UNL     1      10.240  11.262  17.769  0.00  0.00    +0.000 A 
ATOM     28  C   UNL     1      11.405  11.862  18.248  0.00  0.00    +0.000 A 
ATOM     29  C   UNL     1      11.610  11.994  19.621  0.00  0.00    +0.000 A 
ATOM     30  C   UNL     1      10.650  11.527  20.515  0.00  0.00    +0.000 A 
ATOM     31  C   UNL     1       9.484  10.925  20.037  0.00  0.00    +0.000 A 
ENDBRANCH  25  26
ENDBRANCH  24  25
ENDBRANCH  23  24
ENDBRANCH   3  23
TORSDOF 7
ENDMDL
MODEL 3
REMARK VINA RESULT:      -8.8      4.349      8.037
REMARK  Name = 
REMARK  7 active torsions:
REMARK  status: ('A' for Active; 'I' for Inactive)
REMARK    1  A    between atoms: C_2  and  O_3
REMARK    2  A    between atoms: C_2  and  C_22
REMARK    3  A    between atoms: O_3  and  C_4
REMARK    4  A    between atoms: C_6  and  S_7
REMARK    5  A    between atoms: S_7  and  C_8
REMARK    6  A    between atoms: C_8  and  C_9
REMARK    7  A    between atoms: C_9  and  C_10
REMARK                            x       y       z     vdW  Elec       q    Type
REMARK                         _______ _______ _______ _____ _____    ______ ____
ROOT
ATOM      1  C   UNL     1       5.607   4.949  17.793  0.00  0.00    +0.000 A 
ATOM      2  N   UNL     1       6.372   5.841  18.480  0.00  0.00    +0.000 NA
ATOM      3  C   UNL     1       7.357   6.499  17.827  0.00  0.00    +0.000 A 
ATOM      4  N   UNL     1       7.668   6.383  16.523  0.00  0.00    +0.000 NA
ATOM      5  C   UNL     1       6.869   5.523  15.885  0.00  0.00    +0.000 A 
ATOM      6  N   UNL     1       6.909   5.237  14.552  0.00  0.00    +0.000 N 
ATOM      7  N   UNL     1       5.972   4.351  14.166  0.00  0.00    +0.000 NA
ATOM      8  C   UNL     1       5.329   4.070  15.310  0.00  0.00    +0.000 A 
ATOM      9  C   UNL     1       5.837   4.775  16.423  0.00  0.00    +0.000 A 
ATOM     10  H   UNL     1       7.535   5.632  13.861  0.00  0.00    +0.000 HD
ENDROOT
BRANCH   1  11
ATOM     11  O   UNL     1       4.500   4.432  18.525  0.00  0.00    +0.000 OA
BRANCH  11  13
ATOM     12  O   UNL     1       2.526   3.997  17.386  0.00  0.00    +0.000 OA
ATOM     13  C   UNL     1       3.203   4.716  18.111  0.00  0.00    +0.000 C 
BRANCH  13  14
ATOM     14  C   UNL     1       2.786   6.021  18.583  0.00  0.00    +0.000 A 
ATOM     15  C   UNL     1       2.339   6.391  19.840  0.00  0.00    +0.000 A 
ATOM     16  C   UNL     1       1.872   7.726  19.743  0.00  0.00    +0.000 A 
ATOM     17  C   UNL     1       1.204   8.617  20.601  0.00  0.00    +0.000 A 
ATOM     18  C   UNL     1       0.851   9.883  20.116  0.00  0.00    +0.000 A 
ATOM     19  C   UNL     1       1.196  10.276  18.821  0.00  0.00    +0.000 A 
ATOM     20  C   UNL     1       1.882   9.408  17.958  0.00  0.00    +0.000 A 
ATOM     21  C   UNL     1       2.170   8.136  18.449  0.00  0.00    +0.000 A 
ATOM     22  O   UNL     1       2.736   7.108  17.746  0.00  0.00    +0.000 OA
ENDBRANCH  13  14
ENDBRANCH  11  13
ENDBRANCH   1  11
BRANCH   3  23
ATOM     23  S   UNL     1       8.289   7.740  18.697  0.00  0.00    +0.000 S 
BRANCH  23  24
ATOM     24  C   UNL     1       8.258   9.104  17.493  0.00  0.00    +0.000 C 
BRANCH  24  25
ATOM     25  C   UNL     1       8.118  10.432  18.244  0.00  0.00    +0.000 C 
BRANCH  25  26
ATOM     26  C   UNL     1       9.460  10.969  18.683  0.00  0.00    +0.000 A 
ATOM     27  C   UNL     1       9.741  11.174  20.040  0.00  0.00    +0.000 A 
ATOM     28  C   UNL     1      10.975  11.692  20.435  0.00  0.00    +0.000 A 
ATOM     29  C   UNL     1      11.938  12.013  19.480  0.00  0.00    +0.000 A 
ATOM     30  C   UNL     1      11.669  11.812  18.128  0.00  0.00    +0.000 A 
ATOM     31  C   UNL     1      10.435  11.294  17.730  0.00  0.00    +0.000 A 
ENDBRANCH  25  26
ENDBRANCH  24  25
ENDBRANCH  23  24
ENDBRANCH   3  23
TORSDOF 7
ENDMDL
MODEL 4
REMARK VINA RESULT:      -8.8      2.422      9.446
REMARK  Name = 
REMARK  7 active torsions:
REMARK  status: ('A' for Active; 'I' for Inactive)
REMARK    1  A    between atoms: C_2  and  O_3
REMARK    2  A    between atoms: C_2  and  C_22
REMARK    3  A    between atoms: O_3  and  C_4
REMARK    4  A    between atoms: C_6  and  S_7
REMARK    5  A    between atoms: S_7  and  C_8
REMARK    6  A    between atoms: C_8  and  C_9
REMARK    7  A    between atoms: C_9  and  C_10
REMARK                            x       y       z     vdW  Elec       q    Type
REMARK                         _______ _______ _______ _____ _____    ______ ____
ROOT
ATOM      1  C   UNL     1       3.190   5.244  19.527  0.00  0.00    +0.000 A 
ATOM      2  N   UNL     1       4.514   5.445  19.284  0.00  0.00    +0.000 NA
ATOM      3  C   UNL     1       5.190   4.537  18.544  0.00  0.00    +0.000 A 
ATOM      4  N   UNL     1       4.680   3.425  17.983  0.00  0.00    +0.000 NA
ATOM      5  C   UNL     1       3.373   3.289  18.221  0.00  0.00    +0.000 A 
ATOM      6  N   UNL     1       2.575   2.291  17.743  0.00  0.00    +0.000 N 
ATOM      7  N   UNL     1       1.287   2.409  18.117  0.00  0.00    +0.000 NA
ATOM      8  C   UNL     1       1.288   3.523  18.866  0.00  0.00    +0.000 A 
ATOM      9  C   UNL     1       2.561   4.126  18.966  0.00  0.00    +0.000 A 
ATOM     10  H   UNL     1       2.850   1.524  17.142  0.00  0.00    +0.000 HD
ENDROOT
BRANCH   1  11
ATOM     11  O   UNL     1       2.536   6.332  20.175  0.00  0.00    +0.000 OA
BRANCH  11  13
ATOM     12  O   UNL     1       2.403   7.622  18.251  0.00  0.00    +0.000 OA
ATOM     13  C   UNL     1       2.146   7.442  19.435  0.00  0.00    +0.000 C 
BRANCH  13  14
ATOM     14  C   UNL     1       1.460   8.404  20.274  0.00  0.00    +0.000 A 
ATOM     15  C   UNL     1       1.245   8.372  21.641  0.00  0.00    +0.000 A 
ATOM     16  C   UNL     1       0.363   9.437  21.953  0.00  0.00    +0.000 A 
ATOM     17  C   UNL     1      -0.320   9.865  23.104  0.00  0.00    +0.000 A 
ATOM     18  C   UNL     1      -1.173  10.973  23.009  0.00  0.00    +0.000 A 
ATOM     19  C   UNL     1      -1.307  11.672  21.807  0.00  0.00    +0.000 A 
ATOM     20  C   UNL     1      -0.616  11.273  20.654  0.00  0.00    +0.000 A 
ATOM     21  C   UNL     1       0.181  10.135  20.765  0.00  0.00    +0.000 A 
ATOM     22  O   UNL     1       0.855   9.519  19.746  0.00  0.00    +0.000 OA
ENDBRANCH  13  14
ENDBRANCH  11  13
ENDBRANCH   1  11
BRANCH   3  23
ATOM     23  S   UNL     1       6.893   4.851  18.137  0.00  0.00    +0.000 S 
BRANCH  23  24
ATOM     24  C   UNL     1       6.713   5.788  16.588  0.00  0.00    +0.000 C 
BRANCH  24  25
ATOM     25  C   UNL     1       5.599   5.155  15.747  0.00  0.00    +0.000 C 
BRANCH  25  26
ATOM     26  C   UNL     1       6.099   4.735  14.385  0.00  0.00    +0.000 A 
ATOM     27  C   UNL     1       5.401   3.784  13.629  0.00  0.00    +0.000 A 
ATOM     28  C   UNL     1       5.881   3.383  12.382  0.00  0.00    +0.000 A 
ATOM     29  C   UNL     1       7.062   3.927  11.878  0.00  0.00    +0.000 A 
ATOM     30  C   UNL     1       7.763   4.875  12.622  0.00  0.00    +0.000 A 
ATOM     31  C   UNL     1       7.284   5.276  13.871  0.00  0.00    +0.000 A 
ENDBRANCH  25  26
ENDBRANCH  24  25
ENDBRANCH  23  24
ENDBRANCH   3  23
TORSDOF 7
ENDMDL
MODEL 5
REMARK VINA RESULT:      -8.8      2.388      9.524
REMARK  Name = 
REMARK  7 active torsions:
REMARK  status: ('A' for Active; 'I' for Inactive)
REMARK    1  A    between atoms: C_2  and  O_3
REMARK    2  A    between atoms: C_2  and  C_22
REMARK    3  A    between atoms: O_3  and  C_4
REMARK    4  A    between atoms: C_6  and  S_7
REMARK    5  A    between atoms: S_7  and  C_8
REMARK    6  A    between atoms: C_8  and  C_9
REMARK    7  A    between atoms: C_9  and  C_10
REMARK                            x       y       z     vdW  Elec       q    Type
REMARK                         _______ _______ _______ _____ _____    ______ ____
ROOT
ATOM      1  C   UNL     1       3.221   5.601  19.514  0.00  0.00    +0.000 A 
ATOM      2  N   UNL     1       4.568   5.786  19.464  0.00  0.00    +0.000 NA
ATOM      3  C   UNL     1       5.332   4.878  18.815  0.00  0.00    +0.000 A 
ATOM      4  N   UNL     1       4.894   3.780  18.171  0.00  0.00    +0.000 NA
ATOM      5  C   UNL     1       3.565   3.659  18.218  0.00  0.00    +0.000 A 
ATOM      6  N   UNL     1       2.832   2.678  17.618  0.00  0.00    +0.000 N 
ATOM      7  N   UNL     1       1.505   2.809  17.806  0.00  0.00    +0.000 NA
ATOM      8  C   UNL     1       1.413   3.914  18.563  0.00  0.00    +0.000 A 
ATOM      9  C   UNL     1       2.666   4.498  18.853  0.00  0.00    +0.000 A 
ATOM     10  H   UNL     1       3.180   1.916  17.051  0.00  0.00    +0.000 HD
ENDROOT
BRANCH   1  11
ATOM     11  O   UNL     1       2.494   6.688  20.077  0.00  0.00    +0.000 OA
BRANCH  11  13
ATOM     12  O   UNL     1       2.628   8.018  18.180  0.00  0.00    +0.000 OA
ATOM     13  C   UNL     1       2.147   7.774  19.280  0.00  0.00    +0.000 C 
BRANCH  13  14
ATOM     14  C   UNL     1       1.197   8.629  19.961  0.00  0.00    +0.000 A 
ATOM     15  C   UNL     1       0.557   9.765  19.496  0.00  0.00    +0.000 A 
ATOM     16  C   UNL     1      -0.117  10.349  20.598  0.00  0.00    +0.000 A 
ATOM     17  C   UNL     1      -0.829  11.541  20.818  0.00  0.00    +0.000 A 
ATOM     18  C   UNL     1      -1.326  11.802  22.102  0.00  0.00    +0.000 A 
ATOM     19  C   UNL     1      -1.162  10.877  23.136  0.00  0.00    +0.000 A 
ATOM     20  C   UNL     1      -0.474   9.672  22.928  0.00  0.00    +0.000 A 
ATOM     21  C   UNL     1       0.057   9.465  21.657  0.00  0.00    +0.000 A 
ATOM     22  O   UNL     1       0.844   8.414  21.271  0.00  0.00    +0.000 OA
ENDBRANCH  13  14
ENDBRANCH  11  13
ENDBRANCH   1  11
BRANCH   3  23
ATOM     23  S   UNL     1       7.080   5.174  18.659  0.00  0.00    +0.000 S 
BRANCH  23  24
ATOM     24  C   UNL     1       7.384   4.572  16.969  0.00  0.00    +0.000 C 
BRANCH  24  25
ATOM     25  C   UNL     1       6.674   5.495  15.974  0.00  0.00    +0.000 C 
BRANCH  25  26
ATOM     26  C   UNL     1       6.645   4.901  14.585  0.00  0.00    +0.000 A 
ATOM     27  C   UNL     1       7.620   5.245  13.639  0.00  0.00    +0.000 A 
ATOM     28  C   UNL     1       7.574   4.711  12.351  0.00  0.00    +0.000 A 
ATOM     29  C   UNL     1       6.553   3.830  11.995  0.00  0.00    +0.000 A 
ATOM     30  C   UNL     1       5.580   3.481  12.928  0.00  0.00    +0.000 A 
ATOM     31  C   UNL     1       5.624   4.015  14.218  0.00  0.00    +0.000 A 
ENDBRANCH  25  26
ENDBRANCH  24  25
ENDBRANCH  23  24
ENDBRANCH   3  23
TORSDOF 7
ENDMDL
MODEL 6
REMARK VINA RESULT:      -8.8      1.798      2.160
REMARK  Name = 
REMARK  7 active torsions:
REMARK  status: ('A' for Active; 'I' for Inactive)
REMARK    1  A    between atoms: C_2  and  O_3
REMARK    2  A    between atoms: C_2  and  C_22
REMARK    3  A    between atoms: O_3  and  C_4
REMARK    4  A    between atoms: C_6  and  S_7
REMARK    5  A    between atoms: S_7  and  C_8
REMARK    6  A    between atoms: C_8  and  C_9
REMARK    7  A    between atoms: C_9  and  C_10
REMARK                            x       y       z     vdW  Elec       q    Type
REMARK                         _______ _______ _______ _____ _____    ______ ____
ROOT
ATOM      1  C   UNL     1       4.597   4.391  18.625  0.00  0.00    +0.000 A 
ATOM      2  N   UNL     1       4.156   5.649  18.899  0.00  0.00    +0.000 NA
ATOM      3  C   UNL     1       2.839   5.846  19.136  0.00  0.00    +0.000 A 
ATOM      4  N   UNL     1       1.880   4.902  19.153  0.00  0.00    +0.000 NA
ATOM      5  C   UNL     1       2.365   3.681  18.912  0.00  0.00    +0.000 A 
ATOM      6  N   UNL     1       1.645   2.522  18.913  0.00  0.00    +0.000 N 
ATOM      7  N   UNL     1       2.389   1.428  18.665  0.00  0.00    +0.000 NA
ATOM      8  C   UNL     1       3.622   1.931  18.495  0.00  0.00    +0.000 A 
ATOM      9  C   UNL     1       3.677   3.334  18.642  0.00  0.00    +0.000 A 
ATOM     10  H   UNL     1       0.655   2.419  19.100  0.00  0.00    +0.000 HD
ENDROOT
BRANCH   1  11
ATOM     11  O   UNL     1       6.013   4.263  18.551  0.00  0.00    +0.000 OA
BRANCH  11  13
ATOM     12  O   UNL     1       7.384   6.116  18.291  0.00  0.00    +0.000 OA
ATOM     13  C   UNL     1       6.752   5.183  17.814  0.00  0.00    +0.000 C 
BRANCH  13  14
ATOM     14  C   UNL     1       6.607   4.939  16.393  0.00  0.00    +0.000 A 
ATOM     15  C   UNL     1       5.710   4.112  15.738  0.00  0.00    +0.000 A 
ATOM     16  C   UNL     1       6.097   4.071  14.374  0.00  0.00    +0.000 A 
ATOM     17  C   UNL     1       5.690   3.346  13.240  0.00  0.00    +0.000 A 
ATOM     18  C   UNL     1       6.368   3.549  12.031  0.00  0.00    +0.000 A 
ATOM     19  C   UNL     1       7.398   4.489  11.937  0.00  0.00    +0.000 A 
ATOM     20  C   UNL     1       7.802   5.238  13.052  0.00  0.00    +0.000 A 
ATOM     21  C   UNL     1       7.147   4.974  14.254  0.00  0.00    +0.000 A 
ATOM     22  O   UNL     1       7.451   5.512  15.474  0.00  0.00    +0.000 OA
ENDBRANCH  13  14
ENDBRANCH  11  13
ENDBRANCH   1  11
BRANCH   3  23
ATOM     23  S   UNL     1       2.278   7.471  19.596  0.00  0.00    +0.000 S 
BRANCH  23  24
ATOM     24  C   UNL     1       1.957   8.203  17.962  0.00  0.00    +0.000 C 
BRANCH  24  25
ATOM     25  C   UNL     1       2.007   9.729  18.078  0.00  0.00    +0.000 C 
BRANCH  25  26
ATOM     26  C   UNL     1       0.631  10.320  18.277  0.00  0.00    +0.000 A 
ATOM     27  C   UNL     1       0.462  11.518  18.983  0.00  0.00    +0.000 A 
ATOM     28  C   UNL     1      -0.815  12.045  19.183  0.00  0.00    +0.000 A 
ATOM     29  C   UNL     1      -1.933  11.380  18.682  0.00  0.00    +0.000 A 
ATOM     30  C   UNL     1      -1.775  10.188  17.978  0.00  0.00    +0.000 A 
ATOM     31  C   UNL     1      -0.499   9.659  17.777  0.00  0.00    +0.000 A 
ENDBRANCH  25  26
ENDBRANCH  24  25
ENDBRANCH  23  24
ENDBRANCH   3  23
TORSDOF 7
ENDMDL
MODEL 7
REMARK VINA RESULT:      -8.7      4.314      7.117
REMARK  Name = 
REMARK  7 active torsions:
REMARK  status: ('A' for Active; 'I' for Inactive)
REMARK    1  A    between atoms: C_2  and  O_3
REMARK    2  A    between atoms: C_2  and  C_22
REMARK    3  A    between atoms: O_3  and  C_4
REMARK    4  A    between atoms: C_6  and  S_7
REMARK    5  A    between atoms: S_7  and  C_8
REMARK    6  A    between atoms: C_8  and  C_9
REMARK    7  A    between atoms: C_9  and  C_10
REMARK                            x       y       z     vdW  Elec       q    Type
REMARK                         _______ _______ _______ _____ _____    ______ ____
ROOT
ATOM      1  C   UNL     1       6.115   7.015  16.838  0.00  0.00    +0.000 A 
ATOM      2  N   UNL     1       4.973   7.444  17.442  0.00  0.00    +0.000 NA
ATOM      3  C   UNL     1       3.926   6.594  17.545  0.00  0.00    +0.000 A 
ATOM      4  N   UNL     1       3.888   5.318  17.120  0.00  0.00    +0.000 NA
ATOM      5  C   UNL     1       5.040   4.932  16.565  0.00  0.00    +0.000 A 
ATOM      6  N   UNL     1       5.317   3.684  16.089  0.00  0.00    +0.000 N 
ATOM      7  N   UNL     1       6.567   3.562  15.604  0.00  0.00    +0.000 NA
ATOM      8  C   UNL     1       7.084   4.788  15.780  0.00  0.00    +0.000 A 
ATOM      9  C   UNL     1       6.182   5.692  16.382  0.00  0.00    +0.000 A 
ATOM     10  H   UNL     1       4.704   2.879  16.093  0.00  0.00    +0.000 HD
ENDROOT
BRANCH   1  11
ATOM     11  O   UNL     1       7.207   7.924  16.923  0.00  0.00    +0.000 OA
BRANCH  11  13
ATOM     12  O   UNL     1       8.253   6.943  18.747  0.00  0.00    +0.000 OA
ATOM     13  C   UNL     1       8.020   7.924  18.051  0.00  0.00    +0.000 C 
BRANCH  13  14
ATOM     14  C   UNL     1       8.492   9.262  18.346  0.00  0.00    +0.000 A 
ATOM     15  C   UNL     1       8.341  10.422  17.605  0.00  0.00    +0.000 A 
ATOM     16  C   UNL     1       9.144  11.417  18.217  0.00  0.00    +0.000 A 
ATOM     17  C   UNL     1       9.516  12.736  17.901  0.00  0.00    +0.000 A 
ATOM     18  C   UNL     1      10.399  13.411  18.755  0.00  0.00    +0.000 A 
ATOM     19  C   UNL     1      10.865  12.806  19.926  0.00  0.00    +0.000 A 
ATOM     20  C   UNL     1      10.486  11.500  20.268  0.00  0.00    +0.000 A 
ATOM     21  C   UNL     1       9.653  10.834  19.372  0.00  0.00    +0.000 A 
ATOM     22  O   UNL     1       9.249   9.530  19.459  0.00  0.00    +0.000 OA
ENDBRANCH  13  14
ENDBRANCH  11  13
ENDBRANCH   1  11
BRANCH   3  23
ATOM     23  S   UNL     1       2.472   7.119  18.427  0.00  0.00    +0.000 S 
BRANCH  23  24
ATOM     24  C   UNL     1       2.778   6.388  20.065  0.00  0.00    +0.000 C 
BRANCH  24  25
ATOM     25  C   UNL     1       1.827   5.205  20.271  0.00  0.00    +0.000 C 
BRANCH  25  26
ATOM     26  C   UNL     1       2.345   3.951  19.608  0.00  0.00    +0.000 A 
ATOM     27  C   UNL     1       1.594   3.301  18.620  0.00  0.00    +0.000 A 
ATOM     28  C   UNL     1       2.068   2.129  18.029  0.00  0.00    +0.000 A 
ATOM     29  C   UNL     1       3.296   1.596  18.419  0.00  0.00    +0.000 A 
ATOM     30  C   UNL     1       4.051   2.235  19.400  0.00  0.00    +0.000 A 
ATOM     31  C   UNL     1       3.577   3.407  19.994  0.00  0.00    +0.000 A 
ENDBRANCH  25  26
ENDBRANCH  24  25
ENDBRANCH  23  24
ENDBRANCH   3  23
TORSDOF 7
ENDMDL
MODEL 8
REMARK VINA RESULT:      -8.7      4.361      7.859
REMARK  Name = 
REMARK  7 active torsions:
REMARK  status: ('A' for Active; 'I' for Inactive)
REMARK    1  A    between atoms: C_2  and  O_3
REMARK    2  A    between atoms: C_2  and  C_22
REMARK    3  A    between atoms: O_3  and  C_4
REMARK    4  A    between atoms: C_6  and  S_7
REMARK    5  A    between atoms: S_7  and  C_8
REMARK    6  A    between atoms: C_8  and  C_9
REMARK    7  A    between atoms: C_9  and  C_10
REMARK                            x       y       z     vdW  Elec       q    Type
REMARK                         _______ _______ _______ _____ _____    ______ ____
ROOT
ATOM      1  C   UNL     1       5.967   4.864  18.255  0.00  0.00    +0.000 A 
ATOM      2  N   UNL     1       6.722   5.843  18.825  0.00  0.00    +0.000 NA
ATOM      3  C   UNL     1       7.503   6.613  18.034  0.00  0.00    +0.000 A 
ATOM      4  N   UNL     1       7.610   6.533  16.694  0.00  0.00    +0.000 NA
ATOM      5  C   UNL     1       6.827   5.582  16.178  0.00  0.00    +0.000 A 
ATOM      6  N   UNL     1       6.685   5.299  14.852  0.00  0.00    +0.000 N 
ATOM      7  N   UNL     1       5.810   4.306  14.606  0.00  0.00    +0.000 NA
ATOM      8  C   UNL     1       5.398   3.953  15.833  0.00  0.00    +0.000 A 
ATOM      9  C   UNL     1       5.992   4.716  16.862  0.00  0.00    +0.000 A 
ATOM     10  H   UNL     1       7.139   5.765  14.076  0.00  0.00    +0.000 HD
ENDROOT
BRANCH   1  11
ATOM     11  O   UNL     1       5.062   4.220  19.146  0.00  0.00    +0.000 OA
BRANCH  11  13
ATOM     12  O   UNL     1       3.232   2.997  18.413  0.00  0.00    +0.000 OA
ATOM     13  C   UNL     1       3.731   4.054  18.779  0.00  0.00    +0.000 C 
BRANCH  13  14
ATOM     14  C   UNL     1       3.027   5.320  18.808  0.00  0.00    +0.000 A 
ATOM     15  C   UNL     1       2.759   6.192  17.766  0.00  0.00    +0.000 A 
ATOM     16  C   UNL     1       2.221   7.373  18.336  0.00  0.00    +0.000 A 
ATOM     17  C   UNL     1       1.864   8.644  17.853  0.00  0.00    +0.000 A 
ATOM     18  C   UNL     1       1.395   9.604  18.760  0.00  0.00    +0.000 A 
ATOM     19  C   UNL     1       1.236   9.292  20.113  0.00  0.00    +0.000 A 
ATOM     20  C   UNL     1       1.565   8.022  20.609  0.00  0.00    +0.000 A 
ATOM     21  C   UNL     1       2.082   7.107  19.693  0.00  0.00    +0.000 A 
ATOM     22  O   UNL     1       2.559   5.858  19.981  0.00  0.00    +0.000 OA
ENDBRANCH  13  14
ENDBRANCH  11  13
ENDBRANCH   1  11
BRANCH   3  23
ATOM     23  S   UNL     1       8.409   7.959  18.764  0.00  0.00    +0.000 S 
BRANCH  23  24
ATOM     24  C   UNL     1       8.215   9.240  17.487  0.00  0.00    +0.000 C 
BRANCH  24  25
ATOM     25  C   UNL     1       8.059  10.605  18.166  0.00  0.00    +0.000 C 
BRANCH  25  26
ATOM     26  C   UNL     1       9.370  11.102  18.728  0.00  0.00    +0.000 A 
ATOM     27  C   UNL     1      10.477  11.302  17.894  0.00  0.00    +0.000 A 
ATOM     28  C   UNL     1      11.691  11.740  18.425  0.00  0.00    +0.000 A 
ATOM     29  C   UNL     1      11.811  11.979  19.793  0.00  0.00    +0.000 A 
ATOM     30  C   UNL     1      10.716  11.784  20.631  0.00  0.00    +0.000 A 
ATOM     31  C   UNL     1       9.500  11.346  20.102  0.00  0.00    +0.000 A 
ENDBRANCH  25  26
ENDBRANCH  24  25
ENDBRANCH  23  24
ENDBRANCH   3  23
TORSDOF 7
ENDMDL
MODEL 9
REMARK VINA RESULT:      -8.7      2.272      9.237
REMARK  Name = 
REMARK  7 active torsions:
REMARK  status: ('A' for Active; 'I' for Inactive)
REMARK    1  A    between atoms: C_2  and  O_3
REMARK    2  A    between atoms: C_2  and  C_22
REMARK    3  A    between atoms: O_3  and  C_4
REMARK    4  A    between atoms: C_6  and  S_7
REMARK    5  A    between atoms: S_7  and  C_8
REMARK    6  A    between atoms: C_8  and  C_9
REMARK    7  A    between atoms: C_9  and  C_10
REMARK                            x       y       z     vdW  Elec       q    Type
REMARK                         _______ _______ _______ _____ _____    ______ ____
ROOT
ATOM      1  C   UNL     1       2.969   5.654  18.777  0.00  0.00    +0.000 A 
ATOM      2  N   UNL     1       4.277   5.960  18.550  0.00  0.00    +0.000 NA
ATOM      3  C   UNL     1       5.231   5.083  18.936  0.00  0.00    +0.000 A 
ATOM      4  N   UNL     1       5.030   3.889  19.523  0.00  0.00    +0.000 NA
ATOM      5  C   UNL     1       3.733   3.619  19.694  0.00  0.00    +0.000 A 
ATOM      6  N   UNL     1       3.221   2.468  20.216  0.00  0.00    +0.000 N 
ATOM      7  N   UNL     1       1.875   2.448  20.252  0.00  0.00    +0.000 NA
ATOM      8  C   UNL     1       1.539   3.642  19.738  0.00  0.00    +0.000 A 
ATOM      9  C   UNL     1       2.656   4.421  19.363  0.00  0.00    +0.000 A 
ATOM     10  H   UNL     1       3.739   1.660  20.538  0.00  0.00    +0.000 HD
ENDROOT
BRANCH   1  11
ATOM     11  O   UNL     1       2.040   6.561  18.192  0.00  0.00    +0.000 OA
BRANCH  11  13
ATOM     12  O   UNL     1       2.990   8.513  17.375  0.00  0.00    +0.000 OA
ATOM     13  C   UNL     1       2.305   7.926  18.203  0.00  0.00    +0.000 C 
BRANCH  13  14
ATOM     14  C   UNL     1       1.732   8.552  19.377  0.00  0.00    +0.000 A 
ATOM     15  C   UNL     1       1.554   8.028  20.646  0.00  0.00    +0.000 A 
ATOM     16  C   UNL     1       0.778   8.960  21.380  0.00  0.00    +0.000 A 
ATOM     17  C   UNL     1       0.168   8.976  22.647  0.00  0.00    +0.000 A 
ATOM     18  C   UNL     1      -0.587  10.096  23.018  0.00  0.00    +0.000 A 
ATOM     19  C   UNL     1      -0.695  11.200  22.168  0.00  0.00    +0.000 A 
ATOM     20  C   UNL     1      -0.074  11.211  20.910  0.00  0.00    +0.000 A 
ATOM     21  C   UNL     1       0.623  10.061  20.546  0.00  0.00    +0.000 A 
ATOM     22  O   UNL     1       1.211   9.822  19.334  0.00  0.00    +0.000 OA
ENDBRANCH  13  14
ENDBRANCH  11  13
ENDBRANCH   1  11
BRANCH   3  23
ATOM     23  S   UNL     1       6.932   5.433  18.546  0.00  0.00    +0.000 S 
BRANCH  23  24
ATOM     24  C   UNL     1       7.099   4.596  16.939  0.00  0.00    +0.000 C 
BRANCH  24  25
ATOM     25  C   UNL     1       6.795   5.596  15.820  0.00  0.00    +0.000 C 
BRANCH  25  26
ATOM     26  C   UNL     1       6.737   4.922  14.469  0.00  0.00    +0.000 A 
ATOM     27  C   UNL     1       7.665   5.240  13.469  0.00  0.00    +0.000 A 
ATOM     28  C   UNL     1       7.591   4.629  12.217  0.00  0.00    +0.000 A 
ATOM     29  C   UNL     1       6.588   3.698  11.951  0.00  0.00    +0.000 A 
ATOM     30  C   UNL     1       5.660   3.374  12.938  0.00  0.00    +0.000 A 
ATOM     31  C   UNL     1       5.733   3.984  14.192  0.00  0.00    +0.000 A 
ENDBRANCH  25  26
ENDBRANCH  24  25
ENDBRANCH  23  24
ENDBRANCH   3  23
TORSDOF 7
ENDMDL
