MODEL 1
REMARK VINA RESULT:      -6.8      0.000      0.000
REMARK  Name = 
REMARK  10 active torsions:
REMARK  status: ('A' for Active; 'I' for Inactive)
REMARK    1  A    between atoms: C_1  and  O_2
REMARK    2  A    between atoms: O_2  and  C_3
REMARK    3  A    between atoms: C_3  and  C_5
REMARK    4  A    between atoms: C_6  and  C_7
REMARK    5  A    between atoms: C_8  and  C_9
REMARK    6  A    between atoms: C_22  and  O_23
REMARK    7  A    between atoms: O_23  and  C_24
REMARK    8  A    between atoms: N_28  and  C_29
REMARK    9  A    between atoms: C_29  and  C_30
REMARK   10  A    between atoms: C_29  and  C_31
REMARK                            x       y       z     vdW  Elec       q    Type
REMARK                         _______ _______ _______ _____ _____    ______ ____
ROOT
ATOM      1  C   UNL     1      -3.477  12.763  20.473  0.00  0.00    +0.000 A 
ATOM      2  C   UNL     1      -2.376  12.529  19.647  0.00  0.00    +0.000 A 
ATOM      3  C   UNL     1      -2.896  11.922  18.445  0.00  0.00    +0.000 A 
ATOM      4  C   UNL     1      -2.318  11.400  17.261  0.00  0.00    +0.000 A 
ATOM      5  C   UNL     1      -3.104  10.915  16.205  0.00  0.00    +0.000 A 
ATOM      6  C   UNL     1      -4.481  10.878  16.345  0.00  0.00    +0.000 A 
ATOM      7  C   UNL     1      -5.087  11.325  17.525  0.00  0.00    +0.000 A 
ATOM      8  C   UNL     1      -4.292  11.859  18.563  0.00  0.00    +0.000 A 
ATOM      9  N   UNL     1      -4.633  12.376  19.803  0.00  0.00    +0.000 N 
ENDROOT
BRANCH   2  10
ATOM     10  C   UNL     1      -0.985  12.824  20.055  0.00  0.00    +0.000 A 
ATOM     11  N   UNL     1      -0.410  13.894  19.428  0.00  0.00    +0.000 NA
ATOM     12  C   UNL     1       0.885  14.179  19.695  0.00  0.00    +0.000 A 
ATOM     13  C   UNL     1       1.541  15.185  18.994  0.00  0.00    +0.000 A 
ATOM     14  C   UNL     1       2.881  15.491  19.233  0.00  0.00    +0.000 A 
ATOM     15  C   UNL     1       3.583  14.792  20.209  0.00  0.00    +0.000 A 
ATOM     16  C   UNL     1       2.935  13.778  20.918  0.00  0.00    +0.000 A 
ATOM     17  C   UNL     1       1.609  13.446  20.660  0.00  0.00    +0.000 A 
ATOM     18  N   UNL     1       1.056  12.407  21.302  0.00  0.00    +0.000 NA
ATOM     19  C   UNL     1      -0.223  12.084  20.961  0.00  0.00    +0.000 A 
ATOM     20 CL   UNL     1      -0.661  10.568  21.646  0.00  0.00    +0.000 Cl
ENDBRANCH   2  10
BRANCH   9  21
ATOM     21  C   UNL     1      -6.009  12.511  20.318  0.00  0.00    +0.000 C 
ATOM     22  C   UNL     1      -6.801  13.614  19.607  0.00  0.00    +0.000 C 
ATOM     23  C   UNL     1      -6.792  11.196  20.362  0.00  0.00    +0.000 C 
ENDBRANCH   9  21
BRANCH   1  25
ATOM     24  C   UNL     1      -3.652  12.388  22.845  0.00  0.00    +0.000 C 
ATOM     25  C   UNL     1      -3.560  13.239  21.813  0.00  0.00    +0.000 C 
BRANCH  24  26
ATOM     26  C   UNL     1      -3.762  12.934  24.213  0.00  0.00    +0.000 C 
ATOM     27  O   UNL     1      -3.095  13.850  24.667  0.00  0.00    +0.000 OA
BRANCH  26  29
ATOM     28  C   UNL     1      -6.033  12.428  24.368  0.00  0.00    +0.000 C 
ATOM     29  O   UNL     1      -4.712  12.227  24.875  0.00  0.00    +0.000 OA
ENDBRANCH  26  29
ENDBRANCH  24  26
ENDBRANCH   1  25
BRANCH   5  30
ATOM     30  O   UNL     1      -2.392  10.520  15.104  0.00  0.00    +0.000 OA
ATOM     31  C   UNL     1      -3.128   9.993  14.009  0.00  0.00    +0.000 C 
ENDBRANCH   5  30
TORSDOF 6
ENDMDL
MODEL 2
REMARK VINA RESULT:      -6.2      1.290      5.445
REMARK  Name = 
REMARK  10 active torsions:
REMARK  status: ('A' for Active; 'I' for Inactive)
REMARK    1  A    between atoms: C_1  and  O_2
REMARK    2  A    between atoms: O_2  and  C_3
REMARK    3  A    between atoms: C_3  and  C_5
REMARK    4  A    between atoms: C_6  and  C_7
REMARK    5  A    between atoms: C_8  and  C_9
REMARK    6  A    between atoms: C_22  and  O_23
REMARK    7  A    between atoms: O_23  and  C_24
REMARK    8  A    between atoms: N_28  and  C_29
REMARK    9  A    between atoms: C_29  and  C_30
REMARK   10  A    between atoms: C_29  and  C_31
REMARK                            x       y       z     vdW  Elec       q    Type
REMARK                         _______ _______ _______ _____ _____    ______ ____
ROOT
ATOM      1  C   UNL     1      -3.762  11.978  18.927  0.00  0.00    +0.000 A 
ATOM      2  C   UNL     1      -2.921  12.477  19.925  0.00  0.00    +0.000 A 
ATOM      3  C   UNL     1      -3.774  12.818  21.037  0.00  0.00    +0.000 A 
ATOM      4  C   UNL     1      -3.566  13.411  22.308  0.00  0.00    +0.000 A 
ATOM      5  C   UNL     1      -4.610  13.566  23.231  0.00  0.00    +0.000 A 
ATOM      6  C   UNL     1      -5.896  13.198  22.871  0.00  0.00    +0.000 A 
ATOM      7  C   UNL     1      -6.154  12.669  21.602  0.00  0.00    +0.000 A 
ATOM      8  C   UNL     1      -5.088  12.468  20.696  0.00  0.00    +0.000 A 
ATOM      9  N   UNL     1      -5.066  11.956  19.408  0.00  0.00    +0.000 N 
ENDROOT
BRANCH   2  10
ATOM     10  C   UNL     1      -1.462  12.640  19.741  0.00  0.00    +0.000 A 
ATOM     11  N   UNL     1      -1.049  13.915  19.475  0.00  0.00    +0.000 NA
ATOM     12  C   UNL     1       0.263  14.128  19.221  0.00  0.00    +0.000 A 
ATOM     13  C   UNL     1       0.706  15.388  18.832  0.00  0.00    +0.000 A 
ATOM     14  C   UNL     1       2.049  15.636  18.545  0.00  0.00    +0.000 A 
ATOM     15  C   UNL     1       2.980  14.610  18.669  0.00  0.00    +0.000 A 
ATOM     16  C   UNL     1       2.546  13.341  19.056  0.00  0.00    +0.000 A 
ATOM     17  C   UNL     1       1.204  13.079  19.310  0.00  0.00    +0.000 A 
ATOM     18  N   UNL     1       0.821  11.825  19.592  0.00  0.00    +0.000 NA
ATOM     19  C   UNL     1      -0.514  11.615  19.765  0.00  0.00    +0.000 A 
ATOM     20 CL   UNL     1      -0.853   9.929  19.814  0.00  0.00    +0.000 Cl
ENDBRANCH   2  10
BRANCH   9  21
ATOM     21  C   UNL     1      -6.243  11.448  18.676  0.00  0.00    +0.000 C 
ATOM     22  C   UNL     1      -6.856  10.205  19.330  0.00  0.00    +0.000 C 
ATOM     23  C   UNL     1      -7.305  12.512  18.385  0.00  0.00    +0.000 C 
ENDBRANCH   9  21
BRANCH   1  25
ATOM     24  C   UNL     1      -3.275  10.306  17.266  0.00  0.00    +0.000 C 
ATOM     25  C   UNL     1      -3.495  11.589  17.583  0.00  0.00    +0.000 C 
BRANCH  24  26
ATOM     26  C   UNL     1      -2.976   9.958  15.861  0.00  0.00    +0.000 C 
ATOM     27  O   UNL     1      -2.042   9.270  15.484  0.00  0.00    +0.000 OA
BRANCH  26  29
ATOM     28  C   UNL     1      -3.943  10.038  13.740  0.00  0.00    +0.000 C 
ATOM     29  O   UNL     1      -3.905  10.555  15.072  0.00  0.00    +0.000 OA
ENDBRANCH  26  29
ENDBRANCH  24  26
ENDBRANCH   1  25
BRANCH   5  30
ATOM     30  O   UNL     1      -4.226  14.083  24.440  0.00  0.00    +0.000 OA
ATOM     31  C   UNL     1      -2.880  14.522  24.562  0.00  0.00    +0.000 C 
ENDBRANCH   5  30
TORSDOF 6
ENDMDL
MODEL 3
REMARK VINA RESULT:      -6.2      3.362      6.511
REMARK  Name = 
REMARK  10 active torsions:
REMARK  status: ('A' for Active; 'I' for Inactive)
REMARK    1  A    between atoms: C_1  and  O_2
REMARK    2  A    between atoms: O_2  and  C_3
REMARK    3  A    between atoms: C_3  and  C_5
REMARK    4  A    between atoms: C_6  and  C_7
REMARK    5  A    between atoms: C_8  and  C_9
REMARK    6  A    between atoms: C_22  and  O_23
REMARK    7  A    between atoms: O_23  and  C_24
REMARK    8  A    between atoms: N_28  and  C_29
REMARK    9  A    between atoms: C_29  and  C_30
REMARK   10  A    between atoms: C_29  and  C_31
REMARK                            x       y       z     vdW  Elec       q    Type
REMARK                         _______ _______ _______ _____ _____    ______ ____
ROOT
ATOM      1  C   UNL     1      -4.931  13.553  22.390  0.00  0.00    +0.000 A 
ATOM      2  C   UNL     1      -3.605  13.839  22.722  0.00  0.00    +0.000 A 
ATOM      3  C   UNL     1      -3.644  15.018  23.553  0.00  0.00    +0.000 A 
ATOM      4  C   UNL     1      -2.664  15.841  24.163  0.00  0.00    +0.000 A 
ATOM      5  C   UNL     1      -3.013  16.918  24.990  0.00  0.00    +0.000 A 
ATOM      6  C   UNL     1      -4.350  17.234  25.165  0.00  0.00    +0.000 A 
ATOM      7  C   UNL     1      -5.346  16.486  24.528  0.00  0.00    +0.000 A 
ATOM      8  C   UNL     1      -4.988  15.371  23.737  0.00  0.00    +0.000 A 
ATOM      9  N   UNL     1      -5.762  14.469  23.024  0.00  0.00    +0.000 N 
ENDROOT
BRANCH   2  10
ATOM     10  C   UNL     1      -2.458  13.056  22.209  0.00  0.00    +0.000 A 
ATOM     11  N   UNL     1      -2.203  11.893  22.880  0.00  0.00    +0.000 NA
ATOM     12  C   UNL     1      -1.124  11.163  22.516  0.00  0.00    +0.000 A 
ATOM     13  C   UNL     1      -0.762  10.035  23.246  0.00  0.00    +0.000 A 
ATOM     14  C   UNL     1       0.355   9.271  22.907  0.00  0.00    +0.000 A 
ATOM     15  C   UNL     1       1.121   9.624  21.801  0.00  0.00    +0.000 A 
ATOM     16  C   UNL     1       0.767  10.754  21.062  0.00  0.00    +0.000 A 
ATOM     17  C   UNL     1      -0.325  11.540  21.415  0.00  0.00    +0.000 A 
ATOM     18  N   UNL     1      -0.573  12.666  20.730  0.00  0.00    +0.000 NA
ATOM     19  C   UNL     1      -1.614  13.431  21.162  0.00  0.00    +0.000 A 
ATOM     20 CL   UNL     1      -1.600  14.961  20.376  0.00  0.00    +0.000 Cl
ENDBRANCH   2  10
BRANCH   9  21
ATOM     21  C   UNL     1      -7.237  14.473  22.968  0.00  0.00    +0.000 C 
ATOM     22  C   UNL     1      -7.880  13.994  24.274  0.00  0.00    +0.000 C 
ATOM     23  C   UNL     1      -7.841  15.799  22.497  0.00  0.00    +0.000 C 
ENDBRANCH   9  21
BRANCH   1  25
ATOM     24  C   UNL     1      -5.495  12.762  20.187  0.00  0.00    +0.000 C 
ATOM     25  C   UNL     1      -5.489  12.577  21.514  0.00  0.00    +0.000 C 
BRANCH  24  26
ATOM     26  C   UNL     1      -6.109  11.731  19.325  0.00  0.00    +0.000 C 
ATOM     27  O   UNL     1      -5.781  11.480  18.177  0.00  0.00    +0.000 OA
BRANCH  26  29
ATOM     28  C   UNL     1      -7.183   9.723  19.828  0.00  0.00    +0.000 C 
ATOM     29  O   UNL     1      -7.108  11.137  20.024  0.00  0.00    +0.000 OA
ENDBRANCH  26  29
ENDBRANCH  24  26
ENDBRANCH   1  25
BRANCH   5  30
ATOM     30  O   UNL     1      -1.949  17.562  25.563  0.00  0.00    +0.000 OA
ATOM     31  C   UNL     1      -1.133  16.809  26.450  0.00  0.00    +0.000 C 
ENDBRANCH   5  30
TORSDOF 6
ENDMDL
MODEL 4
REMARK VINA RESULT:      -6.1      1.582      5.426
REMARK  Name = 
REMARK  10 active torsions:
REMARK  status: ('A' for Active; 'I' for Inactive)
REMARK    1  A    between atoms: C_1  and  O_2
REMARK    2  A    between atoms: O_2  and  C_3
REMARK    3  A    between atoms: C_3  and  C_5
REMARK    4  A    between atoms: C_6  and  C_7
REMARK    5  A    between atoms: C_8  and  C_9
REMARK    6  A    between atoms: C_22  and  O_23
REMARK    7  A    between atoms: O_23  and  C_24
REMARK    8  A    between atoms: N_28  and  C_29
REMARK    9  A    between atoms: C_29  and  C_30
REMARK   10  A    between atoms: C_29  and  C_31
REMARK                            x       y       z     vdW  Elec       q    Type
REMARK                         _______ _______ _______ _____ _____    ______ ____
ROOT
ATOM      1  C   UNL     1      -3.859  12.066  19.642  0.00  0.00    +0.000 A 
ATOM      2  C   UNL     1      -3.265  12.908  20.586  0.00  0.00    +0.000 A 
ATOM      3  C   UNL     1      -4.348  13.576  21.267  0.00  0.00    +0.000 A 
ATOM      4  C   UNL     1      -4.430  14.575  22.269  0.00  0.00    +0.000 A 
ATOM      5  C   UNL     1      -5.660  14.995  22.795  0.00  0.00    +0.000 A 
ATOM      6  C   UNL     1      -6.834  14.476  22.275  0.00  0.00    +0.000 A 
ATOM      7  C   UNL     1      -6.798  13.535  21.240  0.00  0.00    +0.000 A 
ATOM      8  C   UNL     1      -5.553  13.079  20.752  0.00  0.00    +0.000 A 
ATOM      9  N   UNL     1      -5.241  12.158  19.763  0.00  0.00    +0.000 N 
ENDROOT
BRANCH   2  10
ATOM     10  C   UNL     1      -1.799  13.055  20.725  0.00  0.00    +0.000 A 
ATOM     11  N   UNL     1      -1.185  13.741  19.715  0.00  0.00    +0.000 NA
ATOM     12  C   UNL     1       0.162  13.850  19.736  0.00  0.00    +0.000 A 
ATOM     13  C   UNL     1       0.835  14.438  18.670  0.00  0.00    +0.000 A 
ATOM     14  C   UNL     1       2.226  14.550  18.653  0.00  0.00    +0.000 A 
ATOM     15  C   UNL     1       2.967  14.084  19.734  0.00  0.00    +0.000 A 
ATOM     16  C   UNL     1       2.302  13.490  20.808  0.00  0.00    +0.000 A 
ATOM     17  C   UNL     1       0.919  13.345  20.816  0.00  0.00    +0.000 A 
ATOM     18  N   UNL     1       0.332  12.689  21.828  0.00  0.00    +0.000 NA
ATOM     19  C   UNL     1      -1.016  12.517  21.749  0.00  0.00    +0.000 A 
ATOM     20 CL   UNL     1      -1.551  11.411  22.952  0.00  0.00    +0.000 Cl
ENDBRANCH   2  10
BRANCH   9  21
ATOM     21  C   UNL     1      -6.224  11.386  18.980  0.00  0.00    +0.000 C 
ATOM     22  C   UNL     1      -7.074  10.454  19.852  0.00  0.00    +0.000 C 
ATOM     23  C   UNL     1      -7.096  12.239  18.054  0.00  0.00    +0.000 C 
ENDBRANCH   9  21
BRANCH   1  25
ATOM     24  C   UNL     1      -3.349  11.614  17.333  0.00  0.00    +0.000 C 
ATOM     25  C   UNL     1      -3.288  11.251  18.622  0.00  0.00    +0.000 C 
BRANCH  24  26
ATOM     26  C   UNL     1      -2.766  10.720  16.311  0.00  0.00    +0.000 C 
ATOM     27  O   UNL     1      -2.036   9.769  16.535  0.00  0.00    +0.000 OA
BRANCH  26  29
ATOM     28  C   UNL     1      -3.340  10.109  14.135  0.00  0.00    +0.000 C 
ATOM     29  O   UNL     1      -3.166  11.157  15.090  0.00  0.00    +0.000 OA
ENDBRANCH  26  29
ENDBRANCH  24  26
ENDBRANCH   1  25
BRANCH   5  30
ATOM     30  O   UNL     1      -5.560  15.909  23.810  0.00  0.00    +0.000 OA
ATOM     31  C   UNL     1      -4.254  16.237  24.264  0.00  0.00    +0.000 C 
ENDBRANCH   5  30
TORSDOF 6
ENDMDL
MODEL 5
REMARK VINA RESULT:      -6.1      1.692      5.188
REMARK  Name = 
REMARK  10 active torsions:
REMARK  status: ('A' for Active; 'I' for Inactive)
REMARK    1  A    between atoms: C_1  and  O_2
REMARK    2  A    between atoms: O_2  and  C_3
REMARK    3  A    between atoms: C_3  and  C_5
REMARK    4  A    between atoms: C_6  and  C_7
REMARK    5  A    between atoms: C_8  and  C_9
REMARK    6  A    between atoms: C_22  and  O_23
REMARK    7  A    between atoms: O_23  and  C_24
REMARK    8  A    between atoms: N_28  and  C_29
REMARK    9  A    between atoms: C_29  and  C_30
REMARK   10  A    between atoms: C_29  and  C_31
REMARK                            x       y       z     vdW  Elec       q    Type
REMARK                         _______ _______ _______ _____ _____    ______ ____
ROOT
ATOM      1  C   UNL     1      -3.761  12.271  19.557  0.00  0.00    +0.000 A 
ATOM      2  C   UNL     1      -3.166  13.009  20.582  0.00  0.00    +0.000 A 
ATOM      3  C   UNL     1      -4.247  13.573  21.352  0.00  0.00    +0.000 A 
ATOM      4  C   UNL     1      -4.330  14.448  22.465  0.00  0.00    +0.000 A 
ATOM      5  C   UNL     1      -5.557  14.782  23.054  0.00  0.00    +0.000 A 
ATOM      6  C   UNL     1      -6.731  14.305  22.495  0.00  0.00    +0.000 A 
ATOM      7  C   UNL     1      -6.697  13.491  21.357  0.00  0.00    +0.000 A 
ATOM      8  C   UNL     1      -5.453  13.117  20.801  0.00  0.00    +0.000 A 
ATOM      9  N   UNL     1      -5.142  12.323  19.708  0.00  0.00    +0.000 N 
ENDROOT
BRANCH   2  10
ATOM     10  C   UNL     1      -1.701  13.166  20.716  0.00  0.00    +0.000 A 
ATOM     11  N   UNL     1      -1.113  13.964  19.774  0.00  0.00    +0.000 NA
ATOM     12  C   UNL     1       0.233  14.093  19.788  0.00  0.00    +0.000 A 
ATOM     13  C   UNL     1       0.880  14.801  18.780  0.00  0.00    +0.000 A 
ATOM     14  C   UNL     1       2.268  14.937  18.755  0.00  0.00    +0.000 A 
ATOM     15  C   UNL     1       3.033  14.374  19.772  0.00  0.00    +0.000 A 
ATOM     16  C   UNL     1       2.395  13.660  20.788  0.00  0.00    +0.000 A 
ATOM     17  C   UNL     1       1.014  13.491  20.799  0.00  0.00    +0.000 A 
ATOM     18  N   UNL     1       0.454  12.723  21.745  0.00  0.00    +0.000 NA
ATOM     19  C   UNL     1      -0.893  12.538  21.667  0.00  0.00    +0.000 A 
ATOM     20 CL   UNL     1      -1.392  11.303  22.756  0.00  0.00    +0.000 Cl
ENDBRANCH   2  10
BRANCH   9  21
ATOM     21  C   UNL     1      -6.126  11.628  18.855  0.00  0.00    +0.000 C 
ATOM     22  C   UNL     1      -6.954  10.595  19.628  0.00  0.00    +0.000 C 
ATOM     23  C   UNL     1      -7.019  12.566  18.038  0.00  0.00    +0.000 C 
ENDBRANCH   9  21
BRANCH   1  25
ATOM     24  C   UNL     1      -2.202  10.705  18.601  0.00  0.00    +0.000 C 
ATOM     25  C   UNL     1      -3.195  11.590  18.440  0.00  0.00    +0.000 C 
BRANCH  24  26
ATOM     26  C   UNL     1      -1.632  10.046  17.408  0.00  0.00    +0.000 C 
ATOM     27  O   UNL     1      -2.233   9.811  16.373  0.00  0.00    +0.000 OA
BRANCH  26  29
ATOM     28  C   UNL     1       0.105  10.178  18.959  0.00  0.00    +0.000 C 
ATOM     29  O   UNL     1      -0.338   9.735  17.675  0.00  0.00    +0.000 OA
ENDBRANCH  26  29
ENDBRANCH  24  26
ENDBRANCH   1  25
BRANCH   5  30
ATOM     30  O   UNL     1      -5.455  15.574  24.167  0.00  0.00    +0.000 OA
ATOM     31  C   UNL     1      -4.147  15.918  24.603  0.00  0.00    +0.000 C 
ENDBRANCH   5  30
TORSDOF 6
ENDMDL
MODEL 6
REMARK VINA RESULT:      -6.0      1.296      1.534
REMARK  Name = 
REMARK  10 active torsions:
REMARK  status: ('A' for Active; 'I' for Inactive)
REMARK    1  A    between atoms: C_1  and  O_2
REMARK    2  A    between atoms: O_2  and  C_3
REMARK    3  A    between atoms: C_3  and  C_5
REMARK    4  A    between atoms: C_6  and  C_7
REMARK    5  A    between atoms: C_8  and  C_9
REMARK    6  A    between atoms: C_22  and  O_23
REMARK    7  A    between atoms: O_23  and  C_24
REMARK    8  A    between atoms: N_28  and  C_29
REMARK    9  A    between atoms: C_29  and  C_30
REMARK   10  A    between atoms: C_29  and  C_31
REMARK                            x       y       z     vdW  Elec       q    Type
REMARK                         _______ _______ _______ _____ _____    ______ ____
ROOT
ATOM      1  C   UNL     1      -2.759  13.515  20.830  0.00  0.00    +0.000 A 
ATOM      2  C   UNL     1      -1.783  12.998  19.974  0.00  0.00    +0.000 A 
ATOM      3  C   UNL     1      -2.482  12.167  19.024  0.00  0.00    +0.000 A 
ATOM      4  C   UNL     1      -2.086  11.329  17.951  0.00  0.00    +0.000 A 
ATOM      5  C   UNL     1      -3.023  10.673  17.140  0.00  0.00    +0.000 A 
ATOM      6  C   UNL     1      -4.372  10.787  17.432  0.00  0.00    +0.000 A 
ATOM      7  C   UNL     1      -4.801  11.553  18.522  0.00  0.00    +0.000 A 
ATOM      8  C   UNL     1      -3.854  12.251  19.303  0.00  0.00    +0.000 A 
ATOM      9  N   UNL     1      -4.008  13.077  20.406  0.00  0.00    +0.000 N 
ENDROOT
BRANCH   2  10
ATOM     10  C   UNL     1      -0.338  13.264  20.145  0.00  0.00    +0.000 A 
ATOM     11  N   UNL     1       0.146  14.323  19.428  0.00  0.00    +0.000 NA
ATOM     12  C   UNL     1       1.473  14.580  19.474  0.00  0.00    +0.000 A 
ATOM     13  C   UNL     1       2.023  15.573  18.671  0.00  0.00    +0.000 A 
ATOM     14  C   UNL     1       3.391  15.851  18.683  0.00  0.00    +0.000 A 
ATOM     15  C   UNL     1       4.231  15.137  19.531  0.00  0.00    +0.000 A 
ATOM     16  C   UNL     1       3.689  14.137  20.340  0.00  0.00    +0.000 A 
ATOM     17  C   UNL     1       2.333  13.832  20.308  0.00  0.00    +0.000 A 
ATOM     18  N   UNL     1       1.873  12.804  21.036  0.00  0.00    +0.000 NA
ATOM     19  C   UNL     1       0.549  12.508  20.914  0.00  0.00    +0.000 A 
ATOM     20 CL   UNL     1       0.200  11.001  21.666  0.00  0.00    +0.000 Cl
ENDBRANCH   2  10
BRANCH   9  21
ATOM     21  C   UNL     1      -5.300  13.447  21.016  0.00  0.00    +0.000 C 
ATOM     22  C   UNL     1      -6.097  14.438  20.159  0.00  0.00    +0.000 C 
ATOM     23  C   UNL     1      -6.158  12.251  21.436  0.00  0.00    +0.000 C 
ENDBRANCH   9  21
BRANCH   1  25
ATOM     24  C   UNL     1      -2.169  13.781  23.149  0.00  0.00    +0.000 C 
ATOM     25  C   UNL     1      -2.647  14.304  22.012  0.00  0.00    +0.000 C 
BRANCH  24  26
ATOM     26  C   UNL     1      -2.099  14.634  24.353  0.00  0.00    +0.000 C 
ATOM     27  O   UNL     1      -1.074  14.983  24.916  0.00  0.00    +0.000 OA
BRANCH  26  29
ATOM     28  C   UNL     1      -3.561  16.325  25.017  0.00  0.00    +0.000 C 
ATOM     29  O   UNL     1      -3.366  14.939  24.729  0.00  0.00    +0.000 OA
ENDBRANCH  26  29
ENDBRANCH  24  26
ENDBRANCH   1  25
BRANCH   5  30
ATOM     30  O   UNL     1      -2.478   9.967  16.101  0.00  0.00    +0.000 OA
ATOM     31  C   UNL     1      -2.991  10.222  14.801  0.00  0.00    +0.000 C 
ENDBRANCH   5  30
TORSDOF 6
ENDMDL
MODEL 7
REMARK VINA RESULT:      -6.0      1.620      2.044
REMARK  Name = 
REMARK  10 active torsions:
REMARK  status: ('A' for Active; 'I' for Inactive)
REMARK    1  A    between atoms: C_1  and  O_2
REMARK    2  A    between atoms: O_2  and  C_3
REMARK    3  A    between atoms: C_3  and  C_5
REMARK    4  A    between atoms: C_6  and  C_7
REMARK    5  A    between atoms: C_8  and  C_9
REMARK    6  A    between atoms: C_22  and  O_23
REMARK    7  A    between atoms: O_23  and  C_24
REMARK    8  A    between atoms: N_28  and  C_29
REMARK    9  A    between atoms: C_29  and  C_30
REMARK   10  A    between atoms: C_29  and  C_31
REMARK                            x       y       z     vdW  Elec       q    Type
REMARK                         _______ _______ _______ _____ _____    ______ ____
ROOT
ATOM      1  C   UNL     1      -4.201  13.143  21.683  0.00  0.00    +0.000 A 
ATOM      2  C   UNL     1      -3.287  12.859  20.666  0.00  0.00    +0.000 A 
ATOM      3  C   UNL     1      -4.055  12.302  19.579  0.00  0.00    +0.000 A 
ATOM      4  C   UNL     1      -3.737  11.766  18.305  0.00  0.00    +0.000 A 
ATOM      5  C   UNL     1      -4.732  11.344  17.412  0.00  0.00    +0.000 A 
ATOM      6  C   UNL     1      -6.059  11.384  17.804  0.00  0.00    +0.000 A 
ATOM      7  C   UNL     1      -6.409  11.846  19.078  0.00  0.00    +0.000 A 
ATOM      8  C   UNL     1      -5.406  12.317  19.953  0.00  0.00    +0.000 A 
ATOM      9  N   UNL     1      -5.481  12.833  21.237  0.00  0.00    +0.000 N 
ENDROOT
BRANCH   2  10
ATOM     10  C   UNL     1      -1.829  13.068  20.811  0.00  0.00    +0.000 A 
ATOM     11  N   UNL     1      -1.276  13.941  19.916  0.00  0.00    +0.000 NA
ATOM     12  C   UNL     1       0.064  14.125  19.939  0.00  0.00    +0.000 A 
ATOM     13  C   UNL     1       0.681  14.914  18.974  0.00  0.00    +0.000 A 
ATOM     14  C   UNL     1       2.063  15.108  18.959  0.00  0.00    +0.000 A 
ATOM     15  C   UNL     1       2.850  14.521  19.943  0.00  0.00    +0.000 A 
ATOM     16  C   UNL     1       2.242  13.725  20.917  0.00  0.00    +0.000 A 
ATOM     17  C   UNL     1       0.870  13.500  20.916  0.00  0.00    +0.000 A 
ATOM     18  N   UNL     1       0.342  12.657  21.816  0.00  0.00    +0.000 NA
ATOM     19  C   UNL     1      -0.996  12.421  21.726  0.00  0.00    +0.000 A 
ATOM     20 CL   UNL     1      -1.443  11.108  22.743  0.00  0.00    +0.000 Cl
ENDBRANCH   2  10
BRANCH   9  21
ATOM     21  C   UNL     1      -6.728  13.039  21.999  0.00  0.00    +0.000 C 
ATOM     22  C   UNL     1      -7.558  14.214  21.470  0.00  0.00    +0.000 C 
ATOM     23  C   UNL     1      -7.580  11.776  22.157  0.00  0.00    +0.000 C 
ENDBRANCH   9  21
BRANCH   1  25
ATOM     24  C   UNL     1      -3.846  14.906  23.284  0.00  0.00    +0.000 C 
ATOM     25  C   UNL     1      -4.006  13.602  23.018  0.00  0.00    +0.000 C 
BRANCH  24  26
ATOM     26  C   UNL     1      -3.621  15.327  24.682  0.00  0.00    +0.000 C 
ATOM     27  O   UNL     1      -2.880  14.774  25.478  0.00  0.00    +0.000 OA
BRANCH  26  29
ATOM     28  C   UNL     1      -3.646  17.616  25.131  0.00  0.00    +0.000 C 
ATOM     29  O   UNL     1      -4.394  16.416  24.925  0.00  0.00    +0.000 OA
ENDBRANCH  26  29
ENDBRANCH  24  26
ENDBRANCH   1  25
BRANCH   5  30
ATOM     30  O   UNL     1      -4.261  10.925  16.196  0.00  0.00    +0.000 OA
ATOM     31  C   UNL     1      -2.852  10.803  16.050  0.00  0.00    +0.000 C 
ENDBRANCH   5  30
TORSDOF 6
ENDMDL
MODEL 8
REMARK VINA RESULT:      -6.0      3.427      6.253
REMARK  Name = 
REMARK  10 active torsions:
REMARK  status: ('A' for Active; 'I' for Inactive)
REMARK    1  A    between atoms: C_1  and  O_2
REMARK    2  A    between atoms: O_2  and  C_3
REMARK    3  A    between atoms: C_3  and  C_5
REMARK    4  A    between atoms: C_6  and  C_7
REMARK    5  A    between atoms: C_8  and  C_9
REMARK    6  A    between atoms: C_22  and  O_23
REMARK    7  A    between atoms: O_23  and  C_24
REMARK    8  A    between atoms: N_28  and  C_29
REMARK    9  A    between atoms: C_29  and  C_30
REMARK   10  A    between atoms: C_29  and  C_31
REMARK                            x       y       z     vdW  Elec       q    Type
REMARK                         _______ _______ _______ _____ _____    ______ ____
ROOT
ATOM      1  C   UNL     1      -0.050  13.949  20.643  0.00  0.00    +0.000 A 
ATOM      2  C   UNL     1      -0.742  12.737  20.701  0.00  0.00    +0.000 A 
ATOM      3  C   UNL     1      -2.136  13.077  20.856  0.00  0.00    +0.000 A 
ATOM      4  C   UNL     1      -3.331  12.334  21.030  0.00  0.00    +0.000 A 
ATOM      5  C   UNL     1      -4.586  12.956  21.092  0.00  0.00    +0.000 A 
ATOM      6  C   UNL     1      -4.662  14.338  21.053  0.00  0.00    +0.000 A 
ATOM      7  C   UNL     1      -3.500  15.111  20.947  0.00  0.00    +0.000 A 
ATOM      8  C   UNL     1      -2.244  14.475  20.833  0.00  0.00    +0.000 A 
ATOM      9  N   UNL     1      -0.965  14.994  20.702  0.00  0.00    +0.000 N 
ENDROOT
BRANCH   2  10
ATOM     10  C   UNL     1      -0.068  11.421  20.668  0.00  0.00    +0.000 A 
ATOM     11  N   UNL     1       0.509  11.094  19.472  0.00  0.00    +0.000 NA
ATOM     12  C   UNL     1       1.079   9.874  19.344  0.00  0.00    +0.000 A 
ATOM     13  C   UNL     1       1.574   9.458  18.112  0.00  0.00    +0.000 A 
ATOM     14  C   UNL     1       2.152   8.199  17.943  0.00  0.00    +0.000 A 
ATOM     15  C   UNL     1       2.259   7.339  19.031  0.00  0.00    +0.000 A 
ATOM     16  C   UNL     1       1.764   7.746  20.271  0.00  0.00    +0.000 A 
ATOM     17  C   UNL     1       1.156   8.985  20.439  0.00  0.00    +0.000 A 
ATOM     18  N   UNL     1       0.616   9.298  21.626  0.00  0.00    +0.000 NA
ATOM     19  C   UNL     1      -0.025  10.496  21.713  0.00  0.00    +0.000 A 
ATOM     20 CL   UNL     1      -0.907  10.598  23.186  0.00  0.00    +0.000 Cl
ENDBRANCH   2  10
BRANCH   9  21
ATOM     21  C   UNL     1      -0.635  16.430  20.617  0.00  0.00    +0.000 C 
ATOM     22  C   UNL     1      -1.145  17.079  19.325  0.00  0.00    +0.000 C 
ATOM     23  C   UNL     1      -1.043  17.239  21.851  0.00  0.00    +0.000 C 
ENDBRANCH   9  21
BRANCH   1  25
ATOM     24  C   UNL     1       2.000  14.325  19.438  0.00  0.00    +0.000 C 
ATOM     25  C   UNL     1       1.347  14.230  20.604  0.00  0.00    +0.000 C 
BRANCH  24  26
ATOM     26  C   UNL     1       3.453  14.592  19.453  0.00  0.00    +0.000 C 
ATOM     27  O   UNL     1       4.117  14.844  20.444  0.00  0.00    +0.000 OA
BRANCH  26  29
ATOM     28  C   UNL     1       3.483  15.625  17.362  0.00  0.00    +0.000 C 
ATOM     29  O   UNL     1       3.907  14.530  18.175  0.00  0.00    +0.000 OA
ENDBRANCH  26  29
ENDBRANCH  24  26
ENDBRANCH   1  25
BRANCH   5  30
ATOM     30  O   UNL     1      -5.644  12.090  21.184  0.00  0.00    +0.000 OA
ATOM     31  C   UNL     1      -6.773  12.520  21.931  0.00  0.00    +0.000 C 
ENDBRANCH   5  30
TORSDOF 6
ENDMDL
MODEL 9
REMARK VINA RESULT:      -6.0      2.930      6.408
REMARK  Name = 
REMARK  10 active torsions:
REMARK  status: ('A' for Active; 'I' for Inactive)
REMARK    1  A    between atoms: C_1  and  O_2
REMARK    2  A    between atoms: O_2  and  C_3
REMARK    3  A    between atoms: C_3  and  C_5
REMARK    4  A    between atoms: C_6  and  C_7
REMARK    5  A    between atoms: C_8  and  C_9
REMARK    6  A    between atoms: C_22  and  O_23
REMARK    7  A    between atoms: O_23  and  C_24
REMARK    8  A    between atoms: N_28  and  C_29
REMARK    9  A    between atoms: C_29  and  C_30
REMARK   10  A    between atoms: C_29  and  C_31
REMARK                            x       y       z     vdW  Elec       q    Type
REMARK                         _______ _______ _______ _____ _____    ______ ____
ROOT
ATOM      1  C   UNL     1      -4.018  12.943  21.835  0.00  0.00    +0.000 A 
ATOM      2  C   UNL     1      -2.651  12.926  22.121  0.00  0.00    +0.000 A 
ATOM      3  C   UNL     1      -2.453  13.869  23.195  0.00  0.00    +0.000 A 
ATOM      4  C   UNL     1      -1.322  14.358  23.897  0.00  0.00    +0.000 A 
ATOM      5  C   UNL     1      -1.448  15.253  24.969  0.00  0.00    +0.000 A 
ATOM      6  C   UNL     1      -2.701  15.731  25.312  0.00  0.00    +0.000 A 
ATOM      7  C   UNL     1      -3.836  15.323  24.601  0.00  0.00    +0.000 A 
ATOM      8  C   UNL     1      -3.707  14.381  23.556  0.00  0.00    +0.000 A 
ATOM      9  N   UNL     1      -4.652  13.808  22.720  0.00  0.00    +0.000 N 
ENDROOT
BRANCH   2  10
ATOM     10  C   UNL     1      -1.679  12.110  21.360  0.00  0.00    +0.000 A 
ATOM     11  N   UNL     1      -1.345  10.917  21.937  0.00  0.00    +0.000 NA
ATOM     12  C   UNL     1      -0.405  10.152  21.337  0.00  0.00    +0.000 A 
ATOM     13  C   UNL     1       0.047   8.987  21.949  0.00  0.00    +0.000 A 
ATOM     14  C   UNL     1       1.029   8.186  21.365  0.00  0.00    +0.000 A 
ATOM     15  C   UNL     1       1.560   8.539  20.129  0.00  0.00    +0.000 A 
ATOM     16  C   UNL     1       1.115   9.707  19.506  0.00  0.00    +0.000 A 
ATOM     17  C   UNL     1       0.162  10.528  20.099  0.00  0.00    +0.000 A 
ATOM     18  N   UNL     1      -0.170  11.684  19.507  0.00  0.00    +0.000 NA
ATOM     19  C   UNL     1      -1.057  12.480  20.166  0.00  0.00    +0.000 A 
ATOM     20 CL   UNL     1      -1.134  14.032  19.427  0.00  0.00    +0.000 Cl
ENDBRANCH   2  10
BRANCH   9  21
ATOM     21  C   UNL     1      -6.105  14.063  22.779  0.00  0.00    +0.000 C 
ATOM     22  C   UNL     1      -6.760  13.466  24.029  0.00  0.00    +0.000 C 
ATOM     23  C   UNL     1      -6.490  15.532  22.590  0.00  0.00    +0.000 C 
ENDBRANCH   9  21
BRANCH   1  25
ATOM     24  C   UNL     1      -4.954  12.889  19.618  0.00  0.00    +0.000 C 
ATOM     25  C   UNL     1      -4.770  12.302  20.808  0.00  0.00    +0.000 C 
BRANCH  24  26
ATOM     26  C   UNL     1      -5.764  12.193  18.596  0.00  0.00    +0.000 C 
ATOM     27  O   UNL     1      -6.830  11.635  18.797  0.00  0.00    +0.000 OA
BRANCH  26  29
ATOM     28  C   UNL     1      -4.157  11.216  17.217  0.00  0.00    +0.000 C 
ATOM     29  O   UNL     1      -5.105  12.267  17.413  0.00  0.00    +0.000 OA
ENDBRANCH  26  29
ENDBRANCH  24  26
ENDBRANCH   1  25
BRANCH   5  30
ATOM     30  O   UNL     1      -0.267  15.565  25.588  0.00  0.00    +0.000 OA
ATOM     31  C   UNL     1      -0.314  16.529  26.631  0.00  0.00    +0.000 C 
ENDBRANCH   5  30
TORSDOF 6
ENDMDL
