MODEL 1
REMARK VINA RESULT:      -8.3      0.000      0.000
REMARK  Name = 
REMARK  7 active torsions:
REMARK  status: ('A' for Active; 'I' for Inactive)
REMARK    1  A    between atoms: C_1  and  O_2
REMARK    2  A    between atoms: O_2  and  C_3
REMARK    3  A    between atoms: C_6  and  C_7
REMARK    4  A    between atoms: C_8  and  C_9
REMARK    5  A    between atoms: N_11  and  C_12
REMARK    6  A    between atoms: C_21  and  C_22
REMARK    7  A    between atoms: C_26  and  C_27
REMARK                            x       y       z     vdW  Elec       q    Type
REMARK                         _______ _______ _______ _____ _____    ______ ____
ROOT
ATOM      1  C   UNL     1       0.415  10.124  20.921  0.00  0.00    +0.000 A 
ATOM      2  C   UNL     1      -0.248   9.462  21.955  0.00  0.00    +0.000 A 
ATOM      3  C   UNL     1      -1.141  10.140  22.781  0.00  0.00    +0.000 A 
ATOM      4  C   UNL     1      -1.385  11.487  22.628  0.00  0.00    +0.000 A 
ATOM      5  N   UNL     1      -2.345  12.027  23.385  0.00  0.00    +0.000 NA
ATOM      6  C   UNL     1      -2.579  13.338  23.245  0.00  0.00    +0.000 A 
ATOM      7  N   UNL     1      -3.882  13.759  23.120  0.00  0.00    +0.000 N 
ATOM      8  C   UNL     1      -4.228  15.166  23.139  0.00  0.00    +0.000 C 
ATOM      9  C   UNL     1      -5.578  15.284  23.842  0.00  0.00    +0.000 C 
ATOM     10  C   UNL     1      -6.633  14.224  23.437  0.00  0.00    +0.000 C 
ATOM     11  C   UNL     1      -7.635  14.065  24.581  0.00  0.00    +0.000 C 
ATOM     12  C   UNL     1      -6.072  12.836  23.068  0.00  0.00    +0.000 C 
ATOM     13  C   UNL     1      -4.768  12.933  22.304  0.00  0.00    +0.000 C 
ATOM     14  C   UNL     1      -1.545  14.126  22.812  0.00  0.00    +0.000 A 
ATOM     15  C   UNL     1      -1.034  13.612  21.625  0.00  0.00    +0.000 A 
ATOM     16  C   UNL     1      -1.551  14.356  20.410  0.00  0.00    +0.000 C 
ATOM     17  C   UNL     1      -0.722  12.220  21.623  0.00  0.00    +0.000 A 
ATOM     18  C   UNL     1       0.155  11.504  20.745  0.00  0.00    +0.000 A 
ENDROOT
BRANCH   1  21
ATOM     19  C   UNL     1       1.197   9.332  18.676  0.00  0.00    +0.000 C 
ATOM     20  O   UNL     1       0.273   9.712  17.983  0.00  0.00    +0.000 OA
ATOM     21  N   UNL     1       1.328   9.454  20.052  0.00  0.00    +0.000 N 
ATOM     22  H   UNL     1       2.135   9.044  20.500  0.00  0.00    +0.000 HD
BRANCH  19  24
ATOM     23  C   UNL     1       2.540   7.318  18.232  0.00  0.00    +0.000 C 
ATOM     24  C   UNL     1       2.370   8.641  18.040  0.00  0.00    +0.000 C 
BRANCH  23  28
ATOM     25  C   UNL     1       5.584   4.864  16.453  0.00  0.00    +0.000 A 
ATOM     26  C   UNL     1       4.430   4.300  16.993  0.00  0.00    +0.000 A 
ATOM     27  C   UNL     1       3.445   5.108  17.574  0.00  0.00    +0.000 A 
ATOM     28  C   UNL     1       3.613   6.498  17.654  0.00  0.00    +0.000 A 
ATOM     29  C   UNL     1       4.774   7.055  17.101  0.00  0.00    +0.000 A 
ATOM     30  C   UNL     1       5.755   6.246  16.511  0.00  0.00    +0.000 A 
BRANCH  25  32
ATOM     31  C   UNL     1       6.568   3.928  14.510  0.00  0.00    +0.000 C 
ATOM     32  O   UNL     1       6.479   3.973  15.929  0.00  0.00    +0.000 OA
ENDBRANCH  25  32
ENDBRANCH  23  28
ENDBRANCH  19  24
ENDBRANCH   1  21
TORSDOF 4
ENDMDL
MODEL 2
REMARK VINA RESULT:      -8.2      2.113      2.933
REMARK  Name = 
REMARK  7 active torsions:
REMARK  status: ('A' for Active; 'I' for Inactive)
REMARK    1  A    between atoms: C_1  and  O_2
REMARK    2  A    between atoms: O_2  and  C_3
REMARK    3  A    between atoms: C_6  and  C_7
REMARK    4  A    between atoms: C_8  and  C_9
REMARK    5  A    between atoms: N_11  and  C_12
REMARK    6  A    between atoms: C_21  and  C_22
REMARK    7  A    between atoms: C_26  and  C_27
REMARK                            x       y       z     vdW  Elec       q    Type
REMARK                         _______ _______ _______ _____ _____    ______ ____
ROOT
ATOM      1  C   UNL     1      -0.502  11.025  18.706  0.00  0.00    +0.000 A 
ATOM      2  C   UNL     1      -0.249  12.078  19.587  0.00  0.00    +0.000 A 
ATOM      3  C   UNL     1      -1.288  12.867  20.072  0.00  0.00    +0.000 A 
ATOM      4  C   UNL     1      -2.594  12.661  19.686  0.00  0.00    +0.000 A 
ATOM      5  N   UNL     1      -3.537  13.387  20.293  0.00  0.00    +0.000 NA
ATOM      6  C   UNL     1      -4.807  13.195  19.914  0.00  0.00    +0.000 A 
ATOM      7  N   UNL     1      -5.764  13.040  20.890  0.00  0.00    +0.000 N 
ATOM      8  C   UNL     1      -7.175  13.002  20.565  0.00  0.00    +0.000 C 
ATOM      9  C   UNL     1      -7.915  13.686  21.712  0.00  0.00    +0.000 C 
ATOM     10  C   UNL     1      -7.428  13.313  23.134  0.00  0.00    +0.000 C 
ATOM     11  C   UNL     1      -7.781  14.452  24.091  0.00  0.00    +0.000 C 
ATOM     12  C   UNL     1      -5.923  13.003  23.261  0.00  0.00    +0.000 C 
ATOM     13  C   UNL     1      -5.394  12.248  22.059  0.00  0.00    +0.000 C 
ATOM     14  C   UNL     1      -5.028  12.741  18.640  0.00  0.00    +0.000 A 
ATOM     15  C   UNL     1      -4.293  11.580  18.424  0.00  0.00    +0.000 A 
ATOM     16  C   UNL     1      -5.143  10.332  18.562  0.00  0.00    +0.000 C 
ATOM     17  C   UNL     1      -2.911  11.634  18.773  0.00  0.00    +0.000 A 
ATOM     18  C   UNL     1      -1.844  10.793  18.319  0.00  0.00    +0.000 A 
ENDROOT
BRANCH   1  21
ATOM     19  C   UNL     1       1.264   9.262  18.933  0.00  0.00    +0.000 C 
ATOM     20  O   UNL     1       1.186   9.036  20.126  0.00  0.00    +0.000 OA
ATOM     21  N   UNL     1       0.540  10.192  18.200  0.00  0.00    +0.000 N 
ATOM     22  H   UNL     1       0.749  10.302  17.218  0.00  0.00    +0.000 HD
BRANCH  19  24
ATOM     23  C   UNL     1       2.470   7.190  18.377  0.00  0.00    +0.000 C 
ATOM     24  C   UNL     1       2.235   8.485  18.090  0.00  0.00    +0.000 C 
BRANCH  23  28
ATOM     25  C   UNL     1       5.190   4.623  16.264  0.00  0.00    +0.000 A 
ATOM     26  C   UNL     1       5.320   6.009  16.210  0.00  0.00    +0.000 A 
ATOM     27  C   UNL     1       4.427   6.837  16.899  0.00  0.00    +0.000 A 
ATOM     28  C   UNL     1       3.362   6.293  17.632  0.00  0.00    +0.000 A 
ATOM     29  C   UNL     1       3.245   4.897  17.686  0.00  0.00    +0.000 A 
ATOM     30  C   UNL     1       4.146   4.068  17.003  0.00  0.00    +0.000 A 
BRANCH  25  32
ATOM     31  C   UNL     1       6.031   4.053  14.122  0.00  0.00    +0.000 C 
ATOM     32  O   UNL     1       6.111   3.921  15.537  0.00  0.00    +0.000 OA
ENDBRANCH  25  32
ENDBRANCH  23  28
ENDBRANCH  19  24
ENDBRANCH   1  21
TORSDOF 4
ENDMDL
MODEL 3
REMARK VINA RESULT:      -8.1      1.341      1.725
REMARK  Name = 
REMARK  7 active torsions:
REMARK  status: ('A' for Active; 'I' for Inactive)
REMARK    1  A    between atoms: C_1  and  O_2
REMARK    2  A    between atoms: O_2  and  C_3
REMARK    3  A    between atoms: C_6  and  C_7
REMARK    4  A    between atoms: C_8  and  C_9
REMARK    5  A    between atoms: N_11  and  C_12
REMARK    6  A    between atoms: C_21  and  C_22
REMARK    7  A    between atoms: C_26  and  C_27
REMARK                            x       y       z     vdW  Elec       q    Type
REMARK                         _______ _______ _______ _____ _____    ______ ____
ROOT
ATOM      1  C   UNL     1       1.025   9.274  21.376  0.00  0.00    +0.000 A 
ATOM      2  C   UNL     1       0.299   8.950  22.523  0.00  0.00    +0.000 A 
ATOM      3  C   UNL     1      -0.542   9.884  23.123  0.00  0.00    +0.000 A 
ATOM      4  C   UNL     1      -0.670  11.163  22.627  0.00  0.00    +0.000 A 
ATOM      5  N   UNL     1      -1.588  11.952  23.194  0.00  0.00    +0.000 NA
ATOM      6  C   UNL     1      -1.710  13.199  22.721  0.00  0.00    +0.000 A 
ATOM      7  N   UNL     1      -2.972  13.675  22.453  0.00  0.00    +0.000 N 
ATOM      8  C   UNL     1      -3.198  15.064  22.106  0.00  0.00    +0.000 C 
ATOM      9  C   UNL     1      -4.540  15.462  22.714  0.00  0.00    +0.000 C 
ATOM     10  C   UNL     1      -5.676  14.422  22.558  0.00  0.00    +0.000 C 
ATOM     11  C   UNL     1      -6.699  14.638  23.673  0.00  0.00    +0.000 C 
ATOM     12  C   UNL     1      -5.231  12.945  22.569  0.00  0.00    +0.000 C 
ATOM     13  C   UNL     1      -3.916  12.742  21.845  0.00  0.00    +0.000 C 
ATOM     14  C   UNL     1      -0.609  13.767  22.134  0.00  0.00    +0.000 A 
ATOM     15  C   UNL     1      -0.131  12.929  21.131  0.00  0.00    +0.000 A 
ATOM     16  C   UNL     1      -0.572  13.379  19.753  0.00  0.00    +0.000 C 
ATOM     17  C   UNL     1       0.062  11.562  21.491  0.00  0.00    +0.000 A 
ATOM     18  C   UNL     1       0.884  10.580  20.849  0.00  0.00    +0.000 A 
ENDROOT
BRANCH   1  21
ATOM     19  C   UNL     1       1.624   6.984  20.553  0.00  0.00    +0.000 C 
ATOM     20  O   UNL     1       0.663   6.356  20.955  0.00  0.00    +0.000 OA
ATOM     21  N   UNL     1       1.887   8.335  20.733  0.00  0.00    +0.000 N 
ATOM     22  H   UNL     1       2.756   8.710  20.381  0.00  0.00    +0.000 HD
BRANCH  19  24
ATOM     23  C   UNL     1       2.694   6.379  18.420  0.00  0.00    +0.000 C 
ATOM     24  C   UNL     1       2.695   6.284  19.764  0.00  0.00    +0.000 C 
BRANCH  23  28
ATOM     25  C   UNL     1       5.693   4.700  15.844  0.00  0.00    +0.000 A 
ATOM     26  C   UNL     1       5.547   6.079  15.974  0.00  0.00    +0.000 A 
ATOM     27  C   UNL     1       4.564   6.617  16.814  0.00  0.00    +0.000 A 
ATOM     28  C   UNL     1       3.685   5.781  17.516  0.00  0.00    +0.000 A 
ATOM     29  C   UNL     1       3.845   4.395  17.384  0.00  0.00    +0.000 A 
ATOM     30  C   UNL     1       4.837   3.857  16.551  0.00  0.00    +0.000 A 
BRANCH  25  32
ATOM     31  C   UNL     1       6.256   3.930  13.674  0.00  0.00    +0.000 C 
ATOM     32  O   UNL     1       6.676   4.295  14.984  0.00  0.00    +0.000 OA
ENDBRANCH  25  32
ENDBRANCH  23  28
ENDBRANCH  19  24
ENDBRANCH   1  21
TORSDOF 4
ENDMDL
MODEL 4
REMARK VINA RESULT:      -8.0      1.574      1.920
REMARK  Name = 
REMARK  7 active torsions:
REMARK  status: ('A' for Active; 'I' for Inactive)
REMARK    1  A    between atoms: C_1  and  O_2
REMARK    2  A    between atoms: O_2  and  C_3
REMARK    3  A    between atoms: C_6  and  C_7
REMARK    4  A    between atoms: C_8  and  C_9
REMARK    5  A    between atoms: N_11  and  C_12
REMARK    6  A    between atoms: C_21  and  C_22
REMARK    7  A    between atoms: C_26  and  C_27
REMARK                            x       y       z     vdW  Elec       q    Type
REMARK                         _______ _______ _______ _____ _____    ______ ____
ROOT
ATOM      1  C   UNL     1       1.011   8.828  20.632  0.00  0.00    +0.000 A 
ATOM      2  C   UNL     1       0.298   8.471  21.778  0.00  0.00    +0.000 A 
ATOM      3  C   UNL     1      -0.404   9.427  22.508  0.00  0.00    +0.000 A 
ATOM      4  C   UNL     1      -0.403  10.756  22.148  0.00  0.00    +0.000 A 
ATOM      5  N   UNL     1      -1.200  11.580  22.834  0.00  0.00    +0.000 NA
ATOM      6  C   UNL     1      -1.195  12.875  22.493  0.00  0.00    +0.000 A 
ATOM      7  N   UNL     1      -2.402  13.514  22.337  0.00  0.00    +0.000 N 
ATOM      8  C   UNL     1      -2.479  14.947  22.140  0.00  0.00    +0.000 C 
ATOM      9  C   UNL     1      -3.740  15.428  22.852  0.00  0.00    +0.000 C 
ATOM     10  C   UNL     1      -4.995  14.543  22.653  0.00  0.00    +0.000 C 
ATOM     11  C   UNL     1      -5.941  14.756  23.835  0.00  0.00    +0.000 C 
ATOM     12  C   UNL     1      -4.724  13.033  22.497  0.00  0.00    +0.000 C 
ATOM     13  C   UNL     1      -3.472  12.760  21.691  0.00  0.00    +0.000 C 
ATOM     14  C   UNL     1      -0.059  13.373  21.909  0.00  0.00    +0.000 A 
ATOM     15  C   UNL     1       0.278  12.595  20.806  0.00  0.00    +0.000 A 
ATOM     16  C   UNL     1      -0.162  13.231  19.502  0.00  0.00    +0.000 C 
ATOM     17  C   UNL     1       0.325  11.185  21.019  0.00  0.00    +0.000 A 
ATOM     18  C   UNL     1       1.001  10.189  20.243  0.00  0.00    +0.000 A 
ENDROOT
BRANCH   1  21
ATOM     19  C   UNL     1       1.869   6.523  20.158  0.00  0.00    +0.000 C 
ATOM     20  O   UNL     1       1.464   5.938  21.144  0.00  0.00    +0.000 OA
ATOM     21  N   UNL     1       1.731   7.870  19.857  0.00  0.00    +0.000 N 
ATOM     22  H   UNL     1       2.165   8.227  19.018  0.00  0.00    +0.000 HD
BRANCH  19  24
ATOM     23  C   UNL     1       3.523   6.411  18.338  0.00  0.00    +0.000 C 
ATOM     24  C   UNL     1       2.618   5.764  19.098  0.00  0.00    +0.000 C 
BRANCH  23  28
ATOM     25  C   UNL     1       5.846   4.551  15.240  0.00  0.00    +0.000 A 
ATOM     26  C   UNL     1       5.321   3.804  16.291  0.00  0.00    +0.000 A 
ATOM     27  C   UNL     1       4.568   4.419  17.299  0.00  0.00    +0.000 A 
ATOM     28  C   UNL     1       4.354   5.805  17.289  0.00  0.00    +0.000 A 
ATOM     29  C   UNL     1       4.880   6.546  16.222  0.00  0.00    +0.000 A 
ATOM     30  C   UNL     1       5.625   5.927  15.209  0.00  0.00    +0.000 A 
BRANCH  25  32
ATOM     31  C   UNL     1       5.993   3.681  13.040  0.00  0.00    +0.000 C 
ATOM     32  O   UNL     1       6.577   3.842  14.328  0.00  0.00    +0.000 OA
ENDBRANCH  25  32
ENDBRANCH  23  28
ENDBRANCH  19  24
ENDBRANCH   1  21
TORSDOF 4
ENDMDL
MODEL 5
REMARK VINA RESULT:      -8.0      1.844      2.501
REMARK  Name = 
REMARK  7 active torsions:
REMARK  status: ('A' for Active; 'I' for Inactive)
REMARK    1  A    between atoms: C_1  and  O_2
REMARK    2  A    between atoms: O_2  and  C_3
REMARK    3  A    between atoms: C_6  and  C_7
REMARK    4  A    between atoms: C_8  and  C_9
REMARK    5  A    between atoms: N_11  and  C_12
REMARK    6  A    between atoms: C_21  and  C_22
REMARK    7  A    between atoms: C_26  and  C_27
REMARK                            x       y       z     vdW  Elec       q    Type
REMARK                         _______ _______ _______ _____ _____    ______ ____
ROOT
ATOM      1  C   UNL     1      -0.570  10.648  18.650  0.00  0.00    +0.000 A 
ATOM      2  C   UNL     1      -1.715  10.964  17.917  0.00  0.00    +0.000 A 
ATOM      3  C   UNL     1      -2.739  11.718  18.483  0.00  0.00    +0.000 A 
ATOM      4  C   UNL     1      -2.677  12.157  19.787  0.00  0.00    +0.000 A 
ATOM      5  N   UNL     1      -3.648  12.974  20.207  0.00  0.00    +0.000 NA
ATOM      6  C   UNL     1      -3.596  13.395  21.477  0.00  0.00    +0.000 A 
ATOM      7  N   UNL     1      -3.785  14.734  21.729  0.00  0.00    +0.000 N 
ATOM      8  C   UNL     1      -3.915  15.238  23.081  0.00  0.00    +0.000 C 
ATOM      9  C   UNL     1      -4.914  16.391  23.033  0.00  0.00    +0.000 C 
ATOM     10  C   UNL     1      -4.741  17.371  21.846  0.00  0.00    +0.000 C 
ATOM     11  C   UNL     1      -6.082  18.051  21.570  0.00  0.00    +0.000 C 
ATOM     12  C   UNL     1      -4.222  16.743  20.537  0.00  0.00    +0.000 C 
ATOM     13  C   UNL     1      -3.179  15.675  20.792  0.00  0.00    +0.000 C 
ATOM     14  C   UNL     1      -2.952  12.597  22.386  0.00  0.00    +0.000 A 
ATOM     15  C   UNL     1      -1.667  12.316  21.932  0.00  0.00    +0.000 A 
ATOM     16  C   UNL     1      -0.622  13.190  22.596  0.00  0.00    +0.000 C 
ATOM     17  C   UNL     1      -1.562  11.843  20.590  0.00  0.00    +0.000 A 
ATOM     18  C   UNL     1      -0.489  11.112  19.985  0.00  0.00    +0.000 A 
ENDROOT
BRANCH   1  21
ATOM     19  C   UNL     1       1.332   9.023  18.794  0.00  0.00    +0.000 C 
ATOM     20  O   UNL     1       1.338   8.810  19.992  0.00  0.00    +0.000 OA
ATOM     21  N   UNL     1       0.502   9.886  18.093  0.00  0.00    +0.000 N 
ATOM     22  H   UNL     1       0.645   9.998  17.100  0.00  0.00    +0.000 HD
BRANCH  19  24
ATOM     23  C   UNL     1       2.788   7.106  18.282  0.00  0.00    +0.000 C 
ATOM     24  C   UNL     1       2.310   8.307  17.905  0.00  0.00    +0.000 C 
BRANCH  23  28
ATOM     25  C   UNL     1       5.404   4.610  15.963  0.00  0.00    +0.000 A 
ATOM     26  C   UNL     1       4.395   4.059  16.750  0.00  0.00    +0.000 A 
ATOM     27  C   UNL     1       3.550   4.880  17.505  0.00  0.00    +0.000 A 
ATOM     28  C   UNL     1       3.720   6.272  17.512  0.00  0.00    +0.000 A 
ATOM     29  C   UNL     1       4.734   6.817  16.711  0.00  0.00    +0.000 A 
ATOM     30  C   UNL     1       5.573   5.994  15.948  0.00  0.00    +0.000 A 
BRANCH  25  32
ATOM     31  C   UNL     1       6.258   3.882  13.875  0.00  0.00    +0.000 C 
ATOM     32  O   UNL     1       6.175   3.707  15.285  0.00  0.00    +0.000 OA
ENDBRANCH  25  32
ENDBRANCH  23  28
ENDBRANCH  19  24
ENDBRANCH   1  21
TORSDOF 4
ENDMDL
MODEL 6
REMARK VINA RESULT:      -7.8      1.836      2.564
REMARK  Name = 
REMARK  7 active torsions:
REMARK  status: ('A' for Active; 'I' for Inactive)
REMARK    1  A    between atoms: C_1  and  O_2
REMARK    2  A    between atoms: O_2  and  C_3
REMARK    3  A    between atoms: C_6  and  C_7
REMARK    4  A    between atoms: C_8  and  C_9
REMARK    5  A    between atoms: N_11  and  C_12
REMARK    6  A    between atoms: C_21  and  C_22
REMARK    7  A    between atoms: C_26  and  C_27
REMARK                            x       y       z     vdW  Elec       q    Type
REMARK                         _______ _______ _______ _____ _____    ______ ____
ROOT
ATOM      1  C   UNL     1      -1.242  10.908  19.135  0.00  0.00    +0.000 A 
ATOM      2  C   UNL     1      -2.370  11.324  18.428  0.00  0.00    +0.000 A 
ATOM      3  C   UNL     1      -3.350  12.101  19.040  0.00  0.00    +0.000 A 
ATOM      4  C   UNL     1      -3.259  12.466  20.365  0.00  0.00    +0.000 A 
ATOM      5  N   UNL     1      -4.182  13.311  20.834  0.00  0.00    +0.000 NA
ATOM      6  C   UNL     1      -4.102  13.661  22.125  0.00  0.00    +0.000 A 
ATOM      7  N   UNL     1      -4.216  14.993  22.448  0.00  0.00    +0.000 N 
ATOM      8  C   UNL     1      -4.313  15.431  23.826  0.00  0.00    +0.000 C 
ATOM      9  C   UNL     1      -5.248  16.637  23.845  0.00  0.00    +0.000 C 
ATOM     10  C   UNL     1      -5.027  17.668  22.711  0.00  0.00    +0.000 C 
ATOM     11  C   UNL     1      -6.329  18.434  22.480  0.00  0.00    +0.000 C 
ATOM     12  C   UNL     1      -4.547  17.083  21.367  0.00  0.00    +0.000 C 
ATOM     13  C   UNL     1      -3.563  15.948  21.558  0.00  0.00    +0.000 C 
ATOM     14  C   UNL     1      -3.499  12.782  22.986  0.00  0.00    +0.000 A 
ATOM     15  C   UNL     1      -2.233  12.456  22.508  0.00  0.00    +0.000 A 
ATOM     16  C   UNL     1      -1.140  13.235  23.210  0.00  0.00    +0.000 C 
ATOM     17  C   UNL     1      -2.160  12.049  21.143  0.00  0.00    +0.000 A 
ATOM     18  C   UNL     1      -1.131  11.295  20.492  0.00  0.00    +0.000 A 
ENDROOT
BRANCH   1  21
ATOM     19  C   UNL     1       1.122  10.471  18.429  0.00  0.00    +0.000 C 
ATOM     20  O   UNL     1       1.642  11.517  18.770  0.00  0.00    +0.000 OA
ATOM     21  N   UNL     1      -0.216  10.119  18.532  0.00  0.00    +0.000 N 
ATOM     22  H   UNL     1      -0.513   9.229  18.160  0.00  0.00    +0.000 HD
BRANCH  19  24
ATOM     23  C   UNL     1       2.177   8.248  18.502  0.00  0.00    +0.000 C 
ATOM     24  C   UNL     1       1.963   9.387  17.815  0.00  0.00    +0.000 C 
BRANCH  23  28
ATOM     25  C   UNL     1       4.313   4.821  17.038  0.00  0.00    +0.000 A 
ATOM     26  C   UNL     1       3.105   4.679  17.717  0.00  0.00    +0.000 A 
ATOM     27  C   UNL     1       2.418   5.802  18.193  0.00  0.00    +0.000 A 
ATOM     28  C   UNL     1       2.946   7.090  18.027  0.00  0.00    +0.000 A 
ATOM     29  C   UNL     1       4.158   7.222  17.335  0.00  0.00    +0.000 A 
ATOM     30  C   UNL     1       4.840   6.098  16.850  0.00  0.00    +0.000 A 
BRANCH  25  32
ATOM     31  C   UNL     1       5.965   3.769  15.702  0.00  0.00    +0.000 C 
ATOM     32  O   UNL     1       4.898   3.652  16.636  0.00  0.00    +0.000 OA
ENDBRANCH  25  32
ENDBRANCH  23  28
ENDBRANCH  19  24
ENDBRANCH   1  21
TORSDOF 4
ENDMDL
MODEL 7
REMARK VINA RESULT:      -7.8      1.082      1.095
REMARK  Name = 
REMARK  7 active torsions:
REMARK  status: ('A' for Active; 'I' for Inactive)
REMARK    1  A    between atoms: C_1  and  O_2
REMARK    2  A    between atoms: O_2  and  C_3
REMARK    3  A    between atoms: C_6  and  C_7
REMARK    4  A    between atoms: C_8  and  C_9
REMARK    5  A    between atoms: N_11  and  C_12
REMARK    6  A    between atoms: C_21  and  C_22
REMARK    7  A    between atoms: C_26  and  C_27
REMARK                            x       y       z     vdW  Elec       q    Type
REMARK                         _______ _______ _______ _____ _____    ______ ____
ROOT
ATOM      1  C   UNL     1       0.493   9.981  21.415  0.00  0.00    +0.000 A 
ATOM      2  C   UNL     1      -0.167   9.464  22.530  0.00  0.00    +0.000 A 
ATOM      3  C   UNL     1      -1.109  10.225  23.218  0.00  0.00    +0.000 A 
ATOM      4  C   UNL     1      -1.405  11.517  22.846  0.00  0.00    +0.000 A 
ATOM      5  N   UNL     1      -2.405  12.128  23.488  0.00  0.00    +0.000 NA
ATOM      6  C   UNL     1      -2.689  13.388  23.135  0.00  0.00    +0.000 A 
ATOM      7  N   UNL     1      -4.005  13.724  22.919  0.00  0.00    +0.000 N 
ATOM      8  C   UNL     1      -4.409  15.099  22.705  0.00  0.00    +0.000 C 
ATOM      9  C   UNL     1      -5.780  15.267  23.354  0.00  0.00    +0.000 C 
ATOM     10  C   UNL     1      -6.779  14.110  23.106  0.00  0.00    +0.000 C 
ATOM     11  C   UNL     1      -7.803  14.091  24.242  0.00  0.00    +0.000 C 
ATOM     12  C   UNL     1      -6.153  12.707  22.976  0.00  0.00    +0.000 C 
ATOM     13  C   UNL     1      -4.835  12.739  22.231  0.00  0.00    +0.000 C 
ATOM     14  C   UNL     1      -1.678  14.142  22.599  0.00  0.00    +0.000 A 
ATOM     15  C   UNL     1      -1.116  13.468  21.520  0.00  0.00    +0.000 A 
ATOM     16  C   UNL     1      -1.632  13.984  20.192  0.00  0.00    +0.000 C 
ATOM     17  C   UNL     1      -0.747  12.108  21.748  0.00  0.00    +0.000 A 
ATOM     18  C   UNL     1       0.181  11.302  21.013  0.00  0.00    +0.000 A 
ENDROOT
BRANCH   1  21
ATOM     19  C   UNL     1       1.473   7.840  20.557  0.00  0.00    +0.000 C 
ATOM     20  O   UNL     1       0.727   7.038  21.087  0.00  0.00    +0.000 OA
ATOM     21  N   UNL     1       1.455   9.222  20.682  0.00  0.00    +0.000 N 
ATOM     22  H   UNL     1       2.173   9.759  20.219  0.00  0.00    +0.000 HD
BRANCH  19  24
ATOM     23  C   UNL     1       2.407   6.191  18.987  0.00  0.00    +0.000 C 
ATOM     24  C   UNL     1       2.567   7.352  19.650  0.00  0.00    +0.000 C 
BRANCH  23  28
ATOM     25  C   UNL     1       5.106   4.402  16.164  0.00  0.00    +0.000 A 
ATOM     26  C   UNL     1       4.231   3.621  16.917  0.00  0.00    +0.000 A 
ATOM     27  C   UNL     1       3.358   4.213  17.837  0.00  0.00    +0.000 A 
ATOM     28  C   UNL     1       3.366   5.599  18.045  0.00  0.00    +0.000 A 
ATOM     29  C   UNL     1       4.244   6.376  17.277  0.00  0.00    +0.000 A 
ATOM     30  C   UNL     1       5.112   5.783  16.348  0.00  0.00    +0.000 A 
BRANCH  25  32
ATOM     31  C   UNL     1       6.632   4.482  14.353  0.00  0.00    +0.000 C 
ATOM     32  O   UNL     1       5.921   3.709  15.313  0.00  0.00    +0.000 OA
ENDBRANCH  25  32
ENDBRANCH  23  28
ENDBRANCH  19  24
ENDBRANCH   1  21
TORSDOF 4
ENDMDL
MODEL 8
REMARK VINA RESULT:      -7.7      1.579      2.093
REMARK  Name = 
REMARK  7 active torsions:
REMARK  status: ('A' for Active; 'I' for Inactive)
REMARK    1  A    between atoms: C_1  and  O_2
REMARK    2  A    between atoms: O_2  and  C_3
REMARK    3  A    between atoms: C_6  and  C_7
REMARK    4  A    between atoms: C_8  and  C_9
REMARK    5  A    between atoms: N_11  and  C_12
REMARK    6  A    between atoms: C_21  and  C_22
REMARK    7  A    between atoms: C_26  and  C_27
REMARK                            x       y       z     vdW  Elec       q    Type
REMARK                         _______ _______ _______ _____ _____    ______ ____
ROOT
ATOM      1  C   UNL     1       0.542  10.899  20.725  0.00  0.00    +0.000 A 
ATOM      2  C   UNL     1      -0.275  10.485  21.778  0.00  0.00    +0.000 A 
ATOM      3  C   UNL     1      -0.842  11.412  22.649  0.00  0.00    +0.000 A 
ATOM      4  C   UNL     1      -0.601  12.762  22.523  0.00  0.00    +0.000 A 
ATOM      5  N   UNL     1      -1.281  13.585  23.326  0.00  0.00    +0.000 NA
ATOM      6  C   UNL     1      -1.043  14.898  23.213  0.00  0.00    +0.000 A 
ATOM      7  N   UNL     1      -2.118  15.754  23.147  0.00  0.00    +0.000 N 
ATOM      8  C   UNL     1      -1.944  17.191  23.199  0.00  0.00    +0.000 C 
ATOM      9  C   UNL     1      -3.140  17.758  23.959  0.00  0.00    +0.000 C 
ATOM     10  C   UNL     1      -4.514  17.149  23.586  0.00  0.00    +0.000 C 
ATOM     11  C   UNL     1      -5.467  17.322  24.769  0.00  0.00    +0.000 C 
ATOM     12  C   UNL     1      -4.493  15.662  23.177  0.00  0.00    +0.000 C 
ATOM     13  C   UNL     1      -3.266  15.314  22.360  0.00  0.00    +0.000 C 
ATOM     14  C   UNL     1       0.187  15.283  22.746  0.00  0.00    +0.000 A 
ATOM     15  C   UNL     1       0.442  14.653  21.532  0.00  0.00    +0.000 A 
ATOM     16  C   UNL     1       0.178  15.564  20.349  0.00  0.00    +0.000 C 
ATOM     17  C   UNL     1       0.242  13.241  21.500  0.00  0.00    +0.000 A 
ATOM     18  C   UNL     1       0.779  12.287  20.577  0.00  0.00    +0.000 A 
ENDROOT
BRANCH   1  21
ATOM     19  C   UNL     1       0.683   9.713  18.523  0.00  0.00    +0.000 C 
ATOM     20  O   UNL     1      -0.301  10.169  17.973  0.00  0.00    +0.000 OA
ATOM     21  N   UNL     1       1.129   9.973  19.810  0.00  0.00    +0.000 N 
ATOM     22  H   UNL     1       1.942   9.480  20.151  0.00  0.00    +0.000 HD
BRANCH  19  24
ATOM     23  C   UNL     1       2.193   7.770  18.469  0.00  0.00    +0.000 C 
ATOM     24  C   UNL     1       1.568   8.747  17.785  0.00  0.00    +0.000 C 
BRANCH  23  28
ATOM     25  C   UNL     1       4.836   4.793  16.854  0.00  0.00    +0.000 A 
ATOM     26  C   UNL     1       5.133   6.150  16.751  0.00  0.00    +0.000 A 
ATOM     27  C   UNL     1       4.264   7.113  17.278  0.00  0.00    +0.000 A 
ATOM     28  C   UNL     1       3.060   6.735  17.891  0.00  0.00    +0.000 A 
ATOM     29  C   UNL     1       2.775   5.367  17.995  0.00  0.00    +0.000 A 
ATOM     30  C   UNL     1       3.651   4.403  17.477  0.00  0.00    +0.000 A 
BRANCH  25  32
ATOM     31  C   UNL     1       6.905   4.562  15.721  0.00  0.00    +0.000 C 
ATOM     32  O   UNL     1       5.751   3.951  16.288  0.00  0.00    +0.000 OA
ENDBRANCH  25  32
ENDBRANCH  23  28
ENDBRANCH  19  24
ENDBRANCH   1  21
TORSDOF 4
ENDMDL
MODEL 9
REMARK VINA RESULT:      -7.6      1.066      1.481
REMARK  Name = 
REMARK  7 active torsions:
REMARK  status: ('A' for Active; 'I' for Inactive)
REMARK    1  A    between atoms: C_1  and  O_2
REMARK    2  A    between atoms: O_2  and  C_3
REMARK    3  A    between atoms: C_6  and  C_7
REMARK    4  A    between atoms: C_8  and  C_9
REMARK    5  A    between atoms: N_11  and  C_12
REMARK    6  A    between atoms: C_21  and  C_22
REMARK    7  A    between atoms: C_26  and  C_27
REMARK                            x       y       z     vdW  Elec       q    Type
REMARK                         _______ _______ _______ _____ _____    ______ ____
ROOT
ATOM      1  C   UNL     1       0.387   9.968  21.575  0.00  0.00    +0.000 A 
ATOM      2  C   UNL     1      -0.491   9.678  22.620  0.00  0.00    +0.000 A 
ATOM      3  C   UNL     1      -1.213  10.691  23.247  0.00  0.00    +0.000 A 
ATOM      4  C   UNL     1      -1.071  12.011  22.882  0.00  0.00    +0.000 A 
ATOM      5  N   UNL     1      -1.890  12.898  23.455  0.00  0.00    +0.000 NA
ATOM      6  C   UNL     1      -1.748  14.185  23.110  0.00  0.00    +0.000 A 
ATOM      7  N   UNL     1      -2.877  14.904  22.795  0.00  0.00    +0.000 N 
ATOM      8  C   UNL     1      -2.826  16.336  22.581  0.00  0.00    +0.000 C 
ATOM      9  C   UNL     1      -4.132  16.914  23.121  0.00  0.00    +0.000 C 
ATOM     10  C   UNL     1      -5.410  16.115  22.764  0.00  0.00    +0.000 C 
ATOM     11  C   UNL     1      -6.484  16.410  23.812  0.00  0.00    +0.000 C 
ATOM     12  C   UNL     1      -5.229  14.588  22.653  0.00  0.00    +0.000 C 
ATOM     13  C   UNL     1      -3.905  14.216  22.019  0.00  0.00    +0.000 C 
ATOM     14  C   UNL     1      -0.515  14.594  22.676  0.00  0.00    +0.000 A 
ATOM     15  C   UNL     1      -0.093  13.779  21.631  0.00  0.00    +0.000 A 
ATOM     16  C   UNL     1      -0.314  14.424  20.278  0.00  0.00    +0.000 C 
ATOM     17  C   UNL     1      -0.174  12.372  21.856  0.00  0.00    +0.000 A 
ATOM     18  C   UNL     1       0.525  11.320  21.181  0.00  0.00    +0.000 A 
ENDROOT
BRANCH   1  21
ATOM     19  C   UNL     1       1.322   8.853  19.534  0.00  0.00    +0.000 C 
ATOM     20  O   UNL     1       0.848   9.564  18.669  0.00  0.00    +0.000 OA
ATOM     21  N   UNL     1       1.132   8.951  20.905  0.00  0.00    +0.000 N 
ATOM     22  H   UNL     1       1.554   8.255  21.503  0.00  0.00    +0.000 HD
BRANCH  19  24
ATOM     23  C   UNL     1       2.622   7.590  17.870  0.00  0.00    +0.000 C 
ATOM     24  C   UNL     1       2.226   7.715  19.151  0.00  0.00    +0.000 C 
BRANCH  23  28
ATOM     25  C   UNL     1       5.369   4.629  16.407  0.00  0.00    +0.000 A 
ATOM     26  C   UNL     1       5.557   5.982  16.132  0.00  0.00    +0.000 A 
ATOM     27  C   UNL     1       4.654   6.939  16.610  0.00  0.00    +0.000 A 
ATOM     28  C   UNL     1       3.525   6.555  17.348  0.00  0.00    +0.000 A 
ATOM     29  C   UNL     1       3.351   5.192  17.626  0.00  0.00    +0.000 A 
ATOM     30  C   UNL     1       4.261   4.236  17.155  0.00  0.00    +0.000 A 
BRANCH  25  32
ATOM     31  C   UNL     1       6.521   3.894  14.470  0.00  0.00    +0.000 C 
ATOM     32  O   UNL     1       6.307   3.789  15.873  0.00  0.00    +0.000 OA
ENDBRANCH  25  32
ENDBRANCH  23  28
ENDBRANCH  19  24
ENDBRANCH   1  21
TORSDOF 4
ENDMDL
