MODEL 1
REMARK VINA RESULT:      -9.0      0.000      0.000
REMARK  Name = 
REMARK  2 active torsions:
REMARK  status: ('A' for Active; 'I' for Inactive)
REMARK    1  A    between atoms: C_8  and  C_9
REMARK    2  A    between atoms: C_20  and  C_21
REMARK                            x       y       z     vdW  Elec       q    Type
REMARK                         _______ _______ _______ _____ _____    ______ ____
ROOT
ATOM      1  N   UNL     1       5.027   1.234  19.328  0.00  0.00    +0.000 N 
ATOM      2  C   UNL     1       4.336   2.374  19.514  0.00  0.00    +0.000 A 
ATOM      3  N   UNL     1       3.384   2.460  20.437  0.00  0.00    +0.000 NA
ATOM      4  N   UNL     1       2.914   3.726  20.306  0.00  0.00    +0.000 N 
ATOM      5  C   UNL     1       1.882   4.244  21.106  0.00  0.00    +0.000 A 
ATOM      6  O   UNL     1       1.324   3.581  21.974  0.00  0.00    +0.000 OA
ATOM      7  C   UNL     1       1.528   5.659  20.813  0.00  0.00    +0.000 A 
ATOM      8  C   UNL     1       2.190   6.308  19.837  0.00  0.00    +0.000 A 
ATOM      9  N   UNL     1       3.189   5.714  19.091  0.00  0.00    +0.000 N 
ATOM     10  C   UNL     1       3.566   4.429  19.312  0.00  0.00    +0.000 A 
ATOM     11  C   UNL     1       4.510   3.580  18.772  0.00  0.00    +0.000 A 
ATOM     12  H   UNL     1       4.654   0.422  19.812  0.00  0.00    +0.000 HD
ATOM     13  H   UNL     1       5.388   1.005  18.409  0.00  0.00    +0.000 HD
ATOM     14  H   UNL     1       3.600   6.252  18.327  0.00  0.00    +0.000 HD
ENDROOT
BRANCH   8  15
ATOM     15  C   UNL     1       1.858   7.710  19.549  0.00  0.00    +0.000 A 
ATOM     16  C   UNL     1       2.146   8.253  18.287  0.00  0.00    +0.000 A 
ATOM     17  C   UNL     1       1.834   9.584  17.978  0.00  0.00    +0.000 A 
ATOM     18  C   UNL     1       1.228  10.330  18.985  0.00  0.00    +0.000 A 
ATOM     19  O   UNL     1       0.852  11.636  18.885  0.00  0.00    +0.000 OA
ATOM     20  C   UNL     1       0.304  11.982  20.079  0.00  0.00    +0.000 A 
ATOM     21  C   UNL     1       0.319  10.915  20.947  0.00  0.00    +0.000 A 
ATOM     22  C   UNL     1       0.921   9.835  20.248  0.00  0.00    +0.000 A 
ATOM     23  C   UNL     1       1.239   8.496  20.541  0.00  0.00    +0.000 A 
ENDBRANCH   8  15
BRANCH  11  24
ATOM     24  C   UNL     1       5.435   3.917  17.700  0.00  0.00    +0.000 A 
ATOM     25  C   UNL     1       5.018   3.912  16.370  0.00  0.00    +0.000 A 
ATOM     26  C   UNL     1       5.891   4.356  15.381  0.00  0.00    +0.000 A 
ATOM     27  C   UNL     1       7.167   4.764  15.741  0.00  0.00    +0.000 A 
ATOM     28  C   UNL     1       7.522   4.696  17.079  0.00  0.00    +0.000 A 
ATOM     29  N   UNL     1       6.692   4.281  18.064  0.00  0.00    +0.000 NA
ENDBRANCH  11  24
TORSDOF 2
ENDMDL
MODEL 2
REMARK VINA RESULT:      -8.7      1.529      1.804
REMARK  Name = 
REMARK  2 active torsions:
REMARK  status: ('A' for Active; 'I' for Inactive)
REMARK    1  A    between atoms: C_8  and  C_9
REMARK    2  A    between atoms: C_20  and  C_21
REMARK                            x       y       z     vdW  Elec       q    Type
REMARK                         _______ _______ _______ _____ _____    ______ ____
ROOT
ATOM      1  N   UNL     1       5.323   2.266  19.189  0.00  0.00    +0.000 N 
ATOM      2  C   UNL     1       4.433   3.231  19.487  0.00  0.00    +0.000 A 
ATOM      3  N   UNL     1       3.220   2.934  19.940  0.00  0.00    +0.000 NA
ATOM      4  N   UNL     1       2.623   4.142  20.097  0.00  0.00    +0.000 N 
ATOM      5  C   UNL     1       1.308   4.290  20.567  0.00  0.00    +0.000 A 
ATOM      6  O   UNL     1       0.601   3.331  20.860  0.00  0.00    +0.000 OA
ATOM      7  C   UNL     1       0.851   5.701  20.682  0.00  0.00    +0.000 A 
ATOM      8  C   UNL     1       1.693   6.690  20.333  0.00  0.00    +0.000 A 
ATOM      9  N   UNL     1       2.972   6.451  19.868  0.00  0.00    +0.000 N 
ATOM     10  C   UNL     1       3.454   5.188  19.747  0.00  0.00    +0.000 A 
ATOM     11  C   UNL     1       4.653   4.633  19.347  0.00  0.00    +0.000 A 
ATOM     12  H   UNL     1       4.944   1.323  19.172  0.00  0.00    +0.000 HD
ATOM     13  H   UNL     1       6.012   2.420  18.462  0.00  0.00    +0.000 HD
ATOM     14  H   UNL     1       3.528   7.252  19.564  0.00  0.00    +0.000 HD
ENDROOT
BRANCH   8  15
ATOM     15  C   UNL     1       1.257   8.087  20.457  0.00  0.00    +0.000 A 
ATOM     16  C   UNL     1       1.514   8.996  19.419  0.00  0.00    +0.000 A 
ATOM     17  C   UNL     1       1.103  10.333  19.502  0.00  0.00    +0.000 A 
ATOM     18  C   UNL     1       0.431  10.706  20.663  0.00  0.00    +0.000 A 
ATOM     19  O   UNL     1      -0.044  11.952  20.936  0.00  0.00    +0.000 OA
ATOM     20  C   UNL     1      -0.631  11.893  22.160  0.00  0.00    +0.000 A 
ATOM     21  C   UNL     1      -0.541  10.621  22.679  0.00  0.00    +0.000 A 
ATOM     22  C   UNL     1       0.150   9.841  21.715  0.00  0.00    +0.000 A 
ATOM     23  C   UNL     1       0.568   8.501  21.614  0.00  0.00    +0.000 A 
ENDBRANCH   8  15
BRANCH  11  24
ATOM     24  C   UNL     1       5.823   5.378  18.906  0.00  0.00    +0.000 A 
ATOM     25  C   UNL     1       5.777   6.161  17.753  0.00  0.00    +0.000 A 
ATOM     26  C   UNL     1       6.873   6.954  17.426  0.00  0.00    +0.000 A 
ATOM     27  C   UNL     1       7.997   6.923  18.239  0.00  0.00    +0.000 A 
ATOM     28  C   UNL     1       7.982   6.084  19.342  0.00  0.00    +0.000 A 
ATOM     29  N   UNL     1       6.928   5.310  19.692  0.00  0.00    +0.000 NA
ENDBRANCH  11  24
TORSDOF 2
ENDMDL
MODEL 3
REMARK VINA RESULT:      -8.7      0.884      1.442
REMARK  Name = 
REMARK  2 active torsions:
REMARK  status: ('A' for Active; 'I' for Inactive)
REMARK    1  A    between atoms: C_8  and  C_9
REMARK    2  A    between atoms: C_20  and  C_21
REMARK                            x       y       z     vdW  Elec       q    Type
REMARK                         _______ _______ _______ _____ _____    ______ ____
ROOT
ATOM      1  N   UNL     1       4.440   0.955  18.189  0.00  0.00    +0.000 N 
ATOM      2  C   UNL     1       3.825   2.061  18.648  0.00  0.00    +0.000 A 
ATOM      3  N   UNL     1       2.872   1.985  19.571  0.00  0.00    +0.000 NA
ATOM      4  N   UNL     1       2.488   3.275  19.752  0.00  0.00    +0.000 N 
ATOM      5  C   UNL     1       1.486   3.653  20.659  0.00  0.00    +0.000 A 
ATOM      6  O   UNL     1       0.876   2.840  21.346  0.00  0.00    +0.000 OA
ATOM      7  C   UNL     1       1.230   5.118  20.718  0.00  0.00    +0.000 A 
ATOM      8  C   UNL     1       1.943   5.936  19.923  0.00  0.00    +0.000 A 
ATOM      9  N   UNL     1       2.907   5.473  19.049  0.00  0.00    +0.000 N 
ATOM     10  C   UNL     1       3.196   4.151  18.952  0.00  0.00    +0.000 A 
ATOM     11  C   UNL     1       4.087   3.395  18.217  0.00  0.00    +0.000 A 
ATOM     12  H   UNL     1       4.009   0.077  18.466  0.00  0.00    +0.000 HD
ATOM     13  H   UNL     1       4.794   0.930  17.240  0.00  0.00    +0.000 HD
ATOM     14  H   UNL     1       3.361   6.151  18.434  0.00  0.00    +0.000 HD
ENDROOT
BRANCH   8  15
ATOM     15  C   UNL     1       1.708   7.385  19.982  0.00  0.00    +0.000 A 
ATOM     16  C   UNL     1       1.218   7.967  21.162  0.00  0.00    +0.000 A 
ATOM     17  C   UNL     1       0.992   9.347  21.254  0.00  0.00    +0.000 A 
ATOM     18  C   UNL     1       1.280  10.101  20.119  0.00  0.00    +0.000 A 
ATOM     19  O   UNL     1       1.126  11.450  20.006  0.00  0.00    +0.000 OA
ATOM     20  C   UNL     1       1.515  11.789  18.749  0.00  0.00    +0.000 A 
ATOM     21  C   UNL     1       1.921  10.674  18.052  0.00  0.00    +0.000 A 
ATOM     22  C   UNL     1       1.770   9.570  18.932  0.00  0.00    +0.000 A 
ATOM     23  C   UNL     1       1.993   8.183  18.857  0.00  0.00    +0.000 A 
ENDBRANCH   8  15
BRANCH  11  24
ATOM     24  C   UNL     1       5.042   3.917  17.252  0.00  0.00    +0.000 A 
ATOM     25  C   UNL     1       4.703   4.036  15.905  0.00  0.00    +0.000 A 
ATOM     26  C   UNL     1       5.594   4.651  15.031  0.00  0.00    +0.000 A 
ATOM     27  C   UNL     1       6.813   5.103  15.516  0.00  0.00    +0.000 A 
ATOM     28  C   UNL     1       7.095   4.907  16.858  0.00  0.00    +0.000 A 
ATOM     29  N   UNL     1       6.245   4.324  17.735  0.00  0.00    +0.000 NA
ENDBRANCH  11  24
TORSDOF 2
ENDMDL
MODEL 4
REMARK VINA RESULT:      -8.6      1.510      2.013
REMARK  Name = 
REMARK  2 active torsions:
REMARK  status: ('A' for Active; 'I' for Inactive)
REMARK    1  A    between atoms: C_8  and  C_9
REMARK    2  A    between atoms: C_20  and  C_21
REMARK                            x       y       z     vdW  Elec       q    Type
REMARK                         _______ _______ _______ _____ _____    ______ ____
ROOT
ATOM      1  N   UNL     1       5.255   2.295  19.133  0.00  0.00    +0.000 N 
ATOM      2  C   UNL     1       4.391   3.276  19.455  0.00  0.00    +0.000 A 
ATOM      3  N   UNL     1       3.179   2.998  19.925  0.00  0.00    +0.000 NA
ATOM      4  N   UNL     1       2.611   4.217  20.105  0.00  0.00    +0.000 N 
ATOM      5  C   UNL     1       1.307   4.387  20.598  0.00  0.00    +0.000 A 
ATOM      6  O   UNL     1       0.584   3.440  20.891  0.00  0.00    +0.000 OA
ATOM      7  C   UNL     1       0.881   5.806  20.737  0.00  0.00    +0.000 A 
ATOM      8  C   UNL     1       1.739   6.781  20.386  0.00  0.00    +0.000 A 
ATOM      9  N   UNL     1       3.005   6.521  19.898  0.00  0.00    +0.000 N 
ATOM     10  C   UNL     1       3.459   5.250  19.754  0.00  0.00    +0.000 A 
ATOM     11  C   UNL     1       4.639   4.675  19.328  0.00  0.00    +0.000 A 
ATOM     12  H   UNL     1       4.856   1.361  19.110  0.00  0.00    +0.000 HD
ATOM     13  H   UNL     1       5.936   2.443  18.396  0.00  0.00    +0.000 HD
ATOM     14  H   UNL     1       3.574   7.313  19.595  0.00  0.00    +0.000 HD
ENDROOT
BRANCH   8  15
ATOM     15  C   UNL     1       1.335   8.186  20.533  0.00  0.00    +0.000 A 
ATOM     16  C   UNL     1       0.940   8.673  21.788  0.00  0.00    +0.000 A 
ATOM     17  C   UNL     1       0.557  10.010  21.963  0.00  0.00    +0.000 A 
ATOM     18  C   UNL     1       0.590  10.820  20.831  0.00  0.00    +0.000 A 
ATOM     19  O   UNL     1       0.254  12.139  20.792  0.00  0.00    +0.000 OA
ATOM     20  C   UNL     1       0.424  12.553  19.509  0.00  0.00    +0.000 A 
ATOM     21  C   UNL     1       0.869  11.516  18.721  0.00  0.00    +0.000 A 
ATOM     22  C   UNL     1       0.978  10.382  19.569  0.00  0.00    +0.000 A 
ATOM     23  C   UNL     1       1.361   9.038  19.411  0.00  0.00    +0.000 A 
ENDBRANCH   8  15
BRANCH  11  24
ATOM     24  C   UNL     1       5.817   5.399  18.877  0.00  0.00    +0.000 A 
ATOM     25  C   UNL     1       5.773   6.188  17.728  0.00  0.00    +0.000 A 
ATOM     26  C   UNL     1       6.880   6.962  17.392  0.00  0.00    +0.000 A 
ATOM     27  C   UNL     1       8.011   6.907  18.193  0.00  0.00    +0.000 A 
ATOM     28  C   UNL     1       7.993   6.064  19.292  0.00  0.00    +0.000 A 
ATOM     29  N   UNL     1       6.930   5.308  19.652  0.00  0.00    +0.000 NA
ENDBRANCH  11  24
TORSDOF 2
ENDMDL
MODEL 5
REMARK VINA RESULT:      -8.6      0.711      1.021
REMARK  Name = 
REMARK  2 active torsions:
REMARK  status: ('A' for Active; 'I' for Inactive)
REMARK    1  A    between atoms: C_8  and  C_9
REMARK    2  A    between atoms: C_20  and  C_21
REMARK                            x       y       z     vdW  Elec       q    Type
REMARK                         _______ _______ _______ _____ _____    ______ ____
ROOT
ATOM      1  N   UNL     1       4.689   1.238  18.735  0.00  0.00    +0.000 N 
ATOM      2  C   UNL     1       4.044   2.380  19.040  0.00  0.00    +0.000 A 
ATOM      3  N   UNL     1       3.109   2.412  19.983  0.00  0.00    +0.000 NA
ATOM      4  N   UNL     1       2.685   3.701  19.981  0.00  0.00    +0.000 N 
ATOM      5  C   UNL     1       1.685   4.178  20.844  0.00  0.00    +0.000 A 
ATOM      6  O   UNL     1       1.115   3.456  21.655  0.00  0.00    +0.000 OA
ATOM      7  C   UNL     1       1.380   5.626  20.692  0.00  0.00    +0.000 A 
ATOM      8  C   UNL     1       2.053   6.340  19.771  0.00  0.00    +0.000 A 
ATOM      9  N   UNL     1       3.018   5.784  18.954  0.00  0.00    +0.000 N 
ATOM     10  C   UNL     1       3.349   4.471  19.046  0.00  0.00    +0.000 A 
ATOM     11  C   UNL     1       4.254   3.644  18.412  0.00  0.00    +0.000 A 
ATOM     12  H   UNL     1       4.293   0.398  19.146  0.00  0.00    +0.000 HD
ATOM     13  H   UNL     1       5.029   1.085  17.792  0.00  0.00    +0.000 HD
ATOM     14  H   UNL     1       3.439   6.377  18.237  0.00  0.00    +0.000 HD
ENDROOT
BRANCH   8  15
ATOM     15  C   UNL     1       1.770   7.774  19.622  0.00  0.00    +0.000 A 
ATOM     16  C   UNL     1       2.042   8.420  18.406  0.00  0.00    +0.000 A 
ATOM     17  C   UNL     1       1.776   9.784  18.230  0.00  0.00    +0.000 A 
ATOM     18  C   UNL     1       1.231  10.457  19.320  0.00  0.00    +0.000 A 
ATOM     19  O   UNL     1       0.906  11.780  19.351  0.00  0.00    +0.000 OA
ATOM     20  C   UNL     1       0.407  12.036  20.589  0.00  0.00    +0.000 A 
ATOM     21  C   UNL     1       0.405  10.893  21.355  0.00  0.00    +0.000 A 
ATOM     22  C   UNL     1       0.941   9.860  20.542  0.00  0.00    +0.000 A 
ATOM     23  C   UNL     1       1.213   8.489  20.701  0.00  0.00    +0.000 A 
ENDBRANCH   8  15
BRANCH  11  24
ATOM     24  C   UNL     1       5.175   4.047  17.361  0.00  0.00    +0.000 A 
ATOM     25  C   UNL     1       6.470   4.464  17.668  0.00  0.00    +0.000 A 
ATOM     26  C   UNL     1       7.363   4.728  16.634  0.00  0.00    +0.000 A 
ATOM     27  C   UNL     1       6.934   4.597  15.321  0.00  0.00    +0.000 A 
ATOM     28  C   UNL     1       5.619   4.223  15.097  0.00  0.00    +0.000 A 
ATOM     29  N   UNL     1       4.730   3.949  16.081  0.00  0.00    +0.000 NA
ENDBRANCH  11  24
TORSDOF 2
ENDMDL
MODEL 6
REMARK VINA RESULT:      -8.5      4.456      6.592
REMARK  Name = 
REMARK  2 active torsions:
REMARK  status: ('A' for Active; 'I' for Inactive)
REMARK    1  A    between atoms: C_8  and  C_9
REMARK    2  A    between atoms: C_20  and  C_21
REMARK                            x       y       z     vdW  Elec       q    Type
REMARK                         _______ _______ _______ _____ _____    ______ ____
ROOT
ATOM      1  N   UNL     1       8.293   5.510  12.536  0.00  0.00    +0.000 N 
ATOM      2  C   UNL     1       7.601   5.298  13.671  0.00  0.00    +0.000 A 
ATOM      3  N   UNL     1       7.940   5.900  14.806  0.00  0.00    +0.000 NA
ATOM      4  N   UNL     1       7.044   5.426  15.709  0.00  0.00    +0.000 N 
ATOM      5  C   UNL     1       7.041   5.813  17.058  0.00  0.00    +0.000 A 
ATOM      6  O   UNL     1       7.859   6.602  17.520  0.00  0.00    +0.000 OA
ATOM      7  C   UNL     1       5.965   5.189  17.875  0.00  0.00    +0.000 A 
ATOM      8  C   UNL     1       5.115   4.329  17.286  0.00  0.00    +0.000 A 
ATOM      9  N   UNL     1       5.199   3.997  15.948  0.00  0.00    +0.000 N 
ATOM     10  C   UNL     1       6.151   4.535  15.145  0.00  0.00    +0.000 A 
ATOM     11  C   UNL     1       6.479   4.429  13.808  0.00  0.00    +0.000 A 
ATOM     12  H   UNL     1       9.169   6.012  12.654  0.00  0.00    +0.000 HD
ATOM     13  H   UNL     1       8.357   4.778  11.838  0.00  0.00    +0.000 HD
ATOM     14  H   UNL     1       4.556   3.289  15.589  0.00  0.00    +0.000 HD
ENDROOT
BRANCH   8  15
ATOM     15  C   UNL     1       4.040   3.719  18.079  0.00  0.00    +0.000 A 
ATOM     16  C   UNL     1       3.217   2.737  17.506  0.00  0.00    +0.000 A 
ATOM     17  C   UNL     1       2.189   2.130  18.239  0.00  0.00    +0.000 A 
ATOM     18  C   UNL     1       2.032   2.551  19.557  0.00  0.00    +0.000 A 
ATOM     19  O   UNL     1       1.093   2.088  20.429  0.00  0.00    +0.000 OA
ATOM     20  C   UNL     1       1.280   2.751  21.600  0.00  0.00    +0.000 A 
ATOM     21  C   UNL     1       2.329   3.635  21.494  0.00  0.00    +0.000 A 
ATOM     22  C   UNL     1       2.824   3.516  20.168  0.00  0.00    +0.000 A 
ATOM     23  C   UNL     1       3.854   4.114  19.419  0.00  0.00    +0.000 A 
ENDBRANCH   8  15
BRANCH  11  24
ATOM     24  C   UNL     1       5.785   3.603  12.832  0.00  0.00    +0.000 A 
ATOM     25  C   UNL     1       4.518   3.957  12.370  0.00  0.00    +0.000 A 
ATOM     26  C   UNL     1       3.934   3.214  11.348  0.00  0.00    +0.000 A 
ATOM     27  C   UNL     1       4.615   2.119  10.835  0.00  0.00    +0.000 A 
ATOM     28  C   UNL     1       5.850   1.804  11.379  0.00  0.00    +0.000 A 
ATOM     29  N   UNL     1       6.449   2.514  12.364  0.00  0.00    +0.000 NA
ENDBRANCH  11  24
TORSDOF 2
ENDMDL
MODEL 7
REMARK VINA RESULT:      -8.4      1.721      2.191
REMARK  Name = 
REMARK  2 active torsions:
REMARK  status: ('A' for Active; 'I' for Inactive)
REMARK    1  A    between atoms: C_8  and  C_9
REMARK    2  A    between atoms: C_20  and  C_21
REMARK                            x       y       z     vdW  Elec       q    Type
REMARK                         _______ _______ _______ _____ _____    ______ ____
ROOT
ATOM      1  N   UNL     1       5.488   2.692  18.878  0.00  0.00    +0.000 N 
ATOM      2  C   UNL     1       4.556   3.577  19.277  0.00  0.00    +0.000 A 
ATOM      3  N   UNL     1       3.405   3.175  19.803  0.00  0.00    +0.000 NA
ATOM      4  N   UNL     1       2.736   4.330  20.051  0.00  0.00    +0.000 N 
ATOM      5  C   UNL     1       1.453   4.363  20.620  0.00  0.00    +0.000 A 
ATOM      6  O   UNL     1       0.840   3.345  20.923  0.00  0.00    +0.000 OA
ATOM      7  C   UNL     1       0.906   5.731  20.825  0.00  0.00    +0.000 A 
ATOM      8  C   UNL     1       1.648   6.791  20.457  0.00  0.00    +0.000 A 
ATOM      9  N   UNL     1       2.902   6.665  19.893  0.00  0.00    +0.000 N 
ATOM     10  C   UNL     1       3.463   5.446  19.686  0.00  0.00    +0.000 A 
ATOM     11  C   UNL     1       4.665   4.996  19.179  0.00  0.00    +0.000 A 
ATOM     12  H   UNL     1       5.177   1.725  18.849  0.00  0.00    +0.000 HD
ATOM     13  H   UNL     1       6.109   2.922  18.110  0.00  0.00    +0.000 HD
ATOM     14  H   UNL     1       3.376   7.515  19.583  0.00  0.00    +0.000 HD
ENDROOT
BRANCH   8  15
ATOM     15  C   UNL     1       1.123   8.147  20.668  0.00  0.00    +0.000 A 
ATOM     16  C   UNL     1       1.290   9.126  19.676  0.00  0.00    +0.000 A 
ATOM     17  C   UNL     1       0.794  10.425  19.843  0.00  0.00    +0.000 A 
ATOM     18  C   UNL     1       0.131  10.689  21.039  0.00  0.00    +0.000 A 
ATOM     19  O   UNL     1      -0.418  11.884  21.392  0.00  0.00    +0.000 OA
ATOM     20  C   UNL     1      -0.964  11.720  22.626  0.00  0.00    +0.000 A 
ATOM     21  C   UNL     1      -0.776  10.431  23.070  0.00  0.00    +0.000 A 
ATOM     22  C   UNL     1      -0.062   9.752  22.048  0.00  0.00    +0.000 A 
ATOM     23  C   UNL     1       0.441   8.451  21.863  0.00  0.00    +0.000 A 
ENDBRANCH   8  15
BRANCH  11  24
ATOM     24  C   UNL     1       5.743   5.840  18.687  0.00  0.00    +0.000 A 
ATOM     25  C   UNL     1       7.016   5.775  19.252  0.00  0.00    +0.000 A 
ATOM     26  C   UNL     1       8.052   6.506  18.680  0.00  0.00    +0.000 A 
ATOM     27  C   UNL     1       7.788   7.305  17.577  0.00  0.00    +0.000 A 
ATOM     28  C   UNL     1       6.487   7.351  17.101  0.00  0.00    +0.000 A 
ATOM     29  N   UNL     1       5.460   6.644  17.629  0.00  0.00    +0.000 NA
ENDBRANCH  11  24
TORSDOF 2
ENDMDL
MODEL 8
REMARK VINA RESULT:      -8.1      4.614      8.596
REMARK  Name = 
REMARK  2 active torsions:
REMARK  status: ('A' for Active; 'I' for Inactive)
REMARK    1  A    between atoms: C_8  and  C_9
REMARK    2  A    between atoms: C_20  and  C_21
REMARK                            x       y       z     vdW  Elec       q    Type
REMARK                         _______ _______ _______ _____ _____    ______ ____
ROOT
ATOM      1  N   UNL     1      -3.703  13.012  19.769  0.00  0.00    +0.000 N 
ATOM      2  C   UNL     1      -2.646  12.182  19.861  0.00  0.00    +0.000 A 
ATOM      3  N   UNL     1      -1.907  12.130  20.964  0.00  0.00    +0.000 NA
ATOM      4  N   UNL     1      -0.946  11.218  20.670  0.00  0.00    +0.000 N 
ATOM      5  C   UNL     1       0.062  10.852  21.577  0.00  0.00    +0.000 A 
ATOM      6  O   UNL     1       0.151  11.342  22.698  0.00  0.00    +0.000 OA
ATOM      7  C   UNL     1       1.007   9.823  21.065  0.00  0.00    +0.000 A 
ATOM      8  C   UNL     1       0.837   9.345  19.819  0.00  0.00    +0.000 A 
ATOM      9  N   UNL     1      -0.182   9.772  18.989  0.00  0.00    +0.000 N 
ATOM     10  C   UNL     1      -1.082  10.702  19.396  0.00  0.00    +0.000 A 
ATOM     11  C   UNL     1      -2.189  11.305  18.834  0.00  0.00    +0.000 A 
ATOM     12  H   UNL     1      -3.779  13.695  20.516  0.00  0.00    +0.000 HD
ATOM     13  H   UNL     1      -3.971  13.391  18.868  0.00  0.00    +0.000 HD
ATOM     14  H   UNL     1      -0.206   9.408  18.035  0.00  0.00    +0.000 HD
ENDROOT
BRANCH   8  15
ATOM     15  C   UNL     1       1.755   8.318  19.308  0.00  0.00    +0.000 A 
ATOM     16  C   UNL     1       2.404   8.508  18.078  0.00  0.00    +0.000 A 
ATOM     17  C   UNL     1       3.292   7.552  17.568  0.00  0.00    +0.000 A 
ATOM     18  C   UNL     1       3.492   6.413  18.343  0.00  0.00    +0.000 A 
ATOM     19  O   UNL     1       4.309   5.371  18.022  0.00  0.00    +0.000 OA
ATOM     20  C   UNL     1       4.219   4.471  19.037  0.00  0.00    +0.000 A 
ATOM     21  C   UNL     1       3.356   4.922  20.009  0.00  0.00    +0.000 A 
ATOM     22  C   UNL     1       2.875   6.183  19.568  0.00  0.00    +0.000 A 
ATOM     23  C   UNL     1       1.987   7.154  20.066  0.00  0.00    +0.000 A 
ENDBRANCH   8  15
BRANCH  11  24
ATOM     24  C   UNL     1      -2.707  11.043  17.500  0.00  0.00    +0.000 A 
ATOM     25  C   UNL     1      -2.068  10.140  16.651  0.00  0.00    +0.000 A 
ATOM     26  C   UNL     1      -2.655   9.823  15.430  0.00  0.00    +0.000 A 
ATOM     27  C   UNL     1      -3.847  10.435  15.074  0.00  0.00    +0.000 A 
ATOM     28  C   UNL     1      -4.397  11.356  15.952  0.00  0.00    +0.000 A 
ATOM     29  N   UNL     1      -3.856  11.678  17.150  0.00  0.00    +0.000 NA
ENDBRANCH  11  24
TORSDOF 2
ENDMDL
MODEL 9
REMARK VINA RESULT:      -7.9      4.577      8.558
REMARK  Name = 
REMARK  2 active torsions:
REMARK  status: ('A' for Active; 'I' for Inactive)
REMARK    1  A    between atoms: C_8  and  C_9
REMARK    2  A    between atoms: C_20  and  C_21
REMARK                            x       y       z     vdW  Elec       q    Type
REMARK                         _______ _______ _______ _____ _____    ______ ____
ROOT
ATOM      1  N   UNL     1      -3.562  13.065  19.727  0.00  0.00    +0.000 N 
ATOM      2  C   UNL     1      -2.552  12.191  19.896  0.00  0.00    +0.000 A 
ATOM      3  N   UNL     1      -1.861  12.149  21.029  0.00  0.00    +0.000 NA
ATOM      4  N   UNL     1      -0.935  11.180  20.813  0.00  0.00    +0.000 N 
ATOM      5  C   UNL     1       0.017  10.805  21.774  0.00  0.00    +0.000 A 
ATOM      6  O   UNL     1       0.085  11.337  22.877  0.00  0.00    +0.000 OA
ATOM      7  C   UNL     1       0.928   9.710  21.344  0.00  0.00    +0.000 A 
ATOM      8  C   UNL     1       0.784   9.190  20.112  0.00  0.00    +0.000 A 
ATOM      9  N   UNL     1      -0.179   9.629  19.224  0.00  0.00    +0.000 N 
ATOM     10  C   UNL     1      -1.046  10.618  19.556  0.00  0.00    +0.000 A 
ATOM     11  C   UNL     1      -2.099  11.249  18.925  0.00  0.00    +0.000 A 
ATOM     12  H   UNL     1      -3.633  13.783  20.442  0.00  0.00    +0.000 HD
ATOM     13  H   UNL     1      -3.775  13.419  18.801  0.00  0.00    +0.000 HD
ATOM     14  H   UNL     1      -0.184   9.227  18.285  0.00  0.00    +0.000 HD
ENDROOT
BRANCH   8  15
ATOM     15  C   UNL     1       1.669   8.099  19.681  0.00  0.00    +0.000 A 
ATOM     16  C   UNL     1       1.794   6.945  20.470  0.00  0.00    +0.000 A 
ATOM     17  C   UNL     1       2.622   5.883  20.083  0.00  0.00    +0.000 A 
ATOM     18  C   UNL     1       3.309   6.036  18.881  0.00  0.00    +0.000 A 
ATOM     19  O   UNL     1       4.161   5.125  18.336  0.00  0.00    +0.000 OA
ATOM     20  C   UNL     1       4.615   5.656  17.170  0.00  0.00    +0.000 A 
ATOM     21  C   UNL     1       4.063   6.899  16.957  0.00  0.00    +0.000 A 
ATOM     22  C   UNL     1       3.213   7.158  18.065  0.00  0.00    +0.000 A 
ATOM     23  C   UNL     1       2.375   8.214  18.468  0.00  0.00    +0.000 A 
ENDBRANCH   8  15
BRANCH  11  24
ATOM     24  C   UNL     1      -2.577  10.957  17.582  0.00  0.00    +0.000 A 
ATOM     25  C   UNL     1      -1.954   9.985  16.799  0.00  0.00    +0.000 A 
ATOM     26  C   UNL     1      -2.508   9.645  15.569  0.00  0.00    +0.000 A 
ATOM     27  C   UNL     1      -3.650  10.304  15.137  0.00  0.00    +0.000 A 
ATOM     28  C   UNL     1      -4.184  11.290  15.952  0.00  0.00    +0.000 A 
ATOM     29  N   UNL     1      -3.675  11.635  17.158  0.00  0.00    +0.000 NA
ENDBRANCH  11  24
TORSDOF 2
ENDMDL
