MODEL 1
REMARK VINA RESULT:      -6.8      0.000      0.000
REMARK  Name = 
REMARK  8 active torsions:
REMARK  status: ('A' for Active; 'I' for Inactive)
REMARK    1  A    between atoms: C_1  and  C_2
REMARK    2  A    between atoms: C_2  and  N_3
REMARK    3  A    between atoms: N_3  and  C_4
REMARK    4  A    between atoms: N_3  and  C_6
REMARK    5  A    between atoms: C_4  and  C_5
REMARK    6  A    between atoms: C_6  and  C_7
REMARK    7  A    between atoms: C_7  and  N_8
REMARK    8  A    between atoms: C_9  and  C_11
REMARK                            x       y       z     vdW  Elec       q    Type
REMARK                         _______ _______ _______ _____ _____    ______ ____
ROOT
ATOM      1  C   UNL     1       0.816   9.861  19.343  0.00  0.00    +0.000 A 
ATOM      2  C   UNL     1       1.199  10.279  20.627  0.00  0.00    +0.000 A 
ATOM      3  C   UNL     1       0.366  11.105  21.383  0.00  0.00    +0.000 A 
ATOM      4  C   UNL     1      -0.857  11.520  20.864  0.00  0.00    +0.000 A 
ATOM      5  C   UNL     1      -1.240  11.115  19.578  0.00  0.00    +0.000 A 
ATOM      6  C   UNL     1      -2.544  11.572  19.030  0.00  0.00    +0.000 A 
ATOM      7  O   UNL     1      -3.294  12.271  19.701  0.00  0.00    +0.000 OA
ATOM      8  C   UNL     1      -2.920  11.170  17.651  0.00  0.00    +0.000 A 
ATOM      9  C   UNL     1      -4.131  11.603  17.101  0.00  0.00    +0.000 A 
ATOM     10  C   UNL     1      -4.478  11.208  15.812  0.00  0.00    +0.000 A 
ATOM     11  C   UNL     1      -3.620  10.382  15.085  0.00  0.00    +0.000 A 
ATOM     12  I   UNL     1      -4.159   9.774  13.171  0.00  0.00    +0.000 I 
ATOM     13  C   UNL     1      -2.408   9.950  15.637  0.00  0.00    +0.000 A 
ATOM     14  C   UNL     1      -2.037  10.361  16.922  0.00  0.00    +0.000 A 
ATOM     15  N   UNL     1      -0.860   9.883  17.519  0.00  0.00    +0.000 N 
ATOM     16  C   UNL     1      -0.407  10.304  18.789  0.00  0.00    +0.000 A 
ATOM     17  H   UNL     1      -0.120   9.540  16.902  0.00  0.00    +0.000 HD
ENDROOT
BRANCH   1  19
ATOM     18  N   UNL     1       2.198   7.843  19.109  0.00  0.00    +0.000 N 
ATOM     19  C   UNL     1       1.738   9.013  18.533  0.00  0.00    +0.000 C 
ATOM     20  O   UNL     1       2.043   9.363  17.394  0.00  0.00    +0.000 OA
ATOM     21  H   UNL     1       1.703   7.437  19.894  0.00  0.00    +0.000 HD
BRANCH  18  22
ATOM     22  C   UNL     1       3.054   6.960  18.340  0.00  0.00    +0.000 C 
BRANCH  22  23
ATOM     23  C   UNL     1       3.062   5.499  18.838  0.00  0.00    +0.000 C 
BRANCH  23  24
ATOM     24  N   UNL     1       2.502   4.499  17.894  0.00  0.00    +0.000 NA
BRANCH  24  26
ATOM     25  C   UNL     1       4.787   4.123  16.849  0.00  0.00    +0.000 C 
ATOM     26  C   UNL     1       3.539   3.528  17.492  0.00  0.00    +0.000 C 
ENDBRANCH  24  26
BRANCH  24  27
ATOM     27  C   UNL     1       1.291   3.863  18.450  0.00  0.00    +0.000 C 
ATOM     28  C   UNL     1       1.138   3.872  19.973  0.00  0.00    +0.000 C 
ENDBRANCH  24  27
ENDBRANCH  23  24
ENDBRANCH  22  23
ENDBRANCH  18  22
ENDBRANCH   1  19
TORSDOF 6
ENDMDL
MODEL 2
REMARK VINA RESULT:      -6.8      0.596      1.412
REMARK  Name = 
REMARK  8 active torsions:
REMARK  status: ('A' for Active; 'I' for Inactive)
REMARK    1  A    between atoms: C_1  and  C_2
REMARK    2  A    between atoms: C_2  and  N_3
REMARK    3  A    between atoms: N_3  and  C_4
REMARK    4  A    between atoms: N_3  and  C_6
REMARK    5  A    between atoms: C_4  and  C_5
REMARK    6  A    between atoms: C_6  and  C_7
REMARK    7  A    between atoms: C_7  and  N_8
REMARK    8  A    between atoms: C_9  and  C_11
REMARK                            x       y       z     vdW  Elec       q    Type
REMARK                         _______ _______ _______ _____ _____    ______ ____
ROOT
ATOM      1  C   UNL     1       0.809   9.822  19.374  0.00  0.00    +0.000 A 
ATOM      2  C   UNL     1       1.192  10.247  20.655  0.00  0.00    +0.000 A 
ATOM      3  C   UNL     1       0.368  11.094  21.399  0.00  0.00    +0.000 A 
ATOM      4  C   UNL     1      -0.846  11.522  20.870  0.00  0.00    +0.000 A 
ATOM      5  C   UNL     1      -1.229  11.110  19.587  0.00  0.00    +0.000 A 
ATOM      6  C   UNL     1      -2.522  11.582  19.027  0.00  0.00    +0.000 A 
ATOM      7  O   UNL     1      -3.265  12.298  19.687  0.00  0.00    +0.000 OA
ATOM      8  C   UNL     1      -2.898  11.171  17.651  0.00  0.00    +0.000 A 
ATOM      9  C   UNL     1      -4.100  11.617  17.090  0.00  0.00    +0.000 A 
ATOM     10  C   UNL     1      -4.447  11.214  15.803  0.00  0.00    +0.000 A 
ATOM     11  C   UNL     1      -3.598  10.368  15.089  0.00  0.00    +0.000 A 
ATOM     12  I   UNL     1      -4.137   9.750  13.179  0.00  0.00    +0.000 I 
ATOM     13  C   UNL     1      -2.396   9.923  15.652  0.00  0.00    +0.000 A 
ATOM     14  C   UNL     1      -2.024  10.341  16.934  0.00  0.00    +0.000 A 
ATOM     15  N   UNL     1      -0.858   9.852  17.542  0.00  0.00    +0.000 N 
ATOM     16  C   UNL     1      -0.404  10.279  18.810  0.00  0.00    +0.000 A 
ATOM     17  H   UNL     1      -0.120   9.492  16.932  0.00  0.00    +0.000 HD
ENDROOT
BRANCH   1  19
ATOM     18  N   UNL     1       2.132   7.764  19.153  0.00  0.00    +0.000 N 
ATOM     19  C   UNL     1       1.722   8.953  18.577  0.00  0.00    +0.000 C 
ATOM     20  O   UNL     1       2.063   9.301  17.448  0.00  0.00    +0.000 OA
ATOM     21  H   UNL     1       1.608   7.367  19.923  0.00  0.00    +0.000 HD
BRANCH  18  22
ATOM     22  C   UNL     1       2.977   6.861  18.395  0.00  0.00    +0.000 C 
BRANCH  22  23
ATOM     23  C   UNL     1       2.258   5.583  17.910  0.00  0.00    +0.000 C 
BRANCH  23  24
ATOM     24  N   UNL     1       2.675   4.324  18.576  0.00  0.00    +0.000 NA
BRANCH  24  26
ATOM     25  C   UNL     1       1.978   4.455  21.016  0.00  0.00    +0.000 C 
ATOM     26  C   UNL     1       1.696   3.935  19.611  0.00  0.00    +0.000 C 
ENDBRANCH  24  26
BRANCH  24  27
ATOM     27  C   UNL     1       2.932   3.258  17.586  0.00  0.00    +0.000 C 
ATOM     28  C   UNL     1       3.441   1.919  18.123  0.00  0.00    +0.000 C 
ENDBRANCH  24  27
ENDBRANCH  23  24
ENDBRANCH  22  23
ENDBRANCH  18  22
ENDBRANCH   1  19
TORSDOF 6
ENDMDL
MODEL 3
REMARK VINA RESULT:      -6.8      4.274      7.350
REMARK  Name = 
REMARK  8 active torsions:
REMARK  status: ('A' for Active; 'I' for Inactive)
REMARK    1  A    between atoms: C_1  and  C_2
REMARK    2  A    between atoms: C_2  and  N_3
REMARK    3  A    between atoms: N_3  and  C_4
REMARK    4  A    between atoms: N_3  and  C_6
REMARK    5  A    between atoms: C_4  and  C_5
REMARK    6  A    between atoms: C_6  and  C_7
REMARK    7  A    between atoms: C_7  and  N_8
REMARK    8  A    between atoms: C_9  and  C_11
REMARK                            x       y       z     vdW  Elec       q    Type
REMARK                         _______ _______ _______ _____ _____    ______ ____
ROOT
ATOM      1  C   UNL     1       4.336   4.411  17.337  0.00  0.00    +0.000 A 
ATOM      2  C   UNL     1       4.622   3.078  17.670  0.00  0.00    +0.000 A 
ATOM      3  C   UNL     1       4.125   2.517  18.847  0.00  0.00    +0.000 A 
ATOM      4  C   UNL     1       3.336   3.282  19.701  0.00  0.00    +0.000 A 
ATOM      5  C   UNL     1       3.056   4.617  19.380  0.00  0.00    +0.000 A 
ATOM      6  C   UNL     1       2.222   5.427  20.305  0.00  0.00    +0.000 A 
ATOM      7  O   UNL     1       1.755   4.932  21.324  0.00  0.00    +0.000 OA
ATOM      8  C   UNL     1       1.966   6.852  19.975  0.00  0.00    +0.000 A 
ATOM      9  C   UNL     1       1.203   7.645  20.837  0.00  0.00    +0.000 A 
ATOM     10  C   UNL     1       0.959   8.976  20.509  0.00  0.00    +0.000 A 
ATOM     11  C   UNL     1       1.473   9.504  19.324  0.00  0.00    +0.000 A 
ATOM     12  I   UNL     1       1.082  11.484  18.829  0.00  0.00    +0.000 I 
ATOM     13  C   UNL     1       2.238   8.708  18.462  0.00  0.00    +0.000 A 
ATOM     14  C   UNL     1       2.511   7.377  18.793  0.00  0.00    +0.000 A 
ATOM     15  N   UNL     1       3.216   6.545  17.911  0.00  0.00    +0.000 N 
ATOM     16  C   UNL     1       3.567   5.210  18.214  0.00  0.00    +0.000 A 
ATOM     17  H   UNL     1       3.824   6.992  17.220  0.00  0.00    +0.000 HD
ENDROOT
BRANCH   1  19
ATOM     18  N   UNL     1       5.374   4.134  15.128  0.00  0.00    +0.000 N 
ATOM     19  C   UNL     1       4.913   5.007  16.096  0.00  0.00    +0.000 C 
ATOM     20  O   UNL     1       4.945   6.229  15.966  0.00  0.00    +0.000 OA
ATOM     21  H   UNL     1       5.060   3.171  15.122  0.00  0.00    +0.000 HD
BRANCH  18  22
ATOM     22  C   UNL     1       5.894   4.666  13.881  0.00  0.00    +0.000 C 
BRANCH  22  23
ATOM     23  C   UNL     1       6.361   3.586  12.882  0.00  0.00    +0.000 C 
BRANCH  23  24
ATOM     24  N   UNL     1       5.277   2.851  12.182  0.00  0.00    +0.000 NA
BRANCH  24  26
ATOM     25  C   UNL     1       3.322   3.140  10.587  0.00  0.00    +0.000 C 
ATOM     26  C   UNL     1       4.467   3.777  11.366  0.00  0.00    +0.000 C 
ENDBRANCH  24  26
BRANCH  24  27
ATOM     27  C   UNL     1       5.818   1.714  11.411  0.00  0.00    +0.000 C 
ATOM     28  C   UNL     1       7.290   1.790  10.999  0.00  0.00    +0.000 C 
ENDBRANCH  24  27
ENDBRANCH  23  24
ENDBRANCH  22  23
ENDBRANCH  18  22
ENDBRANCH   1  19
TORSDOF 6
ENDMDL
MODEL 4
REMARK VINA RESULT:      -6.7      4.005      4.479
REMARK  Name = 
REMARK  8 active torsions:
REMARK  status: ('A' for Active; 'I' for Inactive)
REMARK    1  A    between atoms: C_1  and  C_2
REMARK    2  A    between atoms: C_2  and  N_3
REMARK    3  A    between atoms: N_3  and  C_4
REMARK    4  A    between atoms: N_3  and  C_6
REMARK    5  A    between atoms: C_4  and  C_5
REMARK    6  A    between atoms: C_6  and  C_7
REMARK    7  A    between atoms: C_7  and  N_8
REMARK    8  A    between atoms: C_9  and  C_11
REMARK                            x       y       z     vdW  Elec       q    Type
REMARK                         _______ _______ _______ _____ _____    ______ ____
ROOT
ATOM      1  C   UNL     1       0.655   9.379  20.860  0.00  0.00    +0.000 A 
ATOM      2  C   UNL     1      -0.054   8.652  21.828  0.00  0.00    +0.000 A 
ATOM      3  C   UNL     1      -0.775   9.312  22.825  0.00  0.00    +0.000 A 
ATOM      4  C   UNL     1      -0.796  10.703  22.862  0.00  0.00    +0.000 A 
ATOM      5  C   UNL     1      -0.080  11.434  21.904  0.00  0.00    +0.000 A 
ATOM      6  C   UNL     1      -0.100  12.919  21.960  0.00  0.00    +0.000 A 
ATOM      7  O   UNL     1      -0.757  13.505  22.812  0.00  0.00    +0.000 OA
ATOM      8  C   UNL     1       0.694  13.683  20.964  0.00  0.00    +0.000 A 
ATOM      9  C   UNL     1       0.712  15.081  21.005  0.00  0.00    +0.000 A 
ATOM     10  C   UNL     1       1.451  15.785  20.058  0.00  0.00    +0.000 A 
ATOM     11  C   UNL     1       2.160  15.092  19.077  0.00  0.00    +0.000 A 
ATOM     12  I   UNL     1       3.238  16.152  17.650  0.00  0.00    +0.000 I 
ATOM     13  C   UNL     1       2.142  13.693  19.038  0.00  0.00    +0.000 A 
ATOM     14  C   UNL     1       1.424  12.973  19.999  0.00  0.00    +0.000 A 
ATOM     15  N   UNL     1       1.337  11.574  19.936  0.00  0.00    +0.000 N 
ATOM     16  C   UNL     1       0.673  10.792  20.907  0.00  0.00    +0.000 A 
ATOM     17  H   UNL     1       2.069  11.076  19.425  0.00  0.00    +0.000 HD
ENDROOT
BRANCH   1  19
ATOM     18  N   UNL     1       2.103   7.500  20.222  0.00  0.00    +0.000 N 
ATOM     19  C   UNL     1       1.455   8.657  19.828  0.00  0.00    +0.000 C 
ATOM     20  O   UNL     1       1.501   9.091  18.679  0.00  0.00    +0.000 OA
ATOM     21  H   UNL     1       1.806   7.012  21.058  0.00  0.00    +0.000 HD
BRANCH  18  22
ATOM     22  C   UNL     1       2.849   6.734  19.241  0.00  0.00    +0.000 C 
BRANCH  22  23
ATOM     23  C   UNL     1       2.991   5.237  19.587  0.00  0.00    +0.000 C 
BRANCH  23  24
ATOM     24  N   UNL     1       1.786   4.407  19.336  0.00  0.00    +0.000 NA
BRANCH  24  26
ATOM     25  C   UNL     1       2.770   3.438  17.203  0.00  0.00    +0.000 C 
ATOM     26  C   UNL     1       2.141   3.195  18.571  0.00  0.00    +0.000 C 
ENDBRANCH  24  26
BRANCH  24  27
ATOM     27  C   UNL     1       1.071   4.113  20.595  0.00  0.00    +0.000 C 
ATOM     28  C   UNL     1       1.403   2.793  21.292  0.00  0.00    +0.000 C 
ENDBRANCH  24  27
ENDBRANCH  23  24
ENDBRANCH  22  23
ENDBRANCH  18  22
ENDBRANCH   1  19
TORSDOF 6
ENDMDL
MODEL 5
REMARK VINA RESULT:      -6.6      0.979      1.355
REMARK  Name = 
REMARK  8 active torsions:
REMARK  status: ('A' for Active; 'I' for Inactive)
REMARK    1  A    between atoms: C_1  and  C_2
REMARK    2  A    between atoms: C_2  and  N_3
REMARK    3  A    between atoms: N_3  and  C_4
REMARK    4  A    between atoms: N_3  and  C_6
REMARK    5  A    between atoms: C_4  and  C_5
REMARK    6  A    between atoms: C_6  and  C_7
REMARK    7  A    between atoms: C_7  and  N_8
REMARK    8  A    between atoms: C_9  and  C_11
REMARK                            x       y       z     vdW  Elec       q    Type
REMARK                         _______ _______ _______ _____ _____    ______ ____
ROOT
ATOM      1  C   UNL     1       0.795   9.891  19.356  0.00  0.00    +0.000 A 
ATOM      2  C   UNL     1       1.181  10.316  20.637  0.00  0.00    +0.000 A 
ATOM      3  C   UNL     1       0.350  11.147  21.389  0.00  0.00    +0.000 A 
ATOM      4  C   UNL     1      -0.873  11.561  20.871  0.00  0.00    +0.000 A 
ATOM      5  C   UNL     1      -1.259  11.150  19.588  0.00  0.00    +0.000 A 
ATOM      6  C   UNL     1      -2.562  11.606  19.040  0.00  0.00    +0.000 A 
ATOM      7  O   UNL     1      -3.311  12.310  19.708  0.00  0.00    +0.000 OA
ATOM      8  C   UNL     1      -2.942  11.197  17.664  0.00  0.00    +0.000 A 
ATOM      9  C   UNL     1      -4.153  11.630  17.113  0.00  0.00    +0.000 A 
ATOM     10  C   UNL     1      -4.503  11.228  15.827  0.00  0.00    +0.000 A 
ATOM     11  C   UNL     1      -3.648  10.397  15.103  0.00  0.00    +0.000 A 
ATOM     12  I   UNL     1      -4.191   9.780  13.193  0.00  0.00    +0.000 I 
ATOM     13  C   UNL     1      -2.436   9.966  15.655  0.00  0.00    +0.000 A 
ATOM     14  C   UNL     1      -2.061  10.383  16.937  0.00  0.00    +0.000 A 
ATOM     15  N   UNL     1      -0.884   9.907  17.534  0.00  0.00    +0.000 N 
ATOM     16  C   UNL     1      -0.428  10.334  18.801  0.00  0.00    +0.000 A 
ATOM     17  H   UNL     1      -0.146   9.560  16.918  0.00  0.00    +0.000 HD
ENDROOT
BRANCH   1  19
ATOM     18  N   UNL     1       2.086   7.819  19.084  0.00  0.00    +0.000 N 
ATOM     19  C   UNL     1       1.715   9.038  18.548  0.00  0.00    +0.000 C 
ATOM     20  O   UNL     1       2.095   9.427  17.446  0.00  0.00    +0.000 OA
ATOM     21  H   UNL     1       1.532   7.400  19.822  0.00  0.00    +0.000 HD
BRANCH  18  22
ATOM     22  C   UNL     1       2.935   6.931  18.312  0.00  0.00    +0.000 C 
BRANCH  22  23
ATOM     23  C   UNL     1       3.671   5.870  19.158  0.00  0.00    +0.000 C 
BRANCH  23  24
ATOM     24  N   UNL     1       4.734   5.113  18.449  0.00  0.00    +0.000 NA
BRANCH  24  26
ATOM     25  C   UNL     1       7.264   5.066  18.221  0.00  0.00    +0.000 C 
ATOM     26  C   UNL     1       6.043   5.330  19.096  0.00  0.00    +0.000 C 
ENDBRANCH  24  26
BRANCH  24  27
ATOM     27  C   UNL     1       4.375   3.686  18.321  0.00  0.00    +0.000 C 
ATOM     28  C   UNL     1       3.170   3.349  17.441  0.00  0.00    +0.000 C 
ENDBRANCH  24  27
ENDBRANCH  23  24
ENDBRANCH  22  23
ENDBRANCH  18  22
ENDBRANCH   1  19
TORSDOF 6
ENDMDL
MODEL 6
REMARK VINA RESULT:      -6.6      0.513      1.584
REMARK  Name = 
REMARK  8 active torsions:
REMARK  status: ('A' for Active; 'I' for Inactive)
REMARK    1  A    between atoms: C_1  and  C_2
REMARK    2  A    between atoms: C_2  and  N_3
REMARK    3  A    between atoms: N_3  and  C_4
REMARK    4  A    between atoms: N_3  and  C_6
REMARK    5  A    between atoms: C_4  and  C_5
REMARK    6  A    between atoms: C_6  and  C_7
REMARK    7  A    between atoms: C_7  and  N_8
REMARK    8  A    between atoms: C_9  and  C_11
REMARK                            x       y       z     vdW  Elec       q    Type
REMARK                         _______ _______ _______ _____ _____    ______ ____
ROOT
ATOM      1  C   UNL     1       0.756  10.017  19.320  0.00  0.00    +0.000 A 
ATOM      2  C   UNL     1       1.122  10.450  20.604  0.00  0.00    +0.000 A 
ATOM      3  C   UNL     1       0.263  11.254  21.355  0.00  0.00    +0.000 A 
ATOM      4  C   UNL     1      -0.969  11.631  20.831  0.00  0.00    +0.000 A 
ATOM      5  C   UNL     1      -1.336  11.212  19.545  0.00  0.00    +0.000 A 
ATOM      6  C   UNL     1      -2.650  11.631  18.991  0.00  0.00    +0.000 A 
ATOM      7  O   UNL     1      -3.423  12.309  19.657  0.00  0.00    +0.000 OA
ATOM      8  C   UNL     1      -3.010  11.215  17.612  0.00  0.00    +0.000 A 
ATOM      9  C   UNL     1      -4.230  11.612  17.056  0.00  0.00    +0.000 A 
ATOM     10  C   UNL     1      -4.561  11.204  15.767  0.00  0.00    +0.000 A 
ATOM     11  C   UNL     1      -3.677  10.401  15.045  0.00  0.00    +0.000 A 
ATOM     12  I   UNL     1      -4.191   9.773  13.131  0.00  0.00    +0.000 I 
ATOM     13  C   UNL     1      -2.456  10.005  15.603  0.00  0.00    +0.000 A 
ATOM     14  C   UNL     1      -2.100  10.430  16.887  0.00  0.00    +0.000 A 
ATOM     15  N   UNL     1      -0.913   9.988  17.490  0.00  0.00    +0.000 N 
ATOM     16  C   UNL     1      -0.477  10.425  18.761  0.00  0.00    +0.000 A 
ATOM     17  H   UNL     1      -0.161   9.665  16.877  0.00  0.00    +0.000 HD
ENDROOT
BRANCH   1  19
ATOM     18  N   UNL     1       2.002   7.928  18.982  0.00  0.00    +0.000 N 
ATOM     19  C   UNL     1       1.706   9.195  18.515  0.00  0.00    +0.000 C 
ATOM     20  O   UNL     1       2.174   9.651  17.474  0.00  0.00    +0.000 OA
ATOM     21  H   UNL     1       1.386   7.475  19.646  0.00  0.00    +0.000 HD
BRANCH  18  22
ATOM     22  C   UNL     1       2.878   7.071  18.205  0.00  0.00    +0.000 C 
BRANCH  22  23
ATOM     23  C   UNL     1       3.255   5.750  18.910  0.00  0.00    +0.000 C 
BRANCH  23  24
ATOM     24  N   UNL     1       3.810   4.692  18.029  0.00  0.00    +0.000 NA
BRANCH  24  26
ATOM     25  C   UNL     1       1.466   3.782  18.394  0.00  0.00    +0.000 C 
ATOM     26  C   UNL     1       2.735   3.800  17.549  0.00  0.00    +0.000 C 
ENDBRANCH  24  26
BRANCH  24  27
ATOM     27  C   UNL     1       4.613   5.277  16.936  0.00  0.00    +0.000 C 
ATOM     28  C   UNL     1       5.224   4.306  15.925  0.00  0.00    +0.000 C 
ENDBRANCH  24  27
ENDBRANCH  23  24
ENDBRANCH  22  23
ENDBRANCH  18  22
ENDBRANCH   1  19
TORSDOF 6
ENDMDL
MODEL 7
REMARK VINA RESULT:      -6.6      4.076      8.411
REMARK  Name = 
REMARK  8 active torsions:
REMARK  status: ('A' for Active; 'I' for Inactive)
REMARK    1  A    between atoms: C_1  and  C_2
REMARK    2  A    between atoms: C_2  and  N_3
REMARK    3  A    between atoms: N_3  and  C_4
REMARK    4  A    between atoms: N_3  and  C_6
REMARK    5  A    between atoms: C_4  and  C_5
REMARK    6  A    between atoms: C_6  and  C_7
REMARK    7  A    between atoms: C_7  and  N_8
REMARK    8  A    between atoms: C_9  and  C_11
REMARK                            x       y       z     vdW  Elec       q    Type
REMARK                         _______ _______ _______ _____ _____    ______ ____
ROOT
ATOM      1  C   UNL     1       0.572  10.858  20.569  0.00  0.00    +0.000 A 
ATOM      2  C   UNL     1       0.676  12.077  19.882  0.00  0.00    +0.000 A 
ATOM      3  C   UNL     1       1.315  12.142  18.642  0.00  0.00    +0.000 A 
ATOM      4  C   UNL     1       1.853  10.990  18.078  0.00  0.00    +0.000 A 
ATOM      5  C   UNL     1       1.762   9.771  18.764  0.00  0.00    +0.000 A 
ATOM      6  C   UNL     1       2.350   8.549  18.156  0.00  0.00    +0.000 A 
ATOM      7  O   UNL     1       2.883   8.592  17.054  0.00  0.00    +0.000 OA
ATOM      8  C   UNL     1       2.284   7.272  18.911  0.00  0.00    +0.000 A 
ATOM      9  C   UNL     1       2.848   6.111  18.374  0.00  0.00    +0.000 A 
ATOM     10  C   UNL     1       2.767   4.917  19.087  0.00  0.00    +0.000 A 
ATOM     11  C   UNL     1       2.122   4.890  20.324  0.00  0.00    +0.000 A 
ATOM     12  I   UNL     1       1.982   3.098  21.368  0.00  0.00    +0.000 I 
ATOM     13  C   UNL     1       1.559   6.054  20.860  0.00  0.00    +0.000 A 
ATOM     14  C   UNL     1       1.656   7.264  20.166  0.00  0.00    +0.000 A 
ATOM     15  N   UNL     1       1.038   8.426  20.653  0.00  0.00    +0.000 N 
ATOM     16  C   UNL     1       1.147   9.687  20.024  0.00  0.00    +0.000 A 
ATOM     17  H   UNL     1       0.839   8.473  21.655  0.00  0.00    +0.000 HD
ENDROOT
BRANCH   1  19
ATOM     18  N   UNL     1      -1.263  11.507  22.068  0.00  0.00    +0.000 N 
ATOM     19  C   UNL     1      -0.075  10.816  21.913  0.00  0.00    +0.000 C 
ATOM     20  O   UNL     1       0.446  10.169  22.819  0.00  0.00    +0.000 OA
ATOM     21  H   UNL     1      -1.811  11.761  21.255  0.00  0.00    +0.000 HD
BRANCH  18  22
ATOM     22  C   UNL     1      -1.957  11.451  23.341  0.00  0.00    +0.000 C 
BRANCH  22  23
ATOM     23  C   UNL     1      -2.955  12.607  23.566  0.00  0.00    +0.000 C 
BRANCH  23  24
ATOM     24  N   UNL     1      -4.357  12.326  23.168  0.00  0.00    +0.000 NA
BRANCH  24  26
ATOM     25  C   UNL     1      -6.775  12.617  23.893  0.00  0.00    +0.000 C 
ATOM     26  C   UNL     1      -5.300  12.913  24.141  0.00  0.00    +0.000 C 
ENDBRANCH  24  26
BRANCH  24  27
ATOM     27  C   UNL     1      -4.612  12.755  21.778  0.00  0.00    +0.000 C 
ATOM     28  C   UNL     1      -4.057  14.117  21.358  0.00  0.00    +0.000 C 
ENDBRANCH  24  27
ENDBRANCH  23  24
ENDBRANCH  22  23
ENDBRANCH  18  22
ENDBRANCH   1  19
TORSDOF 6
ENDMDL
MODEL 8
REMARK VINA RESULT:      -6.6      0.856      1.051
REMARK  Name = 
REMARK  8 active torsions:
REMARK  status: ('A' for Active; 'I' for Inactive)
REMARK    1  A    between atoms: C_1  and  C_2
REMARK    2  A    between atoms: C_2  and  N_3
REMARK    3  A    between atoms: N_3  and  C_4
REMARK    4  A    between atoms: N_3  and  C_6
REMARK    5  A    between atoms: C_4  and  C_5
REMARK    6  A    between atoms: C_6  and  C_7
REMARK    7  A    between atoms: C_7  and  N_8
REMARK    8  A    between atoms: C_9  and  C_11
REMARK                            x       y       z     vdW  Elec       q    Type
REMARK                         _______ _______ _______ _____ _____    ______ ____
ROOT
ATOM      1  C   UNL     1       0.525   9.836  20.042  0.00  0.00    +0.000 A 
ATOM      2  C   UNL     1       0.816  10.288  21.339  0.00  0.00    +0.000 A 
ATOM      3  C   UNL     1      -0.033  11.187  21.985  0.00  0.00    +0.000 A 
ATOM      4  C   UNL     1      -1.180  11.643  21.342  0.00  0.00    +0.000 A 
ATOM      5  C   UNL     1      -1.470  11.205  20.043  0.00  0.00    +0.000 A 
ATOM      6  C   UNL     1      -2.692  11.707  19.362  0.00  0.00    +0.000 A 
ATOM      7  O   UNL     1      -3.459  12.472  19.936  0.00  0.00    +0.000 OA
ATOM      8  C   UNL     1      -2.967  11.268  17.971  0.00  0.00    +0.000 A 
ATOM      9  C   UNL     1      -4.098  11.741  17.298  0.00  0.00    +0.000 A 
ATOM     10  C   UNL     1      -4.352  11.310  15.998  0.00  0.00    +0.000 A 
ATOM     11  C   UNL     1      -3.480  10.411  15.383  0.00  0.00    +0.000 A 
ATOM     12  I   UNL     1      -3.881   9.753  13.452  0.00  0.00    +0.000 I 
ATOM     13  C   UNL     1      -2.348   9.939  16.058  0.00  0.00    +0.000 A 
ATOM     14  C   UNL     1      -2.069  10.384  17.355  0.00  0.00    +0.000 A 
ATOM     15  N   UNL     1      -0.979   9.871  18.074  0.00  0.00    +0.000 N 
ATOM     16  C   UNL     1      -0.617  10.320  19.363  0.00  0.00    +0.000 A 
ATOM     17  H   UNL     1      -0.207   9.464  17.540  0.00  0.00    +0.000 HD
ENDROOT
BRANCH   1  19
ATOM     18  N   UNL     1       1.824   7.752  20.018  0.00  0.00    +0.000 N 
ATOM     19  C   UNL     1       1.467   8.909  19.350  0.00  0.00    +0.000 C 
ATOM     20  O   UNL     1       1.876   9.185  18.224  0.00  0.00    +0.000 OA
ATOM     21  H   UNL     1       1.251   7.408  20.779  0.00  0.00    +0.000 HD
BRANCH  18  22
ATOM     22  C   UNL     1       2.695   6.793  19.364  0.00  0.00    +0.000 C 
BRANCH  22  23
ATOM     23  C   UNL     1       2.578   5.356  19.916  0.00  0.00    +0.000 C 
BRANCH  23  24
ATOM     24  N   UNL     1       1.448   4.556  19.379  0.00  0.00    +0.000 NA
BRANCH  24  26
ATOM     25  C   UNL     1       2.932   3.246  17.786  0.00  0.00    +0.000 C 
ATOM     26  C   UNL     1       1.718   4.147  17.986  0.00  0.00    +0.000 C 
ENDBRANCH  24  26
BRANCH  24  27
ATOM     27  C   UNL     1       1.129   3.422  20.270  0.00  0.00    +0.000 C 
ATOM     28  C   UNL     1       1.944   3.300  21.559  0.00  0.00    +0.000 C 
ENDBRANCH  24  27
ENDBRANCH  23  24
ENDBRANCH  22  23
ENDBRANCH  18  22
ENDBRANCH   1  19
TORSDOF 6
ENDMDL
MODEL 9
REMARK VINA RESULT:      -6.6      4.305      7.304
REMARK  Name = 
REMARK  8 active torsions:
REMARK  status: ('A' for Active; 'I' for Inactive)
REMARK    1  A    between atoms: C_1  and  C_2
REMARK    2  A    between atoms: C_2  and  N_3
REMARK    3  A    between atoms: N_3  and  C_4
REMARK    4  A    between atoms: N_3  and  C_6
REMARK    5  A    between atoms: C_4  and  C_5
REMARK    6  A    between atoms: C_6  and  C_7
REMARK    7  A    between atoms: C_7  and  N_8
REMARK    8  A    between atoms: C_9  and  C_11
REMARK                            x       y       z     vdW  Elec       q    Type
REMARK                         _______ _______ _______ _____ _____    ______ ____
ROOT
ATOM      1  C   UNL     1       4.476   4.343  17.645  0.00  0.00    +0.000 A 
ATOM      2  C   UNL     1       4.800   3.031  18.023  0.00  0.00    +0.000 A 
ATOM      3  C   UNL     1       4.293   2.487  19.204  0.00  0.00    +0.000 A 
ATOM      4  C   UNL     1       3.458   3.247  20.017  0.00  0.00    +0.000 A 
ATOM      5  C   UNL     1       3.139   4.562  19.650  0.00  0.00    +0.000 A 
ATOM      6  C   UNL     1       2.255   5.368  20.532  0.00  0.00    +0.000 A 
ATOM      7  O   UNL     1       1.781   4.886  21.553  0.00  0.00    +0.000 OA
ATOM      8  C   UNL     1       1.958   6.773  20.154  0.00  0.00    +0.000 A 
ATOM      9  C   UNL     1       1.147   7.563  20.974  0.00  0.00    +0.000 A 
ATOM     10  C   UNL     1       0.866   8.875  20.602  0.00  0.00    +0.000 A 
ATOM     11  C   UNL     1       1.390   9.386  19.414  0.00  0.00    +0.000 A 
ATOM     12  I   UNL     1       0.943  11.337  18.852  0.00  0.00    +0.000 I 
ATOM     13  C   UNL     1       2.203   8.594  18.594  0.00  0.00    +0.000 A 
ATOM     14  C   UNL     1       2.514   7.283  18.970  0.00  0.00    +0.000 A 
ATOM     15  N   UNL     1       3.269   6.451  18.130  0.00  0.00    +0.000 N 
ATOM     16  C   UNL     1       3.659   5.140  18.480  0.00  0.00    +0.000 A 
ATOM     17  H   UNL     1       3.877   6.900  17.441  0.00  0.00    +0.000 HD
ENDROOT
BRANCH   1  19
ATOM     18  N   UNL     1       5.041   4.139  15.263  0.00  0.00    +0.000 N 
ATOM     19  C   UNL     1       5.062   4.923  16.402  0.00  0.00    +0.000 C 
ATOM     20  O   UNL     1       5.522   6.063  16.420  0.00  0.00    +0.000 OA
ATOM     21  H   UNL     1       4.399   3.358  15.198  0.00  0.00    +0.000 HD
BRANCH  18  22
ATOM     22  C   UNL     1       5.550   4.680  14.017  0.00  0.00    +0.000 C 
BRANCH  22  23
ATOM     23  C   UNL     1       6.485   3.722  13.249  0.00  0.00    +0.000 C 
BRANCH  23  24
ATOM     24  N   UNL     1       6.066   3.395  11.863  0.00  0.00    +0.000 NA
BRANCH  24  26
ATOM     25  C   UNL     1       6.288   0.967  11.151  0.00  0.00    +0.000 C 
ATOM     26  C   UNL     1       6.930   2.342  11.294  0.00  0.00    +0.000 C 
ENDBRANCH  24  26
BRANCH  24  27
ATOM     27  C   UNL     1       4.628   3.063  11.807  0.00  0.00    +0.000 C 
ATOM     28  C   UNL     1       3.836   3.602  10.613  0.00  0.00    +0.000 C 
ENDBRANCH  24  27
ENDBRANCH  23  24
ENDBRANCH  22  23
ENDBRANCH  18  22
ENDBRANCH   1  19
TORSDOF 6
ENDMDL
