MODEL 1
REMARK VINA RESULT:      -7.0      0.000      0.000
REMARK  Name = 
REMARK  5 active torsions:
REMARK  status: ('A' for Active; 'I' for Inactive)
REMARK    1  A    between atoms: O_1  and  C_2
REMARK    2  A    between atoms: C_2  and  C_3
REMARK    3  A    between atoms: C_3  and  C_4
REMARK    4  A    between atoms: C_4  and  N_5
REMARK    5  A    between atoms: N_5  and  C_6
REMARK                            x       y       z     vdW  Elec       q    Type
REMARK                         _______ _______ _______ _____ _____    ______ ____
ROOT
ATOM      1  C   UNL     1       6.470   5.760  16.307  0.00  0.00    +0.000 C 
ATOM      2  C   UNL     1       7.284   6.495  17.398  0.00  0.00    +0.000 C 
ATOM      3  C   UNL     1       7.198   5.640  18.672  0.00  0.00    +0.000 C 
ATOM      4  C   UNL     1       5.848   5.014  18.505  0.00  0.00    +0.000 A 
ATOM      5  C   UNL     1       5.077   4.373  19.462  0.00  0.00    +0.000 A 
ATOM      6  C   UNL     1       3.860   3.815  19.066  0.00  0.00    +0.000 A 
ATOM      7  C   UNL     1       3.439   3.893  17.724  0.00  0.00    +0.000 A 
ATOM      8  C   UNL     1       4.205   4.569  16.777  0.00  0.00    +0.000 A 
ATOM      9  C   UNL     1       5.426   5.100  17.170  0.00  0.00    +0.000 A 
ATOM     10  O   UNL     1       2.285   3.307  17.265  0.00  0.00    +0.000 OA
ATOM     11  C   UNL     1       1.800   2.333  18.196  0.00  0.00    +0.000 C 
ATOM     12  C   UNL     1       1.794   2.911  19.600  0.00  0.00    +0.000 C 
ATOM     13  O   UNL     1       3.129   3.183  20.042  0.00  0.00    +0.000 OA
ENDROOT
BRANCH   1  14
ATOM     14  N   UNL     1       7.325   4.795  15.598  0.00  0.00    +0.000 NA
ATOM     15  H   UNL     1       8.299   5.006  15.811  0.00  0.00    +0.000 HD
BRANCH  14  16
ATOM     16  C   UNL     1       7.137   4.867  14.146  0.00  0.00    +0.000 C 
BRANCH  16  17
ATOM     17  C   UNL     1       6.108   3.839  13.673  0.00  0.00    +0.000 C 
BRANCH  17  18
ATOM     18  C   UNL     1       6.341   3.475  12.210  0.00  0.00    +0.000 C 
BRANCH  18  19
ATOM     19  O   UNL     1       6.121   2.083  12.016  0.00  0.00    +0.000 OA
ATOM     20  H   UNL     1       5.801   1.968  11.106  0.00  0.00    +0.000 HD
ENDBRANCH  18  19
ENDBRANCH  17  18
ENDBRANCH  16  17
ENDBRANCH  14  16
ENDBRANCH   1  14
TORSDOF 5
ENDMDL
MODEL 2
REMARK VINA RESULT:      -6.9      2.697      3.760
REMARK  Name = 
REMARK  5 active torsions:
REMARK  status: ('A' for Active; 'I' for Inactive)
REMARK    1  A    between atoms: O_1  and  C_2
REMARK    2  A    between atoms: C_2  and  C_3
REMARK    3  A    between atoms: C_3  and  C_4
REMARK    4  A    between atoms: C_4  and  N_5
REMARK    5  A    between atoms: N_5  and  C_6
REMARK                            x       y       z     vdW  Elec       q    Type
REMARK                         _______ _______ _______ _____ _____    ______ ____
ROOT
ATOM      1  C   UNL     1       5.580   4.424  16.350  0.00  0.00    +0.000 C 
ATOM      2  C   UNL     1       5.238   5.785  15.697  0.00  0.00    +0.000 C 
ATOM      3  C   UNL     1       4.492   6.613  16.754  0.00  0.00    +0.000 C 
ATOM      4  C   UNL     1       3.804   5.533  17.530  0.00  0.00    +0.000 A 
ATOM      5  C   UNL     1       2.752   5.659  18.424  0.00  0.00    +0.000 A 
ATOM      6  C   UNL     1       2.299   4.511  19.076  0.00  0.00    +0.000 A 
ATOM      7  C   UNL     1       2.908   3.264  18.839  0.00  0.00    +0.000 A 
ATOM      8  C   UNL     1       3.941   3.143  17.914  0.00  0.00    +0.000 A 
ATOM      9  C   UNL     1       4.406   4.290  17.286  0.00  0.00    +0.000 A 
ATOM     10  O   UNL     1       2.547   2.115  19.500  0.00  0.00    +0.000 OA
ATOM     11  C   UNL     1       1.784   2.418  20.674  0.00  0.00    +0.000 C 
ATOM     12  C   UNL     1       0.692   3.420  20.342  0.00  0.00    +0.000 C 
ATOM     13  O   UNL     1       1.259   4.678  19.959  0.00  0.00    +0.000 OA
ENDROOT
BRANCH   1  14
ATOM     14  N   UNL     1       6.869   4.507  17.052  0.00  0.00    +0.000 NA
ATOM     15  H   UNL     1       6.721   4.266  18.032  0.00  0.00    +0.000 HD
BRANCH  14  16
ATOM     16  C   UNL     1       7.440   5.856  16.983  0.00  0.00    +0.000 C 
BRANCH  16  17
ATOM     17  C   UNL     1       7.767   6.387  18.379  0.00  0.00    +0.000 C 
BRANCH  17  18
ATOM     18  C   UNL     1       7.145   5.499  19.453  0.00  0.00    +0.000 C 
BRANCH  18  19
ATOM     19  O   UNL     1       7.997   5.447  20.591  0.00  0.00    +0.000 OA
ATOM     20  H   UNL     1       8.856   5.106  20.290  0.00  0.00    +0.000 HD
ENDBRANCH  18  19
ENDBRANCH  17  18
ENDBRANCH  16  17
ENDBRANCH  14  16
ENDBRANCH   1  14
TORSDOF 5
ENDMDL
MODEL 3
REMARK VINA RESULT:      -6.7      0.971      1.087
REMARK  Name = 
REMARK  5 active torsions:
REMARK  status: ('A' for Active; 'I' for Inactive)
REMARK    1  A    between atoms: O_1  and  C_2
REMARK    2  A    between atoms: C_2  and  C_3
REMARK    3  A    between atoms: C_3  and  C_4
REMARK    4  A    between atoms: C_4  and  N_5
REMARK    5  A    between atoms: N_5  and  C_6
REMARK                            x       y       z     vdW  Elec       q    Type
REMARK                         _______ _______ _______ _____ _____    ______ ____
ROOT
ATOM      1  C   UNL     1       5.760   4.736  15.634  0.00  0.00    +0.000 C 
ATOM      2  C   UNL     1       6.898   5.420  16.429  0.00  0.00    +0.000 C 
ATOM      3  C   UNL     1       6.987   4.706  17.787  0.00  0.00    +0.000 C 
ATOM      4  C   UNL     1       5.561   4.299  17.989  0.00  0.00    +0.000 A 
ATOM      5  C   UNL     1       4.947   3.879  19.160  0.00  0.00    +0.000 A 
ATOM      6  C   UNL     1       3.606   3.497  19.103  0.00  0.00    +0.000 A 
ATOM      7  C   UNL     1       2.904   3.525  17.883  0.00  0.00    +0.000 A 
ATOM      8  C   UNL     1       3.519   3.979  16.719  0.00  0.00    +0.000 A 
ATOM      9  C   UNL     1       4.860   4.335  16.775  0.00  0.00    +0.000 A 
ATOM     10  O   UNL     1       1.604   3.099  17.756  0.00  0.00    +0.000 OA
ATOM     11  C   UNL     1       1.213   2.304  18.881  0.00  0.00    +0.000 C 
ATOM     12  C   UNL     1       1.611   2.997  20.173  0.00  0.00    +0.000 C 
ATOM     13  O   UNL     1       3.037   3.083  20.283  0.00  0.00    +0.000 OA
ENDROOT
BRANCH   1  14
ATOM     14  N   UNL     1       6.285   3.585  14.884  0.00  0.00    +0.000 NA
ATOM     15  H   UNL     1       7.196   3.335  15.267  0.00  0.00    +0.000 HD
BRANCH  14  16
ATOM     16  C   UNL     1       6.445   3.893  13.459  0.00  0.00    +0.000 C 
BRANCH  16  17
ATOM     17  C   UNL     1       5.185   3.526  12.673  0.00  0.00    +0.000 C 
BRANCH  17  18
ATOM     18  C   UNL     1       5.502   2.494  11.596  0.00  0.00    +0.000 C 
BRANCH  18  19
ATOM     19  O   UNL     1       6.864   2.094  11.694  0.00  0.00    +0.000 OA
ATOM     20  H   UNL     1       7.084   2.057  12.640  0.00  0.00    +0.000 HD
ENDBRANCH  18  19
ENDBRANCH  17  18
ENDBRANCH  16  17
ENDBRANCH  14  16
ENDBRANCH   1  14
TORSDOF 5
ENDMDL
MODEL 4
REMARK VINA RESULT:      -6.6      2.636      6.195
REMARK  Name = 
REMARK  5 active torsions:
REMARK  status: ('A' for Active; 'I' for Inactive)
REMARK    1  A    between atoms: O_1  and  C_2
REMARK    2  A    between atoms: C_2  and  C_3
REMARK    3  A    between atoms: C_3  and  C_4
REMARK    4  A    between atoms: C_4  and  N_5
REMARK    5  A    between atoms: N_5  and  C_6
REMARK                            x       y       z     vdW  Elec       q    Type
REMARK                         _______ _______ _______ _____ _____    ______ ____
ROOT
ATOM      1  C   UNL     1       2.792   4.766  19.036  0.00  0.00    +0.000 C 
ATOM      2  C   UNL     1       2.749   6.218  19.568  0.00  0.00    +0.000 C 
ATOM      3  C   UNL     1       3.003   7.142  18.366  0.00  0.00    +0.000 C 
ATOM      4  C   UNL     1       3.891   6.278  17.526  0.00  0.00    +0.000 A 
ATOM      5  C   UNL     1       4.692   6.655  16.458  0.00  0.00    +0.000 A 
ATOM      6  C   UNL     1       5.403   5.662  15.782  0.00  0.00    +0.000 A 
ATOM      7  C   UNL     1       5.293   4.312  16.169  0.00  0.00    +0.000 A 
ATOM      8  C   UNL     1       4.512   3.948  17.263  0.00  0.00    +0.000 A 
ATOM      9  C   UNL     1       3.787   4.935  17.917  0.00  0.00    +0.000 A 
ATOM     10  O   UNL     1       5.917   3.288  15.500  0.00  0.00    +0.000 OA
ATOM     11  C   UNL     1       6.348   3.711  14.201  0.00  0.00    +0.000 C 
ATOM     12  C   UNL     1       7.074   5.041  14.301  0.00  0.00    +0.000 C 
ATOM     13  O   UNL     1       6.180   6.076  14.728  0.00  0.00    +0.000 OA
ENDROOT
BRANCH   1  14
ATOM     14  N   UNL     1       1.461   4.357  18.564  0.00  0.00    +0.000 NA
ATOM     15  H   UNL     1       0.782   5.059  18.858  0.00  0.00    +0.000 HD
BRANCH  14  16
ATOM     16  C   UNL     1       1.062   3.060  19.121  0.00  0.00    +0.000 C 
BRANCH  16  17
ATOM     17  C   UNL     1       0.742   3.177  20.612  0.00  0.00    +0.000 C 
BRANCH  17  18
ATOM     18  C   UNL     1       1.751   2.391  21.444  0.00  0.00    +0.000 C 
BRANCH  18  19
ATOM     19  O   UNL     1       2.423   3.266  22.342  0.00  0.00    +0.000 OA
ATOM     20  H   UNL     1       3.376   3.154  22.191  0.00  0.00    +0.000 HD
ENDBRANCH  18  19
ENDBRANCH  17  18
ENDBRANCH  16  17
ENDBRANCH  14  16
ENDBRANCH   1  14
TORSDOF 5
ENDMDL
MODEL 5
REMARK VINA RESULT:      -6.5      1.359      1.466
REMARK  Name = 
REMARK  5 active torsions:
REMARK  status: ('A' for Active; 'I' for Inactive)
REMARK    1  A    between atoms: O_1  and  C_2
REMARK    2  A    between atoms: C_2  and  C_3
REMARK    3  A    between atoms: C_3  and  C_4
REMARK    4  A    between atoms: C_4  and  N_5
REMARK    5  A    between atoms: N_5  and  C_6
REMARK                            x       y       z     vdW  Elec       q    Type
REMARK                         _______ _______ _______ _____ _____    ______ ____
ROOT
ATOM      1  C   UNL     1       5.755   5.027  15.933  0.00  0.00    +0.000 C 
ATOM      2  C   UNL     1       6.873   5.614  16.827  0.00  0.00    +0.000 C 
ATOM      3  C   UNL     1       6.926   4.753  18.099  0.00  0.00    +0.000 C 
ATOM      4  C   UNL     1       5.494   4.332  18.218  0.00  0.00    +0.000 A 
ATOM      5  C   UNL     1       4.850   3.788  19.319  0.00  0.00    +0.000 A 
ATOM      6  C   UNL     1       3.510   3.421  19.187  0.00  0.00    +0.000 A 
ATOM      7  C   UNL     1       2.839   3.587  17.960  0.00  0.00    +0.000 A 
ATOM      8  C   UNL     1       3.486   4.166  16.870  0.00  0.00    +0.000 A 
ATOM      9  C   UNL     1       4.825   4.506  16.998  0.00  0.00    +0.000 A 
ATOM     10  O   UNL     1       1.543   3.185  17.753  0.00  0.00    +0.000 OA
ATOM     11  C   UNL     1       1.122   2.271  18.773  0.00  0.00    +0.000 C 
ATOM     12  C   UNL     1       1.488   2.814  20.143  0.00  0.00    +0.000 C 
ATOM     13  O   UNL     1       2.910   2.881  20.298  0.00  0.00    +0.000 OA
ENDROOT
BRANCH   1  14
ATOM     14  N   UNL     1       6.297   3.964  15.073  0.00  0.00    +0.000 NA
ATOM     15  H   UNL     1       7.309   4.075  15.018  0.00  0.00    +0.000 HD
BRANCH  14  16
ATOM     16  C   UNL     1       5.744   4.030  13.716  0.00  0.00    +0.000 C 
BRANCH  16  17
ATOM     17  C   UNL     1       6.835   3.802  12.667  0.00  0.00    +0.000 C 
BRANCH  17  18
ATOM     18  C   UNL     1       7.551   5.109  12.341  0.00  0.00    +0.000 C 
BRANCH  18  19
ATOM     19  O   UNL     1       8.191   5.614  13.507  0.00  0.00    +0.000 OA
ATOM     20  H   UNL     1       7.505   5.720  14.187  0.00  0.00    +0.000 HD
ENDBRANCH  18  19
ENDBRANCH  17  18
ENDBRANCH  16  17
ENDBRANCH  14  16
ENDBRANCH   1  14
TORSDOF 5
ENDMDL
MODEL 6
REMARK VINA RESULT:      -6.5      2.795      5.830
REMARK  Name = 
REMARK  5 active torsions:
REMARK  status: ('A' for Active; 'I' for Inactive)
REMARK    1  A    between atoms: O_1  and  C_2
REMARK    2  A    between atoms: C_2  and  C_3
REMARK    3  A    between atoms: C_3  and  C_4
REMARK    4  A    between atoms: C_4  and  N_5
REMARK    5  A    between atoms: N_5  and  C_6
REMARK                            x       y       z     vdW  Elec       q    Type
REMARK                         _______ _______ _______ _____ _____    ______ ____
ROOT
ATOM      1  C   UNL     1       2.820   5.229  19.465  0.00  0.00    +0.000 C 
ATOM      2  C   UNL     1       2.628   6.738  19.751  0.00  0.00    +0.000 C 
ATOM      3  C   UNL     1       2.746   7.466  18.403  0.00  0.00    +0.000 C 
ATOM      4  C   UNL     1       3.702   6.572  17.678  0.00  0.00    +0.000 A 
ATOM      5  C   UNL     1       4.427   6.846  16.528  0.00  0.00    +0.000 A 
ATOM      6  C   UNL     1       5.227   5.834  15.994  0.00  0.00    +0.000 A 
ATOM      7  C   UNL     1       5.280   4.565  16.603  0.00  0.00    +0.000 A 
ATOM      8  C   UNL     1       4.573   4.311  17.776  0.00  0.00    +0.000 A 
ATOM      9  C   UNL     1       3.760   5.311  18.290  0.00  0.00    +0.000 A 
ATOM     10  O   UNL     1       5.997   3.514  16.086  0.00  0.00    +0.000 OA
ATOM     11  C   UNL     1       6.343   3.755  14.717  0.00  0.00    +0.000 C 
ATOM     12  C   UNL     1       6.917   5.152  14.563  0.00  0.00    +0.000 C 
ATOM     13  O   UNL     1       5.925   6.143  14.852  0.00  0.00    +0.000 OA
ENDROOT
BRANCH   1  14
ATOM     14  N   UNL     1       1.531   4.608  19.127  0.00  0.00    +0.000 NA
ATOM     15  H   UNL     1       0.921   5.320  18.727  0.00  0.00    +0.000 HD
BRANCH  14  16
ATOM     16  C   UNL     1       0.874   4.041  20.311  0.00  0.00    +0.000 C 
BRANCH  16  17
ATOM     17  C   UNL     1       1.460   2.672  20.661  0.00  0.00    +0.000 C 
BRANCH  17  18
ATOM     18  C   UNL     1       1.956   1.960  19.406  0.00  0.00    +0.000 C 
BRANCH  18  19
ATOM     19  O   UNL     1       0.870   1.739  18.514  0.00  0.00    +0.000 OA
ATOM     20  H   UNL     1       1.229   1.780  17.612  0.00  0.00    +0.000 HD
ENDBRANCH  18  19
ENDBRANCH  17  18
ENDBRANCH  16  17
ENDBRANCH  14  16
ENDBRANCH   1  14
TORSDOF 5
ENDMDL
MODEL 7
REMARK VINA RESULT:      -6.5      2.433      3.524
REMARK  Name = 
REMARK  5 active torsions:
REMARK  status: ('A' for Active; 'I' for Inactive)
REMARK    1  A    between atoms: O_1  and  C_2
REMARK    2  A    between atoms: C_2  and  C_3
REMARK    3  A    between atoms: C_3  and  C_4
REMARK    4  A    between atoms: C_4  and  N_5
REMARK    5  A    between atoms: N_5  and  C_6
REMARK                            x       y       z     vdW  Elec       q    Type
REMARK                         _______ _______ _______ _____ _____    ______ ____
ROOT
ATOM      1  C   UNL     1       5.745   4.146  16.229  0.00  0.00    +0.000 C 
ATOM      2  C   UNL     1       5.370   5.380  15.373  0.00  0.00    +0.000 C 
ATOM      3  C   UNL     1       4.667   6.375  16.308  0.00  0.00    +0.000 C 
ATOM      4  C   UNL     1       4.016   5.442  17.282  0.00  0.00    +0.000 A 
ATOM      5  C   UNL     1       3.003   5.718  18.186  0.00  0.00    +0.000 A 
ATOM      6  C   UNL     1       2.582   4.696  19.039  0.00  0.00    +0.000 A 
ATOM      7  C   UNL     1       3.186   3.425  18.988  0.00  0.00    +0.000 A 
ATOM      8  C   UNL     1       4.180   3.148  18.053  0.00  0.00    +0.000 A 
ATOM      9  C   UNL     1       4.613   4.174  17.223  0.00  0.00    +0.000 A 
ATOM     10  O   UNL     1       2.858   2.403  19.845  0.00  0.00    +0.000 OA
ATOM     11  C   UNL     1       2.144   2.900  20.984  0.00  0.00    +0.000 C 
ATOM     12  C   UNL     1       1.035   3.836  20.536  0.00  0.00    +0.000 C 
ATOM     13  O   UNL     1       1.580   5.011  19.925  0.00  0.00    +0.000 OA
ENDROOT
BRANCH   1  14
ATOM     14  N   UNL     1       7.062   4.341  16.853  0.00  0.00    +0.000 NA
ATOM     15  H   UNL     1       7.592   3.474  16.770  0.00  0.00    +0.000 HD
BRANCH  14  16
ATOM     16  C   UNL     1       6.945   4.685  18.274  0.00  0.00    +0.000 C 
BRANCH  16  17
ATOM     17  C   UNL     1       7.986   5.732  18.673  0.00  0.00    +0.000 C 
BRANCH  17  18
ATOM     18  C   UNL     1       7.607   7.105  18.127  0.00  0.00    +0.000 C 
BRANCH  18  19
ATOM     19  O   UNL     1       7.942   7.187  16.747  0.00  0.00    +0.000 OA
ATOM     20  H   UNL     1       8.219   8.103  16.574  0.00  0.00    +0.000 HD
ENDBRANCH  18  19
ENDBRANCH  17  18
ENDBRANCH  16  17
ENDBRANCH  14  16
ENDBRANCH   1  14
TORSDOF 5
ENDMDL
MODEL 8
REMARK VINA RESULT:      -6.4      1.596      1.698
REMARK  Name = 
REMARK  5 active torsions:
REMARK  status: ('A' for Active; 'I' for Inactive)
REMARK    1  A    between atoms: O_1  and  C_2
REMARK    2  A    between atoms: C_2  and  C_3
REMARK    3  A    between atoms: C_3  and  C_4
REMARK    4  A    between atoms: C_4  and  N_5
REMARK    5  A    between atoms: N_5  and  C_6
REMARK                            x       y       z     vdW  Elec       q    Type
REMARK                         _______ _______ _______ _____ _____    ______ ____
ROOT
ATOM      1  C   UNL     1       5.222   6.638  16.730  0.00  0.00    +0.000 C 
ATOM      2  C   UNL     1       6.574   6.746  17.476  0.00  0.00    +0.000 C 
ATOM      3  C   UNL     1       6.836   5.378  18.125  0.00  0.00    +0.000 C 
ATOM      4  C   UNL     1       5.437   4.917  18.393  0.00  0.00    +0.000 A 
ATOM      5  C   UNL     1       5.018   3.892  19.228  0.00  0.00    +0.000 A 
ATOM      6  C   UNL     1       3.654   3.602  19.285  0.00  0.00    +0.000 A 
ATOM      7  C   UNL     1       2.734   4.324  18.501  0.00  0.00    +0.000 A 
ATOM      8  C   UNL     1       3.161   5.374  17.692  0.00  0.00    +0.000 A 
ATOM      9  C   UNL     1       4.521   5.643  17.619  0.00  0.00    +0.000 A 
ATOM     10  O   UNL     1       1.391   4.040  18.468  0.00  0.00    +0.000 OA
ATOM     11  C   UNL     1       1.130   2.736  19.002  0.00  0.00    +0.000 C 
ATOM     12  C   UNL     1       1.863   2.557  20.320  0.00  0.00    +0.000 C 
ATOM     13  O   UNL     1       3.280   2.576  20.119  0.00  0.00    +0.000 OA
ENDROOT
BRANCH   1  14
ATOM     14  N   UNL     1       5.434   6.139  15.363  0.00  0.00    +0.000 NA
ATOM     15  H   UNL     1       4.849   6.680  14.726  0.00  0.00    +0.000 HD
BRANCH  14  16
ATOM     16  C   UNL     1       5.074   4.723  15.241  0.00  0.00    +0.000 C 
BRANCH  16  17
ATOM     17  C   UNL     1       6.216   3.918  14.618  0.00  0.00    +0.000 C 
BRANCH  17  18
ATOM     18  C   UNL     1       7.044   4.792  13.681  0.00  0.00    +0.000 C 
BRANCH  18  19
ATOM     19  O   UNL     1       8.009   5.523  14.428  0.00  0.00    +0.000 OA
ATOM     20  H   UNL     1       8.603   4.875  14.841  0.00  0.00    +0.000 HD
ENDBRANCH  18  19
ENDBRANCH  17  18
ENDBRANCH  16  17
ENDBRANCH  14  16
ENDBRANCH   1  14
TORSDOF 5
ENDMDL
MODEL 9
REMARK VINA RESULT:      -6.4      2.878      4.488
REMARK  Name = 
REMARK  5 active torsions:
REMARK  status: ('A' for Active; 'I' for Inactive)
REMARK    1  A    between atoms: O_1  and  C_2
REMARK    2  A    between atoms: C_2  and  C_3
REMARK    3  A    between atoms: C_3  and  C_4
REMARK    4  A    between atoms: C_4  and  N_5
REMARK    5  A    between atoms: N_5  and  C_6
REMARK                            x       y       z     vdW  Elec       q    Type
REMARK                         _______ _______ _______ _____ _____    ______ ____
ROOT
ATOM      1  C   UNL     1       6.785   5.287  17.730  0.00  0.00    +0.000 C 
ATOM      2  C   UNL     1       7.020   4.438  16.457  0.00  0.00    +0.000 C 
ATOM      3  C   UNL     1       5.646   4.221  15.805  0.00  0.00    +0.000 C 
ATOM      4  C   UNL     1       4.756   4.220  17.009  0.00  0.00    +0.000 A 
ATOM      5  C   UNL     1       3.446   3.776  17.105  0.00  0.00    +0.000 A 
ATOM      6  C   UNL     1       2.787   3.921  18.328  0.00  0.00    +0.000 A 
ATOM      7  C   UNL     1       3.437   4.516  19.426  0.00  0.00    +0.000 A 
ATOM      8  C   UNL     1       4.764   4.928  19.329  0.00  0.00    +0.000 A 
ATOM      9  C   UNL     1       5.407   4.805  18.105  0.00  0.00    +0.000 A 
ATOM     10  O   UNL     1       2.818   4.742  20.631  0.00  0.00    +0.000 OA
ATOM     11  C   UNL     1       1.394   4.656  20.500  0.00  0.00    +0.000 C 
ATOM     12  C   UNL     1       1.016   3.403  19.731  0.00  0.00    +0.000 C 
ATOM     13  O   UNL     1       1.489   3.474  18.381  0.00  0.00    +0.000 OA
ENDROOT
BRANCH   1  14
ATOM     14  N   UNL     1       6.823   6.720  17.400  0.00  0.00    +0.000 NA
ATOM     15  H   UNL     1       6.973   6.818  16.397  0.00  0.00    +0.000 HD
BRANCH  14  16
ATOM     16  C   UNL     1       7.908   7.410  18.106  0.00  0.00    +0.000 C 
BRANCH  16  17
ATOM     17  C   UNL     1       7.958   8.890  17.722  0.00  0.00    +0.000 C 
BRANCH  17  18
ATOM     18  C   UNL     1       8.850   9.668  18.685  0.00  0.00    +0.000 C 
BRANCH  18  19
ATOM     19  O   UNL     1       9.269  10.885  18.080  0.00  0.00    +0.000 OA
ATOM     20  H   UNL     1       8.901  11.610  18.613  0.00  0.00    +0.000 HD
ENDBRANCH  18  19
ENDBRANCH  17  18
ENDBRANCH  16  17
ENDBRANCH  14  16
ENDBRANCH   1  14
TORSDOF 5
ENDMDL
