MODEL 1
REMARK VINA RESULT:      -8.2      0.000      0.000
REMARK  Name = 
REMARK  6 active torsions:
REMARK  status: ('A' for Active; 'I' for Inactive)
REMARK    1  A    between atoms: C_1  and  C_2
REMARK    2  A    between atoms: C_5  and  C_6
REMARK    3  A    between atoms: C_6  and  O_7
REMARK    4  A    between atoms: O_7  and  C_8
REMARK    5  A    between atoms: C_13  and  C_14
REMARK    6  A    between atoms: C_14  and  N_15
REMARK                            x       y       z     vdW  Elec       q    Type
REMARK                         _______ _______ _______ _____ _____    ______ ____
ROOT
ATOM      1  C   UNL     1       1.556   7.906  20.356  0.00  0.00    +0.000 C 
ATOM      2  O   UNL     1       1.257   8.145  21.519  0.00  0.00    +0.000 OA
ATOM      3  N   UNL     1       1.932   6.653  19.898  0.00  0.00    +0.000 N 
ATOM      4  C   UNL     1       2.640   6.481  18.635  0.00  0.00    +0.000 C 
ATOM      5  C   UNL     1       2.247   5.185  17.940  0.00  0.00    +0.000 C 
ATOM      6  C   UNL     1       2.350   3.959  18.860  0.00  0.00    +0.000 C 
ATOM      7  C   UNL     1       1.565   4.233  20.158  0.00  0.00    +0.000 C 
ATOM      8  C   UNL     1       1.987   5.539  20.835  0.00  0.00    +0.000 C 
ENDROOT
BRANCH   1   9
ATOM      9  O   UNL     1       1.521   8.823  19.355  0.00  0.00    +0.000 OA
BRANCH   9  10
ATOM     10  C   UNL     1       1.067  10.136  19.696  0.00  0.00    +0.000 C 
BRANCH  10  15
ATOM     11  C   UNL     1      -4.018  11.164  17.042  0.00  0.00    +0.000 C 
ATOM     12  C   UNL     1      -2.695  10.906  17.699  0.00  0.00    +0.000 A 
ATOM     13  C   UNL     1      -1.788   9.983  17.164  0.00  0.00    +0.000 A 
ATOM     14  C   UNL     1      -0.567   9.738  17.798  0.00  0.00    +0.000 A 
ATOM     15  C   UNL     1      -0.230  10.413  18.979  0.00  0.00    +0.000 A 
ATOM     16  C   UNL     1      -1.133  11.346  19.504  0.00  0.00    +0.000 A 
ATOM     17  C   UNL     1      -2.354  11.588  18.871  0.00  0.00    +0.000 A 
ENDBRANCH  10  15
ENDBRANCH   9  10
ENDBRANCH   1   9
BRANCH   6  18
ATOM     18  C   UNL     1       3.796   3.551  19.185  0.00  0.00    +0.000 C 
BRANCH  18  19
ATOM     19  N   UNL     1       4.632   3.541  17.995  0.00  0.00    +0.000 N 
ATOM     20  C   UNL     1       5.691   4.447  18.085  0.00  0.00    +0.000 A 
ATOM     21  N   UNL     1       6.206   4.742  19.285  0.00  0.00    +0.000 NA
ATOM     22  C   UNL     1       7.181   5.660  19.329  0.00  0.00    +0.000 A 
ATOM     23  C   UNL     1       7.676   6.286  18.219  0.00  0.00    +0.000 A 
ATOM     24  C   UNL     1       7.095   5.913  17.030  0.00  0.00    +0.000 A 
ATOM     25  N   UNL     1       6.097   5.008  16.939  0.00  0.00    +0.000 NA
ATOM     26  H   UNL     1       4.176   3.763  17.115  0.00  0.00    +0.000 HD
ENDBRANCH  18  19
ENDBRANCH   6  18
TORSDOF 5
ENDMDL
MODEL 2
REMARK VINA RESULT:      -7.5      1.693      2.533
REMARK  Name = 
REMARK  6 active torsions:
REMARK  status: ('A' for Active; 'I' for Inactive)
REMARK    1  A    between atoms: C_1  and  C_2
REMARK    2  A    between atoms: C_5  and  C_6
REMARK    3  A    between atoms: C_6  and  O_7
REMARK    4  A    between atoms: O_7  and  C_8
REMARK    5  A    between atoms: C_13  and  C_14
REMARK    6  A    between atoms: C_14  and  N_15
REMARK                            x       y       z     vdW  Elec       q    Type
REMARK                         _______ _______ _______ _____ _____    ______ ____
ROOT
ATOM      1  C   UNL     1       1.667   7.945  20.323  0.00  0.00    +0.000 C 
ATOM      2  O   UNL     1       1.301   8.183  21.467  0.00  0.00    +0.000 OA
ATOM      3  N   UNL     1       1.996   6.679  19.865  0.00  0.00    +0.000 N 
ATOM      4  C   UNL     1       2.780   6.484  18.652  0.00  0.00    +0.000 C 
ATOM      5  C   UNL     1       2.357   5.228  17.903  0.00  0.00    +0.000 C 
ATOM      6  C   UNL     1       2.318   3.982  18.800  0.00  0.00    +0.000 C 
ATOM      7  C   UNL     1       1.461   4.283  20.047  0.00  0.00    +0.000 C 
ATOM      8  C   UNL     1       1.914   5.547  20.780  0.00  0.00    +0.000 C 
ENDROOT
BRANCH   1   9
ATOM      9  O   UNL     1       1.762   8.880  19.342  0.00  0.00    +0.000 OA
BRANCH   9  10
ATOM     10  C   UNL     1       0.590   9.657  19.074  0.00  0.00    +0.000 C 
BRANCH  10  15
ATOM     11  C   UNL     1       2.227  15.225  18.546  0.00  0.00    +0.000 C 
ATOM     12  C   UNL     1       1.778  13.799  18.670  0.00  0.00    +0.000 A 
ATOM     13  C   UNL     1       0.596  13.467  19.342  0.00  0.00    +0.000 A 
ATOM     14  C   UNL     1       0.200  12.132  19.466  0.00  0.00    +0.000 A 
ATOM     15  C   UNL     1       0.981  11.105  18.919  0.00  0.00    +0.000 A 
ATOM     16  C   UNL     1       2.157  11.441  18.236  0.00  0.00    +0.000 A 
ATOM     17  C   UNL     1       2.552  12.775  18.114  0.00  0.00    +0.000 A 
ENDBRANCH  10  15
ENDBRANCH   9  10
ENDBRANCH   1   9
BRANCH   6  18
ATOM     18  C   UNL     1       3.709   3.477  19.217  0.00  0.00    +0.000 C 
BRANCH  18  19
ATOM     19  N   UNL     1       4.602   3.360  18.075  0.00  0.00    +0.000 N 
ATOM     20  C   UNL     1       5.650   4.280  18.128  0.00  0.00    +0.000 A 
ATOM     21  N   UNL     1       6.104   4.696  19.317  0.00  0.00    +0.000 NA
ATOM     22  C   UNL     1       7.072   5.623  19.319  0.00  0.00    +0.000 A 
ATOM     23  C   UNL     1       7.617   6.144  18.178  0.00  0.00    +0.000 A 
ATOM     24  C   UNL     1       7.097   5.651  17.004  0.00  0.00    +0.000 A 
ATOM     25  N   UNL     1       6.109   4.732  16.954  0.00  0.00    +0.000 NA
ATOM     26  H   UNL     1       4.188   3.491  17.158  0.00  0.00    +0.000 HD
ENDBRANCH  18  19
ENDBRANCH   6  18
TORSDOF 5
ENDMDL
MODEL 3
REMARK VINA RESULT:      -7.4      5.024      8.329
REMARK  Name = 
REMARK  6 active torsions:
REMARK  status: ('A' for Active; 'I' for Inactive)
REMARK    1  A    between atoms: C_1  and  C_2
REMARK    2  A    between atoms: C_5  and  C_6
REMARK    3  A    between atoms: C_6  and  O_7
REMARK    4  A    between atoms: O_7  and  C_8
REMARK    5  A    between atoms: C_13  and  C_14
REMARK    6  A    between atoms: C_14  and  N_15
REMARK                            x       y       z     vdW  Elec       q    Type
REMARK                         _______ _______ _______ _____ _____    ______ ____
ROOT
ATOM      1  C   UNL     1       7.802   8.601  17.779  0.00  0.00    +0.000 C 
ATOM      2  O   UNL     1       7.251   9.501  17.157  0.00  0.00    +0.000 OA
ATOM      3  N   UNL     1       7.349   7.291  17.807  0.00  0.00    +0.000 N 
ATOM      4  C   UNL     1       7.781   6.354  18.836  0.00  0.00    +0.000 C 
ATOM      5  C   UNL     1       7.889   4.934  18.297  0.00  0.00    +0.000 C 
ATOM      6  C   UNL     1       6.620   4.478  17.561  0.00  0.00    +0.000 C 
ATOM      7  C   UNL     1       6.251   5.525  16.491  0.00  0.00    +0.000 C 
ATOM      8  C   UNL     1       6.145   6.939  17.065  0.00  0.00    +0.000 C 
ENDROOT
BRANCH   1   9
ATOM      9  O   UNL     1       8.950   8.756  18.490  0.00  0.00    +0.000 OA
BRANCH   9  10
ATOM     10  C   UNL     1       9.004   9.859  19.399  0.00  0.00    +0.000 C 
BRANCH  10  15
ATOM     11  C   UNL     1      11.856  14.333  16.989  0.00  0.00    +0.000 C 
ATOM     12  C   UNL     1      11.108  13.176  17.582  0.00  0.00    +0.000 A 
ATOM     13  C   UNL     1       9.714  13.091  17.491  0.00  0.00    +0.000 A 
ATOM     14  C   UNL     1       9.029  12.016  18.066  0.00  0.00    +0.000 A 
ATOM     15  C   UNL     1       9.728  11.007  18.742  0.00  0.00    +0.000 A 
ATOM     16  C   UNL     1      11.124  11.088  18.820  0.00  0.00    +0.000 A 
ATOM     17  C   UNL     1      11.807  12.162  18.247  0.00  0.00    +0.000 A 
ENDBRANCH  10  15
ENDBRANCH   9  10
ENDBRANCH   1   9
BRANCH   6  18
ATOM     18  C   UNL     1       5.425   4.220  18.492  0.00  0.00    +0.000 C 
BRANCH  18  19
ATOM     19  N   UNL     1       4.211   3.940  17.741  0.00  0.00    +0.000 N 
ATOM     20  C   UNL     1       3.096   3.807  18.571  0.00  0.00    +0.000 A 
ATOM     21  N   UNL     1       3.050   4.477  19.728  0.00  0.00    +0.000 NA
ATOM     22  C   UNL     1       1.988   4.274  20.519  0.00  0.00    +0.000 A 
ATOM     23  C   UNL     1       0.958   3.435  20.194  0.00  0.00    +0.000 A 
ATOM     24  C   UNL     1       1.084   2.797  18.982  0.00  0.00    +0.000 A 
ATOM     25  N   UNL     1       2.146   2.956  18.162  0.00  0.00    +0.000 NA
ATOM     26  H   UNL     1       4.211   3.101  17.170  0.00  0.00    +0.000 HD
ENDBRANCH  18  19
ENDBRANCH   6  18
TORSDOF 5
ENDMDL
MODEL 4
REMARK VINA RESULT:      -7.4      5.093      8.299
REMARK  Name = 
REMARK  6 active torsions:
REMARK  status: ('A' for Active; 'I' for Inactive)
REMARK    1  A    between atoms: C_1  and  C_2
REMARK    2  A    between atoms: C_5  and  C_6
REMARK    3  A    between atoms: C_6  and  O_7
REMARK    4  A    between atoms: O_7  and  C_8
REMARK    5  A    between atoms: C_13  and  C_14
REMARK    6  A    between atoms: C_14  and  N_15
REMARK                            x       y       z     vdW  Elec       q    Type
REMARK                         _______ _______ _______ _____ _____    ______ ____
ROOT
ATOM      1  C   UNL     1       7.981   8.803  17.839  0.00  0.00    +0.000 C 
ATOM      2  O   UNL     1       7.437   9.675  17.173  0.00  0.00    +0.000 OA
ATOM      3  N   UNL     1       7.521   7.498  17.927  0.00  0.00    +0.000 N 
ATOM      4  C   UNL     1       7.944   6.609  19.002  0.00  0.00    +0.000 C 
ATOM      5  C   UNL     1       8.047   5.165  18.531  0.00  0.00    +0.000 C 
ATOM      6  C   UNL     1       6.779   4.680  17.811  0.00  0.00    +0.000 C 
ATOM      7  C   UNL     1       6.420   5.676  16.691  0.00  0.00    +0.000 C 
ATOM      8  C   UNL     1       6.318   7.117  17.198  0.00  0.00    +0.000 C 
ENDROOT
BRANCH   1   9
ATOM      9  O   UNL     1       9.126   8.986  18.546  0.00  0.00    +0.000 OA
BRANCH   9  10
ATOM     10  C   UNL     1       9.144  10.071  19.479  0.00  0.00    +0.000 C 
BRANCH  10  15
ATOM     11  C   UNL     1      11.371  14.754  16.820  0.00  0.00    +0.000 C 
ATOM     12  C   UNL     1      10.823  13.548  17.522  0.00  0.00    +0.000 A 
ATOM     13  C   UNL     1      11.570  12.369  17.628  0.00  0.00    +0.000 A 
ATOM     14  C   UNL     1      11.038  11.246  18.269  0.00  0.00    +0.000 A 
ATOM     15  C   UNL     1       9.749  11.283  18.816  0.00  0.00    +0.000 A 
ATOM     16  C   UNL     1       9.009  12.468  18.720  0.00  0.00    +0.000 A 
ATOM     17  C   UNL     1       9.540  13.589  18.078  0.00  0.00    +0.000 A 
ENDBRANCH  10  15
ENDBRANCH   9  10
ENDBRANCH   1   9
BRANCH   6  18
ATOM     18  C   UNL     1       5.579   4.472  18.748  0.00  0.00    +0.000 C 
BRANCH  18  19
ATOM     19  N   UNL     1       5.098   3.100  18.709  0.00  0.00    +0.000 N 
ATOM     20  C   UNL     1       3.707   3.029  18.618  0.00  0.00    +0.000 A 
ATOM     21  N   UNL     1       3.036   4.011  18.004  0.00  0.00    +0.000 NA
ATOM     22  C   UNL     1       1.698   3.931  17.991  0.00  0.00    +0.000 A 
ATOM     23  C   UNL     1       1.001   2.898  18.556  0.00  0.00    +0.000 A 
ATOM     24  C   UNL     1       1.773   1.931  19.155  0.00  0.00    +0.000 A 
ATOM     25  N   UNL     1       3.122   1.980  19.209  0.00  0.00    +0.000 NA
ATOM     26  H   UNL     1       5.336   2.511  19.501  0.00  0.00    +0.000 HD
ENDBRANCH  18  19
ENDBRANCH   6  18
TORSDOF 5
ENDMDL
MODEL 5
REMARK VINA RESULT:      -7.4      2.935      8.648
REMARK  Name = 
REMARK  6 active torsions:
REMARK  status: ('A' for Active; 'I' for Inactive)
REMARK    1  A    between atoms: C_1  and  C_2
REMARK    2  A    between atoms: C_5  and  C_6
REMARK    3  A    between atoms: C_6  and  O_7
REMARK    4  A    between atoms: O_7  and  C_8
REMARK    5  A    between atoms: C_13  and  C_14
REMARK    6  A    between atoms: C_14  and  N_15
REMARK                            x       y       z     vdW  Elec       q    Type
REMARK                         _______ _______ _______ _____ _____    ______ ____
ROOT
ATOM      1  C   UNL     1       2.105   7.085  19.843  0.00  0.00    +0.000 C 
ATOM      2  O   UNL     1       1.935   6.363  20.818  0.00  0.00    +0.000 OA
ATOM      3  N   UNL     1       1.577   8.361  19.726  0.00  0.00    +0.000 N 
ATOM      4  C   UNL     1       1.467   9.028  18.434  0.00  0.00    +0.000 C 
ATOM      5  C   UNL     1       1.674  10.531  18.556  0.00  0.00    +0.000 C 
ATOM      6  C   UNL     1       0.792  11.169  19.640  0.00  0.00    +0.000 C 
ATOM      7  C   UNL     1       0.985  10.404  20.965  0.00  0.00    +0.000 C 
ATOM      8  C   UNL     1       0.764   8.898  20.810  0.00  0.00    +0.000 C 
ENDROOT
BRANCH   1   9
ATOM      9  O   UNL     1       2.863   6.749  18.768  0.00  0.00    +0.000 OA
BRANCH   9  10
ATOM     10  C   UNL     1       3.985   5.894  19.009  0.00  0.00    +0.000 C 
BRANCH  10  15
ATOM     11  C   UNL     1       6.062   4.186  13.839  0.00  0.00    +0.000 C 
ATOM     12  C   UNL     1       5.550   4.610  15.183  0.00  0.00    +0.000 A 
ATOM     13  C   UNL     1       5.276   3.671  16.184  0.00  0.00    +0.000 A 
ATOM     14  C   UNL     1       4.781   4.080  17.426  0.00  0.00    +0.000 A 
ATOM     15  C   UNL     1       4.552   5.437  17.689  0.00  0.00    +0.000 A 
ATOM     16  C   UNL     1       4.840   6.376  16.690  0.00  0.00    +0.000 A 
ATOM     17  C   UNL     1       5.333   5.966  15.450  0.00  0.00    +0.000 A 
ENDBRANCH  10  15
ENDBRANCH   9  10
ENDBRANCH   1   9
BRANCH   6  18
ATOM     18  C   UNL     1      -0.698  11.228  19.268  0.00  0.00    +0.000 C 
BRANCH  18  19
ATOM     19  N   UNL     1      -0.888  11.538  17.859  0.00  0.00    +0.000 N 
ATOM     20  C   UNL     1      -2.231  11.485  17.483  0.00  0.00    +0.000 A 
ATOM     21  N   UNL     1      -3.180  11.768  18.384  0.00  0.00    +0.000 NA
ATOM     22  C   UNL     1      -4.457  11.649  17.995  0.00  0.00    +0.000 A 
ATOM     23  C   UNL     1      -4.826  11.270  16.734  0.00  0.00    +0.000 A 
ATOM     24  C   UNL     1      -3.786  11.009  15.873  0.00  0.00    +0.000 A 
ATOM     25  N   UNL     1      -2.485  11.098  16.227  0.00  0.00    +0.000 NA
ATOM     26  H   UNL     1      -0.409  10.940  17.193  0.00  0.00    +0.000 HD
ENDBRANCH  18  19
ENDBRANCH   6  18
TORSDOF 5
ENDMDL
MODEL 6
REMARK VINA RESULT:      -7.3      2.925      8.650
REMARK  Name = 
REMARK  6 active torsions:
REMARK  status: ('A' for Active; 'I' for Inactive)
REMARK    1  A    between atoms: C_1  and  C_2
REMARK    2  A    between atoms: C_5  and  C_6
REMARK    3  A    between atoms: C_6  and  O_7
REMARK    4  A    between atoms: O_7  and  C_8
REMARK    5  A    between atoms: C_13  and  C_14
REMARK    6  A    between atoms: C_14  and  N_15
REMARK                            x       y       z     vdW  Elec       q    Type
REMARK                         _______ _______ _______ _____ _____    ______ ____
ROOT
ATOM      1  C   UNL     1       1.924   7.390  20.012  0.00  0.00    +0.000 C 
ATOM      2  O   UNL     1       1.732   6.709  21.012  0.00  0.00    +0.000 OA
ATOM      3  N   UNL     1       1.441   8.680  19.854  0.00  0.00    +0.000 N 
ATOM      4  C   UNL     1       1.350   9.305  18.540  0.00  0.00    +0.000 C 
ATOM      5  C   UNL     1       1.610  10.804  18.610  0.00  0.00    +0.000 C 
ATOM      6  C   UNL     1       0.755  11.509  19.674  0.00  0.00    +0.000 C 
ATOM      7  C   UNL     1       0.925  10.783  21.023  0.00  0.00    +0.000 C 
ATOM      8  C   UNL     1       0.651   9.281  20.921  0.00  0.00    +0.000 C 
ENDROOT
BRANCH   1   9
ATOM      9  O   UNL     1       2.666   6.991  18.947  0.00  0.00    +0.000 OA
BRANCH   9  10
ATOM     10  C   UNL     1       3.454   5.808  19.114  0.00  0.00    +0.000 C 
BRANCH  10  15
ATOM     11  C   UNL     1       6.292   4.544  14.184  0.00  0.00    +0.000 C 
ATOM     12  C   UNL     1       5.541   4.886  15.436  0.00  0.00    +0.000 A 
ATOM     13  C   UNL     1       5.253   6.215  15.769  0.00  0.00    +0.000 A 
ATOM     14  C   UNL     1       4.569   6.519  16.950  0.00  0.00    +0.000 A 
ATOM     15  C   UNL     1       4.161   5.498  17.819  0.00  0.00    +0.000 A 
ATOM     16  C   UNL     1       4.439   4.169  17.476  0.00  0.00    +0.000 A 
ATOM     17  C   UNL     1       5.123   3.866  16.298  0.00  0.00    +0.000 A 
ENDBRANCH  10  15
ENDBRANCH   9  10
ENDBRANCH   1   9
BRANCH   6  18
ATOM     18  C   UNL     1      -0.734  11.608  19.303  0.00  0.00    +0.000 C 
BRANCH  18  19
ATOM     19  N   UNL     1      -0.919  11.829  17.878  0.00  0.00    +0.000 N 
ATOM     20  C   UNL     1      -2.239  11.618  17.477  0.00  0.00    +0.000 A 
ATOM     21  N   UNL     1      -3.235  11.841  18.343  0.00  0.00    +0.000 NA
ATOM     22  C   UNL     1      -4.482  11.569  17.934  0.00  0.00    +0.000 A 
ATOM     23  C   UNL     1      -4.778  11.096  16.686  0.00  0.00    +0.000 A 
ATOM     24  C   UNL     1      -3.694  10.906  15.861  0.00  0.00    +0.000 A 
ATOM     25  N   UNL     1      -2.419  11.148  16.237  0.00  0.00    +0.000 NA
ATOM     26  H   UNL     1      -0.363  11.256  17.252  0.00  0.00    +0.000 HD
ENDBRANCH  18  19
ENDBRANCH   6  18
TORSDOF 5
ENDMDL
MODEL 7
REMARK VINA RESULT:      -7.3      3.159      7.715
REMARK  Name = 
REMARK  6 active torsions:
REMARK  status: ('A' for Active; 'I' for Inactive)
REMARK    1  A    between atoms: C_1  and  C_2
REMARK    2  A    between atoms: C_5  and  C_6
REMARK    3  A    between atoms: C_6  and  O_7
REMARK    4  A    between atoms: O_7  and  C_8
REMARK    5  A    between atoms: C_13  and  C_14
REMARK    6  A    between atoms: C_14  and  N_15
REMARK                            x       y       z     vdW  Elec       q    Type
REMARK                         _______ _______ _______ _____ _____    ______ ____
ROOT
ATOM      1  C   UNL     1       2.239   3.407  17.748  0.00  0.00    +0.000 C 
ATOM      2  O   UNL     1       1.667   2.330  17.869  0.00  0.00    +0.000 OA
ATOM      3  N   UNL     1       2.142   4.439  18.668  0.00  0.00    +0.000 N 
ATOM      4  C   UNL     1       2.502   5.809  18.322  0.00  0.00    +0.000 C 
ATOM      5  C   UNL     1       3.109   6.549  19.506  0.00  0.00    +0.000 C 
ATOM      6  C   UNL     1       2.247   6.455  20.774  0.00  0.00    +0.000 C 
ATOM      7  C   UNL     1       1.929   4.974  21.062  0.00  0.00    +0.000 C 
ATOM      8  C   UNL     1       1.315   4.260  19.855  0.00  0.00    +0.000 C 
ENDROOT
BRANCH   1   9
ATOM      9  O   UNL     1       3.071   3.718  16.721  0.00  0.00    +0.000 OA
BRANCH   9  10
ATOM     10  C   UNL     1       4.432   3.291  16.840  0.00  0.00    +0.000 C 
BRANCH  10  15
ATOM     11  C   UNL     1       7.784   7.983  17.685  0.00  0.00    +0.000 C 
ATOM     12  C   UNL     1       6.932   6.773  17.439  0.00  0.00    +0.000 A 
ATOM     13  C   UNL     1       6.065   6.708  16.342  0.00  0.00    +0.000 A 
ATOM     14  C   UNL     1       5.263   5.582  16.137  0.00  0.00    +0.000 A 
ATOM     15  C   UNL     1       5.315   4.499  17.025  0.00  0.00    +0.000 A 
ATOM     16  C   UNL     1       6.194   4.562  18.114  0.00  0.00    +0.000 A 
ATOM     17  C   UNL     1       6.993   5.688  18.319  0.00  0.00    +0.000 A 
ENDBRANCH  10  15
ENDBRANCH   9  10
ENDBRANCH   1   9
BRANCH   6  18
ATOM     18  C   UNL     1       0.950   7.276  20.701  0.00  0.00    +0.000 C 
BRANCH  18  19
ATOM     19  N   UNL     1       1.216   8.676  20.406  0.00  0.00    +0.000 N 
ATOM     20  C   UNL     1       0.487   9.537  21.227  0.00  0.00    +0.000 A 
ATOM     21  N   UNL     1       0.154   9.146  22.463  0.00  0.00    +0.000 NA
ATOM     22  C   UNL     1      -0.596   9.982  23.194  0.00  0.00    +0.000 A 
ATOM     23  C   UNL     1      -1.017  11.203  22.745  0.00  0.00    +0.000 A 
ATOM     24  C   UNL     1      -0.619  11.525  21.469  0.00  0.00    +0.000 A 
ATOM     25  N   UNL     1       0.119  10.707  20.689  0.00  0.00    +0.000 NA
ATOM     26  H   UNL     1       1.017   8.988  19.461  0.00  0.00    +0.000 HD
ENDBRANCH  18  19
ENDBRANCH   6  18
TORSDOF 5
ENDMDL
MODEL 8
REMARK VINA RESULT:      -7.3      1.104      1.675
REMARK  Name = 
REMARK  6 active torsions:
REMARK  status: ('A' for Active; 'I' for Inactive)
REMARK    1  A    between atoms: C_1  and  C_2
REMARK    2  A    between atoms: C_5  and  C_6
REMARK    3  A    between atoms: C_6  and  O_7
REMARK    4  A    between atoms: O_7  and  C_8
REMARK    5  A    between atoms: C_13  and  C_14
REMARK    6  A    between atoms: C_14  and  N_15
REMARK                            x       y       z     vdW  Elec       q    Type
REMARK                         _______ _______ _______ _____ _____    ______ ____
ROOT
ATOM      1  C   UNL     1       1.188   8.693  20.833  0.00  0.00    +0.000 C 
ATOM      2  O   UNL     1       0.880   8.753  22.017  0.00  0.00    +0.000 OA
ATOM      3  N   UNL     1       1.695   7.556  20.224  0.00  0.00    +0.000 N 
ATOM      4  C   UNL     1       2.400   7.621  18.950  0.00  0.00    +0.000 C 
ATOM      5  C   UNL     1       2.144   6.384  18.099  0.00  0.00    +0.000 C 
ATOM      6  C   UNL     1       2.395   5.074  18.860  0.00  0.00    +0.000 C 
ATOM      7  C   UNL     1       1.603   5.097  20.183  0.00  0.00    +0.000 C 
ATOM      8  C   UNL     1       1.887   6.348  21.017  0.00  0.00    +0.000 C 
ENDROOT
BRANCH   1   9
ATOM      9  O   UNL     1       1.038   9.717  19.953  0.00  0.00    +0.000 OA
BRANCH   9  10
ATOM     10  C   UNL     1       0.044  10.698  20.266  0.00  0.00    +0.000 C 
BRANCH  10  15
ATOM     11  C   UNL     1      -3.830  10.851  15.914  0.00  0.00    +0.000 C 
ATOM     12  C   UNL     1      -2.856  10.807  17.054  0.00  0.00    +0.000 A 
ATOM     13  C   UNL     1      -3.019  11.623  18.179  0.00  0.00    +0.000 A 
ATOM     14  C   UNL     1      -2.092  11.584  19.225  0.00  0.00    +0.000 A 
ATOM     15  C   UNL     1      -0.985  10.727  19.164  0.00  0.00    +0.000 A 
ATOM     16  C   UNL     1      -0.832   9.902  18.042  0.00  0.00    +0.000 A 
ATOM     17  C   UNL     1      -1.757   9.943  16.998  0.00  0.00    +0.000 A 
ENDBRANCH  10  15
ENDBRANCH   9  10
ENDBRANCH   1   9
BRANCH   6  18
ATOM     18  C   UNL     1       3.882   4.794  19.133  0.00  0.00    +0.000 C 
BRANCH  18  19
ATOM     19  N   UNL     1       4.395   3.737  18.274  0.00  0.00    +0.000 N 
ATOM     20  C   UNL     1       5.318   4.215  17.343  0.00  0.00    +0.000 A 
ATOM     21  N   UNL     1       6.069   5.281  17.645  0.00  0.00    +0.000 NA
ATOM     22  C   UNL     1       6.900   5.740  16.699  0.00  0.00    +0.000 A 
ATOM     23  C   UNL     1       7.023   5.166  15.464  0.00  0.00    +0.000 A 
ATOM     24  C   UNL     1       6.222   4.070  15.246  0.00  0.00    +0.000 A 
ATOM     25  N   UNL     1       5.356   3.585  16.162  0.00  0.00    +0.000 NA
ATOM     26  H   UNL     1       3.712   3.226  17.724  0.00  0.00    +0.000 HD
ENDBRANCH  18  19
ENDBRANCH   6  18
TORSDOF 5
ENDMDL
MODEL 9
REMARK VINA RESULT:      -7.3      1.114      1.784
REMARK  Name = 
REMARK  6 active torsions:
REMARK  status: ('A' for Active; 'I' for Inactive)
REMARK    1  A    between atoms: C_1  and  C_2
REMARK    2  A    between atoms: C_5  and  C_6
REMARK    3  A    between atoms: C_6  and  O_7
REMARK    4  A    between atoms: O_7  and  C_8
REMARK    5  A    between atoms: C_13  and  C_14
REMARK    6  A    between atoms: C_14  and  N_15
REMARK                            x       y       z     vdW  Elec       q    Type
REMARK                         _______ _______ _______ _____ _____    ______ ____
ROOT
ATOM      1  C   UNL     1       1.784   8.028  20.028  0.00  0.00    +0.000 C 
ATOM      2  O   UNL     1       1.377   8.365  21.134  0.00  0.00    +0.000 OA
ATOM      3  N   UNL     1       2.072   6.718  19.678  0.00  0.00    +0.000 N 
ATOM      4  C   UNL     1       2.901   6.401  18.522  0.00  0.00    +0.000 C 
ATOM      5  C   UNL     1       2.454   5.113  17.844  0.00  0.00    +0.000 C 
ATOM      6  C   UNL     1       2.315   3.939  18.825  0.00  0.00    +0.000 C 
ATOM      7  C   UNL     1       1.417   4.368  20.003  0.00  0.00    +0.000 C 
ATOM      8  C   UNL     1       1.896   5.662  20.666  0.00  0.00    +0.000 C 
ENDROOT
BRANCH   1   9
ATOM      9  O   UNL     1       1.967   8.883  18.989  0.00  0.00    +0.000 OA
BRANCH   9  10
ATOM     10  C   UNL     1       0.805   9.240  18.232  0.00  0.00    +0.000 C 
BRANCH  10  15
ATOM     11  C   UNL     1      -0.927  14.512  20.012  0.00  0.00    +0.000 C 
ATOM     12  C   UNL     1      -0.503  13.155  19.532  0.00  0.00    +0.000 A 
ATOM     13  C   UNL     1      -1.424  12.108  19.413  0.00  0.00    +0.000 A 
ATOM     14  C   UNL     1      -1.010  10.844  18.983  0.00  0.00    +0.000 A 
ATOM     15  C   UNL     1       0.334  10.605  18.663  0.00  0.00    +0.000 A 
ATOM     16  C   UNL     1       1.250  11.659  18.771  0.00  0.00    +0.000 A 
ATOM     17  C   UNL     1       0.836  12.921  19.203  0.00  0.00    +0.000 A 
ENDBRANCH  10  15
ENDBRANCH   9  10
ENDBRANCH   1   9
BRANCH   6  18
ATOM     18  C   UNL     1       3.660   3.406  19.345  0.00  0.00    +0.000 C 
BRANCH  18  19
ATOM     19  N   UNL     1       4.594   3.156  18.258  0.00  0.00    +0.000 N 
ATOM     20  C   UNL     1       5.625   4.096  18.221  0.00  0.00    +0.000 A 
ATOM     21  N   UNL     1       6.030   4.676  19.357  0.00  0.00    +0.000 NA
ATOM     22  C   UNL     1       6.982   5.615  19.266  0.00  0.00    +0.000 A 
ATOM     23  C   UNL     1       7.559   5.989  18.083  0.00  0.00    +0.000 A 
ATOM     24  C   UNL     1       7.088   5.334  16.970  0.00  0.00    +0.000 A 
ATOM     25  N   UNL     1       6.117   4.396  17.012  0.00  0.00    +0.000 NA
ATOM     26  H   UNL     1       4.210   3.155  17.318  0.00  0.00    +0.000 HD
ENDBRANCH  18  19
ENDBRANCH   6  18
TORSDOF 5
ENDMDL
