MODEL 1
REMARK VINA RESULT:      -9.2      0.000      0.000
REMARK  Name = 
REMARK  11 active torsions:
REMARK  status: ('A' for Active; 'I' for Inactive)
REMARK    1  A    between atoms: C_1  and  C_2
REMARK    2  A    between atoms: C_2  and  C_3
REMARK    3  A    between atoms: C_3  and  C_4
REMARK    4  A    between atoms: C_4  and  N_5
REMARK    5  A    between atoms: C_6  and  C_8
REMARK    6  A    between atoms: C_12  and  N_13
REMARK    7  A    between atoms: N_15  and  C_16
REMARK    8  A    between atoms: C_19  and  C_20
REMARK    9  A    between atoms: C_25  and  O_26
REMARK   10  A    between atoms: O_26  and  C_27
REMARK   11  A    between atoms: N_29  and  C_30
REMARK                            x       y       z     vdW  Elec       q    Type
REMARK                         _______ _______ _______ _____ _____    ______ ____
ROOT
ATOM      1  N   UNL     1       3.637   4.281  18.208  0.00  0.00    +0.000 N 
ATOM      2  C   UNL     1       2.723   5.271  18.511  0.00  0.00    +0.000 C 
ATOM      3  N   UNL     1       3.068   6.524  18.421  0.00  0.00    +0.000 NA
ATOM      4  N   UNL     1       1.473   4.778  18.809  0.00  0.00    +0.000 N 
ATOM      5  H   UNL     1       3.268   3.355  18.035  0.00  0.00    +0.000 HD
ATOM      6  H   UNL     1       0.749   5.470  18.939  0.00  0.00    +0.000 HD
ENDROOT
BRANCH   1  11
ATOM      7  C   UNL     1       6.538   4.610  15.857  0.00  0.00    +0.000 A 
ATOM      8  C   UNL     1       7.589   4.692  16.771  0.00  0.00    +0.000 A 
ATOM      9  C   UNL     1       7.325   4.679  18.140  0.00  0.00    +0.000 A 
ATOM     10  C   UNL     1       6.009   4.567  18.598  0.00  0.00    +0.000 A 
ATOM     11  C   UNL     1       4.940   4.471  17.698  0.00  0.00    +0.000 A 
ATOM     12  C   UNL     1       5.225   4.500  16.327  0.00  0.00    +0.000 A 
BRANCH   7  14
ATOM     13  N   UNL     1       6.164   3.635  13.656  0.00  0.00    +0.000 N 
ATOM     14  C   UNL     1       6.836   4.583  14.398  0.00  0.00    +0.000 C 
ATOM     15  O   UNL     1       7.630   5.386  13.921  0.00  0.00    +0.000 OA
ATOM     16  H   UNL     1       5.494   3.024  14.102  0.00  0.00    +0.000 HD
BRANCH  13  17
ATOM     17  C   UNL     1       6.412   3.436  12.243  0.00  0.00    +0.000 C 
BRANCH  17  18
ATOM     18  C   UNL     1       5.667   2.222  11.686  0.00  0.00    +0.000 C 
BRANCH  18  20
ATOM     19  C   UNL     1       6.100  -0.231  11.264  0.00  0.00    +0.000 C 
ATOM     20  C   UNL     1       6.609   1.188  11.064  0.00  0.00    +0.000 C 
ENDBRANCH  18  20
ENDBRANCH  17  18
ENDBRANCH  13  17
ENDBRANCH   7  14
ENDBRANCH   1  11
BRANCH   3  21
ATOM     21  C   UNL     1       2.300   7.643  18.719  0.00  0.00    +0.000 A 
ATOM     22  C   UNL     1       2.073   8.580  17.710  0.00  0.00    +0.000 A 
ATOM     23  C   UNL     1       1.343   9.741  17.974  0.00  0.00    +0.000 A 
ATOM     24  C   UNL     1       0.794   9.971  19.246  0.00  0.00    +0.000 A 
ATOM     25  C   UNL     1       1.086   9.056  20.280  0.00  0.00    +0.000 A 
ATOM     26  C   UNL     1       1.881   7.939  20.011  0.00  0.00    +0.000 A 
BRANCH  24  27
ATOM     27  C   UNL     1      -0.097  11.106  19.449  0.00  0.00    +0.000 A 
ATOM     28  C   UNL     1       0.060  12.423  19.825  0.00  0.00    +0.000 A 
ATOM     29  N   UNL     1      -1.159  13.046  19.918  0.00  0.00    +0.000 NA
ATOM     30  C   UNL     1      -2.005  12.097  19.594  0.00  0.00    +0.000 A 
ATOM     31  O   UNL     1      -1.445  10.892  19.296  0.00  0.00    +0.000 OA
ENDBRANCH  24  27
BRANCH  25  32
ATOM     32  O   UNL     1       0.569   9.313  21.526  0.00  0.00    +0.000 OA
ATOM     33  C   UNL     1      -0.490   8.476  21.980  0.00  0.00    +0.000 C 
ENDBRANCH  25  32
ENDBRANCH   3  21
BRANCH   4  34
ATOM     34  C   UNL     1       1.365   3.608  19.658  0.00  0.00    +0.000 C 
ATOM     35  N   UNL     1       1.249   2.685  20.341  0.00  0.00    +0.000 NA
ENDBRANCH   4  34
TORSDOF 9
ENDMDL
MODEL 2
REMARK VINA RESULT:      -9.1      0.775      1.085
REMARK  Name = 
REMARK  11 active torsions:
REMARK  status: ('A' for Active; 'I' for Inactive)
REMARK    1  A    between atoms: C_1  and  C_2
REMARK    2  A    between atoms: C_2  and  C_3
REMARK    3  A    between atoms: C_3  and  C_4
REMARK    4  A    between atoms: C_4  and  N_5
REMARK    5  A    between atoms: C_6  and  C_8
REMARK    6  A    between atoms: C_12  and  N_13
REMARK    7  A    between atoms: N_15  and  C_16
REMARK    8  A    between atoms: C_19  and  C_20
REMARK    9  A    between atoms: C_25  and  O_26
REMARK   10  A    between atoms: O_26  and  C_27
REMARK   11  A    between atoms: N_29  and  C_30
REMARK                            x       y       z     vdW  Elec       q    Type
REMARK                         _______ _______ _______ _____ _____    ______ ____
ROOT
ATOM      1  N   UNL     1       3.725   4.260  18.335  0.00  0.00    +0.000 N 
ATOM      2  C   UNL     1       2.784   5.228  18.624  0.00  0.00    +0.000 C 
ATOM      3  N   UNL     1       3.093   6.489  18.516  0.00  0.00    +0.000 NA
ATOM      4  N   UNL     1       1.548   4.704  18.931  0.00  0.00    +0.000 N 
ATOM      5  H   UNL     1       3.382   3.322  18.175  0.00  0.00    +0.000 HD
ATOM      6  H   UNL     1       0.805   5.377  19.051  0.00  0.00    +0.000 HD
ENDROOT
BRANCH   1  11
ATOM      7  C   UNL     1       6.616   4.627  15.978  0.00  0.00    +0.000 A 
ATOM      8  C   UNL     1       7.663   4.762  16.889  0.00  0.00    +0.000 A 
ATOM      9  C   UNL     1       7.399   4.771  18.259  0.00  0.00    +0.000 A 
ATOM     10  C   UNL     1       6.086   4.628  18.719  0.00  0.00    +0.000 A 
ATOM     11  C   UNL     1       5.022   4.479  17.821  0.00  0.00    +0.000 A 
ATOM     12  C   UNL     1       5.307   4.487  16.450  0.00  0.00    +0.000 A 
BRANCH   7  14
ATOM     13  N   UNL     1       6.244   3.619  13.791  0.00  0.00    +0.000 N 
ATOM     14  C   UNL     1       6.916   4.578  14.520  0.00  0.00    +0.000 C 
ATOM     15  O   UNL     1       7.711   5.373  14.032  0.00  0.00    +0.000 OA
ATOM     16  H   UNL     1       5.573   3.016  14.246  0.00  0.00    +0.000 HD
BRANCH  13  17
ATOM     17  C   UNL     1       6.493   3.398  12.381  0.00  0.00    +0.000 C 
BRANCH  17  18
ATOM     18  C   UNL     1       5.309   2.736  11.677  0.00  0.00    +0.000 C 
BRANCH  18  20
ATOM     19  C   UNL     1       3.182   3.097  10.363  0.00  0.00    +0.000 C 
ATOM     20  C   UNL     1       4.252   3.748  11.224  0.00  0.00    +0.000 C 
ENDBRANCH  18  20
ENDBRANCH  17  18
ENDBRANCH  13  17
ENDBRANCH   7  14
ENDBRANCH   1  11
BRANCH   3  21
ATOM     21  C   UNL     1       2.294   7.590  18.799  0.00  0.00    +0.000 A 
ATOM     22  C   UNL     1       2.141   8.568  17.817  0.00  0.00    +0.000 A 
ATOM     23  C   UNL     1       1.382   9.714  18.070  0.00  0.00    +0.000 A 
ATOM     24  C   UNL     1       0.731   9.885  19.302  0.00  0.00    +0.000 A 
ATOM     25  C   UNL     1       0.947   8.928  20.317  0.00  0.00    +0.000 A 
ATOM     26  C   UNL     1       1.771   7.827  20.065  0.00  0.00    +0.000 A 
BRANCH  24  27
ATOM     27  C   UNL     1      -0.183  11.006  19.481  0.00  0.00    +0.000 A 
ATOM     28  C   UNL     1      -0.071  12.302  19.937  0.00  0.00    +0.000 A 
ATOM     29  N   UNL     1      -1.298  12.916  19.951  0.00  0.00    +0.000 NA
ATOM     30  C   UNL     1      -2.104  11.983  19.502  0.00  0.00    +0.000 A 
ATOM     31  O   UNL     1      -1.510  10.797  19.195  0.00  0.00    +0.000 OA
ENDBRANCH  24  27
BRANCH  25  32
ATOM     32  O   UNL     1       0.329   9.128  21.527  0.00  0.00    +0.000 OA
ATOM     33  C   UNL     1       1.163   9.373  22.655  0.00  0.00    +0.000 C 
ENDBRANCH  25  32
ENDBRANCH   3  21
BRANCH   4  34
ATOM     34  C   UNL     1       1.473   3.545  19.797  0.00  0.00    +0.000 C 
ATOM     35  N   UNL     1       1.443   2.615  20.481  0.00  0.00    +0.000 NA
ENDBRANCH   4  34
TORSDOF 9
ENDMDL
MODEL 3
REMARK VINA RESULT:      -8.4      1.176      1.902
REMARK  Name = 
REMARK  11 active torsions:
REMARK  status: ('A' for Active; 'I' for Inactive)
REMARK    1  A    between atoms: C_1  and  C_2
REMARK    2  A    between atoms: C_2  and  C_3
REMARK    3  A    between atoms: C_3  and  C_4
REMARK    4  A    between atoms: C_4  and  N_5
REMARK    5  A    between atoms: C_6  and  C_8
REMARK    6  A    between atoms: C_12  and  N_13
REMARK    7  A    between atoms: N_15  and  C_16
REMARK    8  A    between atoms: C_19  and  C_20
REMARK    9  A    between atoms: C_25  and  O_26
REMARK   10  A    between atoms: O_26  and  C_27
REMARK   11  A    between atoms: N_29  and  C_30
REMARK                            x       y       z     vdW  Elec       q    Type
REMARK                         _______ _______ _______ _____ _____    ______ ____
ROOT
ATOM      1  N   UNL     1       3.518   4.417  18.546  0.00  0.00    +0.000 N 
ATOM      2  C   UNL     1       2.607   5.360  18.981  0.00  0.00    +0.000 C 
ATOM      3  N   UNL     1       2.961   6.610  19.078  0.00  0.00    +0.000 NA
ATOM      4  N   UNL     1       1.350   4.839  19.193  0.00  0.00    +0.000 N 
ATOM      5  H   UNL     1       3.144   3.530  18.236  0.00  0.00    +0.000 HD
ATOM      6  H   UNL     1       0.630   5.510  19.415  0.00  0.00    +0.000 HD
ENDROOT
BRANCH   1  11
ATOM      7  C   UNL     1       6.491   4.836  16.302  0.00  0.00    +0.000 A 
ATOM      8  C   UNL     1       7.494   5.021  17.253  0.00  0.00    +0.000 A 
ATOM      9  C   UNL     1       7.173   5.045  18.610  0.00  0.00    +0.000 A 
ATOM     10  C   UNL     1       5.848   4.869  19.019  0.00  0.00    +0.000 A 
ATOM     11  C   UNL     1       4.827   4.669  18.082  0.00  0.00    +0.000 A 
ATOM     12  C   UNL     1       5.168   4.662  16.723  0.00  0.00    +0.000 A 
BRANCH   7  14
ATOM     13  N   UNL     1       6.127   3.886  14.089  0.00  0.00    +0.000 N 
ATOM     14  C   UNL     1       6.852   4.770  14.859  0.00  0.00    +0.000 C 
ATOM     15  O   UNL     1       7.742   5.489  14.418  0.00  0.00    +0.000 OA
ATOM     16  H   UNL     1       5.381   3.346  14.504  0.00  0.00    +0.000 HD
BRANCH  13  17
ATOM     17  C   UNL     1       6.420   3.653  12.689  0.00  0.00    +0.000 C 
BRANCH  17  18
ATOM     18  C   UNL     1       5.247   3.011  11.948  0.00  0.00    +0.000 C 
BRANCH  18  20
ATOM     19  C   UNL     1       7.145   1.580  11.091  0.00  0.00    +0.000 C 
ATOM     20  C   UNL     1       5.638   1.707  11.246  0.00  0.00    +0.000 C 
ENDBRANCH  18  20
ENDBRANCH  17  18
ENDBRANCH  13  17
ENDBRANCH   7  14
ENDBRANCH   1  11
BRANCH   3  21
ATOM     21  C   UNL     1       2.197   7.680  19.529  0.00  0.00    +0.000 A 
ATOM     22  C   UNL     1       1.592   7.581  20.782  0.00  0.00    +0.000 A 
ATOM     23  C   UNL     1       0.779   8.612  21.259  0.00  0.00    +0.000 A 
ATOM     24  C   UNL     1       0.586   9.781  20.505  0.00  0.00    +0.000 A 
ATOM     25  C   UNL     1       1.142   9.846  19.210  0.00  0.00    +0.000 A 
ATOM     26  C   UNL     1       1.890   8.770  18.724  0.00  0.00    +0.000 A 
BRANCH  24  27
ATOM     27  C   UNL     1      -0.131  10.905  21.095  0.00  0.00    +0.000 A 
ATOM     28  C   UNL     1      -1.456  11.256  21.244  0.00  0.00    +0.000 A 
ATOM     29  N   UNL     1      -1.564  12.488  21.837  0.00  0.00    +0.000 NA
ATOM     30  C   UNL     1      -0.314  12.837  22.031  0.00  0.00    +0.000 A 
ATOM     31  O   UNL     1       0.615  11.935  21.610  0.00  0.00    +0.000 OA
ENDBRANCH  24  27
BRANCH  25  32
ATOM     32  O   UNL     1       0.915  10.982  18.473  0.00  0.00    +0.000 OA
ATOM     33  C   UNL     1       1.991  11.907  18.349  0.00  0.00    +0.000 C 
ENDBRANCH  25  32
ENDBRANCH   3  21
BRANCH   4  34
ATOM     34  C   UNL     1       1.226   3.559  19.861  0.00  0.00    +0.000 C 
ATOM     35  N   UNL     1       1.155   2.533  20.385  0.00  0.00    +0.000 NA
ENDBRANCH   4  34
TORSDOF 9
ENDMDL
MODEL 4
REMARK VINA RESULT:      -8.4      1.430      2.110
REMARK  Name = 
REMARK  11 active torsions:
REMARK  status: ('A' for Active; 'I' for Inactive)
REMARK    1  A    between atoms: C_1  and  C_2
REMARK    2  A    between atoms: C_2  and  C_3
REMARK    3  A    between atoms: C_3  and  C_4
REMARK    4  A    between atoms: C_4  and  N_5
REMARK    5  A    between atoms: C_6  and  C_8
REMARK    6  A    between atoms: C_12  and  N_13
REMARK    7  A    between atoms: N_15  and  C_16
REMARK    8  A    between atoms: C_19  and  C_20
REMARK    9  A    between atoms: C_25  and  O_26
REMARK   10  A    between atoms: O_26  and  C_27
REMARK   11  A    between atoms: N_29  and  C_30
REMARK                            x       y       z     vdW  Elec       q    Type
REMARK                         _______ _______ _______ _____ _____    ______ ____
ROOT
ATOM      1  N   UNL     1       3.591   4.422  18.965  0.00  0.00    +0.000 N 
ATOM      2  C   UNL     1       2.646   5.345  19.368  0.00  0.00    +0.000 C 
ATOM      3  N   UNL     1       2.923   6.618  19.331  0.00  0.00    +0.000 NA
ATOM      4  N   UNL     1       1.440   4.772  19.702  0.00  0.00    +0.000 N 
ATOM      5  H   UNL     1       3.259   3.488  18.760  0.00  0.00    +0.000 HD
ATOM      6  H   UNL     1       0.690   5.417  19.905  0.00  0.00    +0.000 HD
ENDROOT
BRANCH   1  11
ATOM      7  C   UNL     1       6.401   4.813  16.516  0.00  0.00    +0.000 A 
ATOM      8  C   UNL     1       7.444   5.136  17.385  0.00  0.00    +0.000 A 
ATOM      9  C   UNL     1       7.198   5.260  18.753  0.00  0.00    +0.000 A 
ATOM     10  C   UNL     1       5.912   5.044  19.255  0.00  0.00    +0.000 A 
ATOM     11  C   UNL     1       4.854   4.706  18.402  0.00  0.00    +0.000 A 
ATOM     12  C   UNL     1       5.118   4.601  17.031  0.00  0.00    +0.000 A 
BRANCH   7  14
ATOM     13  N   UNL     1       5.919   3.709  14.399  0.00  0.00    +0.000 N 
ATOM     14  C   UNL     1       6.684   4.643  15.064  0.00  0.00    +0.000 C 
ATOM     15  O   UNL     1       7.548   5.326  14.525  0.00  0.00    +0.000 OA
ATOM     16  H   UNL     1       5.197   3.203  14.892  0.00  0.00    +0.000 HD
BRANCH  13  17
ATOM     17  C   UNL     1       6.135   3.377  13.006  0.00  0.00    +0.000 C 
BRANCH  17  18
ATOM     18  C   UNL     1       5.064   3.972  12.092  0.00  0.00    +0.000 C 
BRANCH  18  20
ATOM     19  C   UNL     1       3.323   3.517  10.318  0.00  0.00    +0.000 C 
ATOM     20  C   UNL     1       4.292   2.901  11.315  0.00  0.00    +0.000 C 
ENDBRANCH  18  20
ENDBRANCH  17  18
ENDBRANCH  13  17
ENDBRANCH   7  14
ENDBRANCH   1  11
BRANCH   3  21
ATOM     21  C   UNL     1       2.117   7.677  19.729  0.00  0.00    +0.000 A 
ATOM     22  C   UNL     1       1.753   7.765  21.072  0.00  0.00    +0.000 A 
ATOM     23  C   UNL     1       0.909   8.788  21.512  0.00  0.00    +0.000 A 
ATOM     24  C   UNL     1       0.441   9.766  20.619  0.00  0.00    +0.000 A 
ATOM     25  C   UNL     1       0.754   9.632  19.250  0.00  0.00    +0.000 A 
ATOM     26  C   UNL     1       1.539   8.558  18.822  0.00  0.00    +0.000 A 
BRANCH  24  27
ATOM     27  C   UNL     1      -0.303  10.910  21.132  0.00  0.00    +0.000 A 
ATOM     28  C   UNL     1      -1.578  11.406  20.968  0.00  0.00    +0.000 A 
ATOM     29  N   UNL     1      -1.730  12.581  21.659  0.00  0.00    +0.000 NA
ATOM     30  C   UNL     1      -0.556  12.753  22.219  0.00  0.00    +0.000 A 
ATOM     31  O   UNL     1       0.366  11.787  21.950  0.00  0.00    +0.000 OA
ENDBRANCH  24  27
BRANCH  25  32
ATOM     32  O   UNL     1       0.261  10.578  18.385  0.00  0.00    +0.000 OA
ATOM     33  C   UNL     1      -0.919  10.249  17.658  0.00  0.00    +0.000 C 
ENDBRANCH  25  32
ENDBRANCH   3  21
BRANCH   4  34
ATOM     34  C   UNL     1       1.435   3.555  20.489  0.00  0.00    +0.000 C 
ATOM     35  N   UNL     1       1.460   2.592  21.125  0.00  0.00    +0.000 NA
ENDBRANCH   4  34
TORSDOF 9
ENDMDL
MODEL 5
REMARK VINA RESULT:      -8.1      0.976      1.006
REMARK  Name = 
REMARK  11 active torsions:
REMARK  status: ('A' for Active; 'I' for Inactive)
REMARK    1  A    between atoms: C_1  and  C_2
REMARK    2  A    between atoms: C_2  and  C_3
REMARK    3  A    between atoms: C_3  and  C_4
REMARK    4  A    between atoms: C_4  and  N_5
REMARK    5  A    between atoms: C_6  and  C_8
REMARK    6  A    between atoms: C_12  and  N_13
REMARK    7  A    between atoms: N_15  and  C_16
REMARK    8  A    between atoms: C_19  and  C_20
REMARK    9  A    between atoms: C_25  and  O_26
REMARK   10  A    between atoms: O_26  and  C_27
REMARK   11  A    between atoms: N_29  and  C_30
REMARK                            x       y       z     vdW  Elec       q    Type
REMARK                         _______ _______ _______ _____ _____    ______ ____
ROOT
ATOM      1  N   UNL     1       3.859   4.317  18.872  0.00  0.00    +0.000 N 
ATOM      2  C   UNL     1       2.924   5.290  19.170  0.00  0.00    +0.000 C 
ATOM      3  N   UNL     1       3.062   6.493  18.688  0.00  0.00    +0.000 NA
ATOM      4  N   UNL     1       1.869   4.814  19.915  0.00  0.00    +0.000 N 
ATOM      5  H   UNL     1       3.587   3.357  19.037  0.00  0.00    +0.000 HD
ATOM      6  H   UNL     1       1.114   5.466  20.070  0.00  0.00    +0.000 HD
ENDROOT
BRANCH   1  11
ATOM      7  C   UNL     1       5.947   4.382  15.760  0.00  0.00    +0.000 A 
ATOM      8  C   UNL     1       7.213   4.564  16.315  0.00  0.00    +0.000 A 
ATOM      9  C   UNL     1       7.356   4.703  17.696  0.00  0.00    +0.000 A 
ATOM     10  C   UNL     1       6.232   4.643  18.525  0.00  0.00    +0.000 A 
ATOM     11  C   UNL     1       4.952   4.449  17.989  0.00  0.00    +0.000 A 
ATOM     12  C   UNL     1       4.829   4.326  16.599  0.00  0.00    +0.000 A 
BRANCH   7  14
ATOM     13  N   UNL     1       6.987   4.179  13.566  0.00  0.00    +0.000 N 
ATOM     14  C   UNL     1       5.812   4.193  14.289  0.00  0.00    +0.000 C 
ATOM     15  O   UNL     1       4.702   4.048  13.790  0.00  0.00    +0.000 OA
ATOM     16  H   UNL     1       7.874   4.267  14.041  0.00  0.00    +0.000 HD
BRANCH  13  17
ATOM     17  C   UNL     1       7.009   4.086  12.121  0.00  0.00    +0.000 C 
BRANCH  17  18
ATOM     18  C   UNL     1       7.217   2.653  11.632  0.00  0.00    +0.000 C 
BRANCH  18  20
ATOM     19  C   UNL     1       6.121   0.434  11.124  0.00  0.00    +0.000 C 
ATOM     20  C   UNL     1       5.897   1.913  11.397  0.00  0.00    +0.000 C 
ENDBRANCH  18  20
ENDBRANCH  17  18
ENDBRANCH  13  17
ENDBRANCH   7  14
ENDBRANCH   1  11
BRANCH   3  21
ATOM     21  C   UNL     1       2.248   7.598  18.910  0.00  0.00    +0.000 A 
ATOM     22  C   UNL     1       2.099   8.529  17.882  0.00  0.00    +0.000 A 
ATOM     23  C   UNL     1       1.327   9.677  18.073  0.00  0.00    +0.000 A 
ATOM     24  C   UNL     1       0.657   9.897  19.288  0.00  0.00    +0.000 A 
ATOM     25  C   UNL     1       0.869   8.990  20.348  0.00  0.00    +0.000 A 
ATOM     26  C   UNL     1       1.706   7.887  20.157  0.00  0.00    +0.000 A 
BRANCH  24  27
ATOM     27  C   UNL     1      -0.270  11.016  19.404  0.00  0.00    +0.000 A 
ATOM     28  C   UNL     1      -0.193  12.311  19.872  0.00  0.00    +0.000 A 
ATOM     29  N   UNL     1      -1.419  12.922  19.798  0.00  0.00    +0.000 NA
ATOM     30  C   UNL     1      -2.188  11.990  19.288  0.00  0.00    +0.000 A 
ATOM     31  O   UNL     1      -1.571  10.806  19.021  0.00  0.00    +0.000 OA
ENDBRANCH  24  27
BRANCH  25  32
ATOM     32  O   UNL     1       0.234   9.238  21.540  0.00  0.00    +0.000 OA
ATOM     33  C   UNL     1       1.049   9.377  22.699  0.00  0.00    +0.000 C 
ENDBRANCH  25  32
ENDBRANCH   3  21
BRANCH   4  34
ATOM     34  C   UNL     1       2.138   3.911  21.016  0.00  0.00    +0.000 C 
ATOM     35  N   UNL     1       2.377   3.210  21.901  0.00  0.00    +0.000 NA
ENDBRANCH   4  34
TORSDOF 9
ENDMDL
MODEL 6
REMARK VINA RESULT:      -8.1      1.187      1.285
REMARK  Name = 
REMARK  11 active torsions:
REMARK  status: ('A' for Active; 'I' for Inactive)
REMARK    1  A    between atoms: C_1  and  C_2
REMARK    2  A    between atoms: C_2  and  C_3
REMARK    3  A    between atoms: C_3  and  C_4
REMARK    4  A    between atoms: C_4  and  N_5
REMARK    5  A    between atoms: C_6  and  C_8
REMARK    6  A    between atoms: C_12  and  N_13
REMARK    7  A    between atoms: N_15  and  C_16
REMARK    8  A    between atoms: C_19  and  C_20
REMARK    9  A    between atoms: C_25  and  O_26
REMARK   10  A    between atoms: O_26  and  C_27
REMARK   11  A    between atoms: N_29  and  C_30
REMARK                            x       y       z     vdW  Elec       q    Type
REMARK                         _______ _______ _______ _____ _____    ______ ____
ROOT
ATOM      1  N   UNL     1       3.780   4.627  19.341  0.00  0.00    +0.000 N 
ATOM      2  C   UNL     1       2.765   5.520  19.619  0.00  0.00    +0.000 C 
ATOM      3  N   UNL     1       2.870   6.763  19.240  0.00  0.00    +0.000 NA
ATOM      4  N   UNL     1       1.679   4.931  20.227  0.00  0.00    +0.000 N 
ATOM      5  H   UNL     1       3.554   3.643  19.411  0.00  0.00    +0.000 HD
ATOM      6  H   UNL     1       0.874   5.527  20.357  0.00  0.00    +0.000 HD
ENDROOT
BRANCH   1  11
ATOM      7  C   UNL     1       6.097   5.168  16.445  0.00  0.00    +0.000 A 
ATOM      8  C   UNL     1       7.318   5.242  17.116  0.00  0.00    +0.000 A 
ATOM      9  C   UNL     1       7.356   5.153  18.507  0.00  0.00    +0.000 A 
ATOM     10  C   UNL     1       6.173   4.974  19.229  0.00  0.00    +0.000 A 
ATOM     11  C   UNL     1       4.937   4.885  18.575  0.00  0.00    +0.000 A 
ATOM     12  C   UNL     1       4.920   4.991  17.178  0.00  0.00    +0.000 A 
BRANCH   7  14
ATOM     13  N   UNL     1       6.750   4.216  14.300  0.00  0.00    +0.000 N 
ATOM     14  C   UNL     1       6.075   5.222  14.957  0.00  0.00    +0.000 C 
ATOM     15  O   UNL     1       5.466   6.120  14.387  0.00  0.00    +0.000 OA
ATOM     16  H   UNL     1       7.203   3.482  14.827  0.00  0.00    +0.000 HD
BRANCH  13  17
ATOM     17  C   UNL     1       6.884   4.182  12.858  0.00  0.00    +0.000 C 
BRANCH  17  18
ATOM     18  C   UNL     1       6.033   3.085  12.219  0.00  0.00    +0.000 C 
BRANCH  18  20
ATOM     19  C   UNL     1       6.176   0.812  11.126  0.00  0.00    +0.000 C 
ATOM     20  C   UNL     1       6.847   2.164  11.307  0.00  0.00    +0.000 C 
ENDBRANCH  18  20
ENDBRANCH  17  18
ENDBRANCH  13  17
ENDBRANCH   7  14
ENDBRANCH   1  11
BRANCH   3  21
ATOM     21  C   UNL     1       1.973   7.801  19.463  0.00  0.00    +0.000 A 
ATOM     22  C   UNL     1       1.877   8.812  18.507  0.00  0.00    +0.000 A 
ATOM     23  C   UNL     1       1.021   9.897  18.709  0.00  0.00    +0.000 A 
ATOM     24  C   UNL     1       0.216   9.974  19.857  0.00  0.00    +0.000 A 
ATOM     25  C   UNL     1       0.370   8.987  20.853  0.00  0.00    +0.000 A 
ATOM     26  C   UNL     1       1.287   7.949  20.663  0.00  0.00    +0.000 A 
BRANCH  24  27
ATOM     27  C   UNL     1      -0.783  11.030  19.964  0.00  0.00    +0.000 A 
ATOM     28  C   UNL     1      -1.966  11.331  19.325  0.00  0.00    +0.000 A 
ATOM     29  N   UNL     1      -2.481  12.512  19.797  0.00  0.00    +0.000 NA
ATOM     30  C   UNL     1      -1.604  12.881  20.700  0.00  0.00    +0.000 A 
ATOM     31  O   UNL     1      -0.545  12.040  20.863  0.00  0.00    +0.000 OA
ENDBRANCH  24  27
BRANCH  25  32
ATOM     32  O   UNL     1      -0.401   9.094  21.985  0.00  0.00    +0.000 OA
ATOM     33  C   UNL     1       0.255   9.481  23.189  0.00  0.00    +0.000 C 
ENDBRANCH  25  32
ENDBRANCH   3  21
BRANCH   4  34
ATOM     34  C   UNL     1       1.905   3.963  21.281  0.00  0.00    +0.000 C 
ATOM     35  N   UNL     1       2.054   3.188  22.124  0.00  0.00    +0.000 NA
ENDBRANCH   4  34
TORSDOF 9
ENDMDL
MODEL 7
REMARK VINA RESULT:      -7.9      1.632      2.207
REMARK  Name = 
REMARK  11 active torsions:
REMARK  status: ('A' for Active; 'I' for Inactive)
REMARK    1  A    between atoms: C_1  and  C_2
REMARK    2  A    between atoms: C_2  and  C_3
REMARK    3  A    between atoms: C_3  and  C_4
REMARK    4  A    between atoms: C_4  and  N_5
REMARK    5  A    between atoms: C_6  and  C_8
REMARK    6  A    between atoms: C_12  and  N_13
REMARK    7  A    between atoms: N_15  and  C_16
REMARK    8  A    between atoms: C_19  and  C_20
REMARK    9  A    between atoms: C_25  and  O_26
REMARK   10  A    between atoms: O_26  and  C_27
REMARK   11  A    between atoms: N_29  and  C_30
REMARK                            x       y       z     vdW  Elec       q    Type
REMARK                         _______ _______ _______ _____ _____    ______ ____
ROOT
ATOM      1  N   UNL     1       3.625   4.648  19.403  0.00  0.00    +0.000 N 
ATOM      2  C   UNL     1       2.645   5.538  19.797  0.00  0.00    +0.000 C 
ATOM      3  N   UNL     1       2.799   6.814  19.579  0.00  0.00    +0.000 NA
ATOM      4  N   UNL     1       1.536   4.919  20.328  0.00  0.00    +0.000 N 
ATOM      5  H   UNL     1       3.361   3.673  19.348  0.00  0.00    +0.000 HD
ATOM      6  H   UNL     1       0.755   5.524  20.537  0.00  0.00    +0.000 HD
ENDROOT
BRANCH   1  11
ATOM      7  C   UNL     1       6.000   5.304  16.579  0.00  0.00    +0.000 A 
ATOM      8  C   UNL     1       7.199   5.416  17.284  0.00  0.00    +0.000 A 
ATOM      9  C   UNL     1       7.201   5.315  18.676  0.00  0.00    +0.000 A 
ATOM     10  C   UNL     1       6.005   5.085  19.362  0.00  0.00    +0.000 A 
ATOM     11  C   UNL     1       4.793   4.957  18.673  0.00  0.00    +0.000 A 
ATOM     12  C   UNL     1       4.810   5.076  17.277  0.00  0.00    +0.000 A 
BRANCH   7  14
ATOM     13  N   UNL     1       6.725   4.382  14.444  0.00  0.00    +0.000 N 
ATOM     14  C   UNL     1       6.017   5.372  15.092  0.00  0.00    +0.000 C 
ATOM     15  O   UNL     1       5.410   6.266  14.513  0.00  0.00    +0.000 OA
ATOM     16  H   UNL     1       7.175   3.650  14.976  0.00  0.00    +0.000 HD
BRANCH  13  17
ATOM     17  C   UNL     1       6.899   4.364  13.006  0.00  0.00    +0.000 C 
BRANCH  17  18
ATOM     18  C   UNL     1       6.111   3.238  12.338  0.00  0.00    +0.000 C 
BRANCH  18  20
ATOM     19  C   UNL     1       3.968   3.141  11.002  0.00  0.00    +0.000 C 
ATOM     20  C   UNL     1       4.601   3.494  12.339  0.00  0.00    +0.000 C 
ENDBRANCH  18  20
ENDBRANCH  17  18
ENDBRANCH  13  17
ENDBRANCH   7  14
ENDBRANCH   1  11
BRANCH   3  21
ATOM     21  C   UNL     1       1.944   7.849  19.937  0.00  0.00    +0.000 A 
ATOM     22  C   UNL     1       1.216   7.728  21.120  0.00  0.00    +0.000 A 
ATOM     23  C   UNL     1       0.311   8.723  21.499  0.00  0.00    +0.000 A 
ATOM     24  C   UNL     1       0.144   9.877  20.718  0.00  0.00    +0.000 A 
ATOM     25  C   UNL     1       0.829   9.961  19.487  0.00  0.00    +0.000 A 
ATOM     26  C   UNL     1       1.673   8.919  19.093  0.00  0.00    +0.000 A 
BRANCH  24  27
ATOM     27  C   UNL     1      -0.681  10.970  21.217  0.00  0.00    +0.000 A 
ATOM     28  C   UNL     1      -0.804  11.639  22.416  0.00  0.00    +0.000 A 
ATOM     29  N   UNL     1      -1.812  12.567  22.348  0.00  0.00    +0.000 NA
ATOM     30  C   UNL     1      -2.258  12.435  21.121  0.00  0.00    +0.000 A 
ATOM     31  O   UNL     1      -1.629  11.489  20.370  0.00  0.00    +0.000 OA
ENDBRANCH  24  27
BRANCH  25  32
ATOM     32  O   UNL     1       0.630  11.082  18.718  0.00  0.00    +0.000 OA
ATOM     33  C   UNL     1       1.692  12.028  18.653  0.00  0.00    +0.000 C 
ENDBRANCH  25  32
ENDBRANCH   3  21
BRANCH   4  34
ATOM     34  C   UNL     1       1.722   3.816  21.249  0.00  0.00    +0.000 C 
ATOM     35  N   UNL     1       1.890   2.924  21.963  0.00  0.00    +0.000 NA
ENDBRANCH   4  34
TORSDOF 9
ENDMDL
MODEL 8
REMARK VINA RESULT:      -7.6      1.309      2.120
REMARK  Name = 
REMARK  11 active torsions:
REMARK  status: ('A' for Active; 'I' for Inactive)
REMARK    1  A    between atoms: C_1  and  C_2
REMARK    2  A    between atoms: C_2  and  C_3
REMARK    3  A    between atoms: C_3  and  C_4
REMARK    4  A    between atoms: C_4  and  N_5
REMARK    5  A    between atoms: C_6  and  C_8
REMARK    6  A    between atoms: C_12  and  N_13
REMARK    7  A    between atoms: N_15  and  C_16
REMARK    8  A    between atoms: C_19  and  C_20
REMARK    9  A    between atoms: C_25  and  O_26
REMARK   10  A    between atoms: O_26  and  C_27
REMARK   11  A    between atoms: N_29  and  C_30
REMARK                            x       y       z     vdW  Elec       q    Type
REMARK                         _______ _______ _______ _____ _____    ______ ____
ROOT
ATOM      1  N   UNL     1       3.554   4.695  17.728  0.00  0.00    +0.000 N 
ATOM      2  C   UNL     1       2.617   5.543  18.286  0.00  0.00    +0.000 C 
ATOM      3  N   UNL     1       2.931   6.782  18.540  0.00  0.00    +0.000 NA
ATOM      4  N   UNL     1       1.381   4.957  18.436  0.00  0.00    +0.000 N 
ATOM      5  H   UNL     1       3.207   3.842  17.310  0.00  0.00    +0.000 HD
ATOM      6  H   UNL     1       0.641   5.569  18.746  0.00  0.00    +0.000 HD
ENDROOT
BRANCH   1  11
ATOM      7  C   UNL     1       6.609   5.134  15.601  0.00  0.00    +0.000 A 
ATOM      8  C   UNL     1       7.502   5.633  16.550  0.00  0.00    +0.000 A 
ATOM      9  C   UNL     1       7.075   5.855  17.860  0.00  0.00    +0.000 A 
ATOM     10  C   UNL     1       5.759   5.562  18.226  0.00  0.00    +0.000 A 
ATOM     11  C   UNL     1       4.850   5.049  17.292  0.00  0.00    +0.000 A 
ATOM     12  C   UNL     1       5.294   4.846  15.979  0.00  0.00    +0.000 A 
BRANCH   7  14
ATOM     13  N   UNL     1       6.541   3.764  13.588  0.00  0.00    +0.000 N 
ATOM     14  C   UNL     1       7.088   4.862  14.218  0.00  0.00    +0.000 C 
ATOM     15  O   UNL     1       7.912   5.606  13.698  0.00  0.00    +0.000 OA
ATOM     16  H   UNL     1       5.838   3.210  14.057  0.00  0.00    +0.000 HD
BRANCH  13  17
ATOM     17  C   UNL     1       6.968   3.328  12.274  0.00  0.00    +0.000 C 
BRANCH  17  18
ATOM     18  C   UNL     1       5.792   3.097  11.326  0.00  0.00    +0.000 C 
BRANCH  18  20
ATOM     19  C   UNL     1       3.292   3.246  10.991  0.00  0.00    +0.000 C 
ATOM     20  C   UNL     1       4.444   3.447  11.963  0.00  0.00    +0.000 C 
ENDBRANCH  18  20
ENDBRANCH  17  18
ENDBRANCH  13  17
ENDBRANCH   7  14
ENDBRANCH   1  11
BRANCH   3  21
ATOM     21  C   UNL     1       2.136   7.759  19.128  0.00  0.00    +0.000 A 
ATOM     22  C   UNL     1       1.594   7.503  20.387  0.00  0.00    +0.000 A 
ATOM     23  C   UNL     1       0.755   8.436  20.999  0.00  0.00    +0.000 A 
ATOM     24  C   UNL     1       0.469   9.663  20.377  0.00  0.00    +0.000 A 
ATOM     25  C   UNL     1       0.962   9.886  19.074  0.00  0.00    +0.000 A 
ATOM     26  C   UNL     1       1.739   8.906  18.451  0.00  0.00    +0.000 A 
BRANCH  24  27
ATOM     27  C   UNL     1      -0.275  10.682  21.107  0.00  0.00    +0.000 A 
ATOM     28  C   UNL     1      -1.295  11.557  20.805  0.00  0.00    +0.000 A 
ATOM     29  N   UNL     1      -1.576  12.359  21.882  0.00  0.00    +0.000 NA
ATOM     30  C   UNL     1      -0.729  11.944  22.793  0.00  0.00    +0.000 A 
ATOM     31  O   UNL     1       0.096  10.932  22.405  0.00  0.00    +0.000 OA
ENDBRANCH  24  27
BRANCH  25  32
ATOM     32  O   UNL     1       0.646  11.077  18.466  0.00  0.00    +0.000 OA
ATOM     33  C   UNL     1       1.638  12.099  18.474  0.00  0.00    +0.000 C 
ENDBRANCH  25  32
ENDBRANCH   3  21
BRANCH   4  34
ATOM     34  C   UNL     1       1.305   3.599  18.937  0.00  0.00    +0.000 C 
ATOM     35  N   UNL     1       1.224   2.526  19.356  0.00  0.00    +0.000 NA
ENDBRANCH   4  34
TORSDOF 9
ENDMDL
MODEL 9
REMARK VINA RESULT:      -7.5      2.845      4.921
REMARK  Name = 
REMARK  11 active torsions:
REMARK  status: ('A' for Active; 'I' for Inactive)
REMARK    1  A    between atoms: C_1  and  C_2
REMARK    2  A    between atoms: C_2  and  C_3
REMARK    3  A    between atoms: C_3  and  C_4
REMARK    4  A    between atoms: C_4  and  N_5
REMARK    5  A    between atoms: C_6  and  C_8
REMARK    6  A    between atoms: C_12  and  N_13
REMARK    7  A    between atoms: N_15  and  C_16
REMARK    8  A    between atoms: C_19  and  C_20
REMARK    9  A    between atoms: C_25  and  O_26
REMARK   10  A    between atoms: O_26  and  C_27
REMARK   11  A    between atoms: N_29  and  C_30
REMARK                            x       y       z     vdW  Elec       q    Type
REMARK                         _______ _______ _______ _____ _____    ______ ____
ROOT
ATOM      1  N   UNL     1       3.350   4.491  19.171  0.00  0.00    +0.000 N 
ATOM      2  C   UNL     1       2.455   5.415  19.671  0.00  0.00    +0.000 C 
ATOM      3  N   UNL     1       2.609   6.681  19.403  0.00  0.00    +0.000 NA
ATOM      4  N   UNL     1       1.413   4.838  20.362  0.00  0.00    +0.000 N 
ATOM      5  H   UNL     1       3.058   3.523  19.176  0.00  0.00    +0.000 HD
ATOM      6  H   UNL     1       0.682   5.469  20.659  0.00  0.00    +0.000 HD
ENDROOT
BRANCH   1  11
ATOM      7  C   UNL     1       6.461   5.929  17.653  0.00  0.00    +0.000 A 
ATOM      8  C   UNL     1       6.415   5.339  16.389  0.00  0.00    +0.000 A 
ATOM      9  C   UNL     1       5.388   4.450  16.072  0.00  0.00    +0.000 A 
ATOM     10  C   UNL     1       4.396   4.162  17.013  0.00  0.00    +0.000 A 
ATOM     11  C   UNL     1       4.416   4.752  18.283  0.00  0.00    +0.000 A 
ATOM     12  C   UNL     1       5.464   5.631  18.587  0.00  0.00    +0.000 A 
BRANCH   7  14
ATOM     13  N   UNL     1       7.447   8.135  17.344  0.00  0.00    +0.000 N 
ATOM     14  C   UNL     1       7.539   6.907  17.966  0.00  0.00    +0.000 C 
ATOM     15  O   UNL     1       8.432   6.605  18.749  0.00  0.00    +0.000 OA
ATOM     16  H   UNL     1       6.666   8.337  16.736  0.00  0.00    +0.000 HD
BRANCH  13  17
ATOM     17  C   UNL     1       8.464   9.156  17.487  0.00  0.00    +0.000 C 
BRANCH  17  18
ATOM     18  C   UNL     1       8.687   9.557  18.946  0.00  0.00    +0.000 C 
BRANCH  18  20
ATOM     19  C   UNL     1       9.570  11.712  17.968  0.00  0.00    +0.000 C 
ATOM     20  C   UNL     1       9.694  10.700  19.095  0.00  0.00    +0.000 C 
ENDBRANCH  18  20
ENDBRANCH  17  18
ENDBRANCH  13  17
ENDBRANCH   7  14
ENDBRANCH   1  11
BRANCH   3  21
ATOM     21  C   UNL     1       1.835   7.747  19.847  0.00  0.00    +0.000 A 
ATOM     22  C   UNL     1       1.178   7.624  21.072  0.00  0.00    +0.000 A 
ATOM     23  C   UNL     1       0.354   8.651  21.539  0.00  0.00    +0.000 A 
ATOM     24  C   UNL     1       0.201   9.839  20.805  0.00  0.00    +0.000 A 
ATOM     25  C   UNL     1       0.809   9.928  19.535  0.00  0.00    +0.000 A 
ATOM     26  C   UNL     1       1.569   8.857  19.055  0.00  0.00    +0.000 A 
BRANCH  24  27
ATOM     27  C   UNL     1      -0.532  10.955  21.390  0.00  0.00    +0.000 A 
ATOM     28  C   UNL     1      -1.551  11.786  20.977  0.00  0.00    +0.000 A 
ATOM     29  N   UNL     1      -1.818  12.733  21.933  0.00  0.00    +0.000 NA
ATOM     30  C   UNL     1      -0.964  12.443  22.886  0.00  0.00    +0.000 A 
ATOM     31  O   UNL     1      -0.149  11.381  22.637  0.00  0.00    +0.000 OA
ENDBRANCH  24  27
BRANCH  25  32
ATOM     32  O   UNL     1       0.622  11.083  18.815  0.00  0.00    +0.000 OA
ATOM     33  C   UNL     1       1.721  11.984  18.727  0.00  0.00    +0.000 C 
ENDBRANCH  25  32
ENDBRANCH   3  21
BRANCH   4  34
ATOM     34  C   UNL     1       1.695   3.750  21.276  0.00  0.00    +0.000 C 
ATOM     35  N   UNL     1       1.943   2.874  21.986  0.00  0.00    +0.000 NA
ENDBRANCH   4  34
TORSDOF 9
ENDMDL
