MODEL 1
REMARK VINA RESULT:      -8.1      0.000      0.000
REMARK  Name = 
REMARK  8 active torsions:
REMARK  status: ('A' for Active; 'I' for Inactive)
REMARK    1  A    between atoms: C_1  and  C_2
REMARK    2  A    between atoms: C_2  and  C_3
REMARK    3  A    between atoms: C_2  and  C_4
REMARK    4  A    between atoms: C_7  and  C_8
REMARK    5  A    between atoms: C_8  and  N_9
REMARK    6  A    between atoms: N_9  and  C_10
REMARK    7  A    between atoms: N_9  and  C_11
REMARK    8  A    between atoms: C_11  and  C_12
REMARK                            x       y       z     vdW  Elec       q    Type
REMARK                         _______ _______ _______ _____ _____    ______ ____
ROOT
ATOM      1  N   UNL     1       5.206   4.544  18.197  0.00  0.00    +0.000 NA
ATOM      2  C   UNL     1       5.143   3.623  19.332  0.00  0.00    +0.000 C 
ENDROOT
BRANCH   1   3
ATOM      3  C   UNL     1       6.596   4.755  17.737  0.00  0.00    +0.000 C 
BRANCH   3   7
ATOM      4  C   UNL     1       6.754   4.267  14.216  0.00  0.00    +0.000 A 
ATOM      5  N   UNL     1       7.367   5.461  14.278  0.00  0.00    +0.000 NA
ATOM      6  O   UNL     1       7.408   5.721  15.651  0.00  0.00    +0.000 OA
ATOM      7  C   UNL     1       6.814   4.658  16.262  0.00  0.00    +0.000 A 
ATOM      8  N   UNL     1       6.434   3.725  15.419  0.00  0.00    +0.000 NA
BRANCH   4  10
ATOM      9  C   UNL     1       4.873   3.795  12.674  0.00  0.00    +0.000 C 
ATOM     10  C   UNL     1       6.364   3.602  12.945  0.00  0.00    +0.000 C 
ATOM     11  C   UNL     1       7.186   4.142  11.771  0.00  0.00    +0.000 C 
ENDBRANCH   4  10
ENDBRANCH   3   7
ENDBRANCH   1   3
BRANCH   1  12
ATOM     12  C   UNL     1       4.453   5.777  18.481  0.00  0.00    +0.000 C 
BRANCH  12  13
ATOM     13  C   UNL     1       3.026   5.920  17.881  0.00  0.00    +0.000 C 
ATOM     14  C   UNL     1       2.497   7.339  18.157  0.00  0.00    +0.000 C 
ATOM     15  C   UNL     1       2.232   7.585  19.641  0.00  0.00    +0.000 C 
ATOM     16  C   UNL     1       1.727   6.368  20.455  0.00  0.00    +0.000 C 
ATOM     17  N   UNL     1       1.874   5.029  19.891  0.00  0.00    +0.000 NA
ATOM     18  C   UNL     1       0.873   4.116  20.458  0.00  0.00    +0.000 C 
ATOM     19  C   UNL     1       1.162   2.671  20.061  0.00  0.00    +0.000 C 
ATOM     20  C   UNL     1       1.166   2.523  18.547  0.00  0.00    +0.000 C 
ATOM     21  C   UNL     1       2.170   3.497  17.944  0.00  0.00    +0.000 C 
ATOM     22  C   UNL     1       1.949   4.945  18.429  0.00  0.00    +0.000 C 
ENDBRANCH  12  13
ENDBRANCH   1  12
TORSDOF 5
ENDMDL
MODEL 2
REMARK VINA RESULT:      -8.1      0.865      1.024
REMARK  Name = 
REMARK  8 active torsions:
REMARK  status: ('A' for Active; 'I' for Inactive)
REMARK    1  A    between atoms: C_1  and  C_2
REMARK    2  A    between atoms: C_2  and  C_3
REMARK    3  A    between atoms: C_2  and  C_4
REMARK    4  A    between atoms: C_7  and  C_8
REMARK    5  A    between atoms: C_8  and  N_9
REMARK    6  A    between atoms: N_9  and  C_10
REMARK    7  A    between atoms: N_9  and  C_11
REMARK    8  A    between atoms: C_11  and  C_12
REMARK                            x       y       z     vdW  Elec       q    Type
REMARK                         _______ _______ _______ _____ _____    ______ ____
ROOT
ATOM      1  N   UNL     1       5.726   5.684  17.919  0.00  0.00    +0.000 NA
ATOM      2  C   UNL     1       6.926   6.179  18.592  0.00  0.00    +0.000 C 
ENDROOT
BRANCH   1   3
ATOM      3  C   UNL     1       5.575   6.263  16.566  0.00  0.00    +0.000 C 
BRANCH   3   7
ATOM      4  C   UNL     1       6.526   4.310  13.749  0.00  0.00    +0.000 A 
ATOM      5  N   UNL     1       7.680   4.976  13.926  0.00  0.00    +0.000 NA
ATOM      6  O   UNL     1       7.425   5.744  15.067  0.00  0.00    +0.000 OA
ATOM      7  C   UNL     1       6.149   5.457  15.447  0.00  0.00    +0.000 A 
ATOM      8  N   UNL     1       5.575   4.552  14.687  0.00  0.00    +0.000 NA
BRANCH   4  10
ATOM      9  C   UNL     1       4.781   3.538  12.169  0.00  0.00    +0.000 C 
ATOM     10  C   UNL     1       6.249   3.435  12.579  0.00  0.00    +0.000 C 
ATOM     11  C   UNL     1       7.153   3.798  11.398  0.00  0.00    +0.000 C 
ENDBRANCH   4  10
ENDBRANCH   3   7
ENDBRANCH   1   3
BRANCH   1  12
ATOM     12  C   UNL     1       4.544   5.824  18.787  0.00  0.00    +0.000 C 
BRANCH  12  13
ATOM     13  C   UNL     1       3.147   5.930  18.113  0.00  0.00    +0.000 C 
ATOM     14  C   UNL     1       2.522   7.295  18.449  0.00  0.00    +0.000 C 
ATOM     15  C   UNL     1       2.159   7.423  19.926  0.00  0.00    +0.000 C 
ATOM     16  C   UNL     1       1.680   6.128  20.626  0.00  0.00    +0.000 C 
ATOM     17  N   UNL     1       1.936   4.841  19.985  0.00  0.00    +0.000 NA
ATOM     18  C   UNL     1       0.960   3.838  20.429  0.00  0.00    +0.000 C 
ATOM     19  C   UNL     1       1.354   2.442  19.956  0.00  0.00    +0.000 C 
ATOM     20  C   UNL     1       1.453   2.399  18.438  0.00  0.00    +0.000 C 
ATOM     21  C   UNL     1       2.431   3.465  17.963  0.00  0.00    +0.000 C 
ATOM     22  C   UNL     1       2.100   4.862  18.528  0.00  0.00    +0.000 C 
ENDBRANCH  12  13
ENDBRANCH   1  12
TORSDOF 5
ENDMDL
MODEL 3
REMARK VINA RESULT:      -8.0      1.145      1.409
REMARK  Name = 
REMARK  8 active torsions:
REMARK  status: ('A' for Active; 'I' for Inactive)
REMARK    1  A    between atoms: C_1  and  C_2
REMARK    2  A    between atoms: C_2  and  C_3
REMARK    3  A    between atoms: C_2  and  C_4
REMARK    4  A    between atoms: C_7  and  C_8
REMARK    5  A    between atoms: C_8  and  N_9
REMARK    6  A    between atoms: N_9  and  C_10
REMARK    7  A    between atoms: N_9  and  C_11
REMARK    8  A    between atoms: C_11  and  C_12
REMARK                            x       y       z     vdW  Elec       q    Type
REMARK                         _______ _______ _______ _____ _____    ______ ____
ROOT
ATOM      1  N   UNL     1       6.381   4.702  17.343  0.00  0.00    +0.000 NA
ATOM      2  C   UNL     1       7.589   4.758  18.165  0.00  0.00    +0.000 C 
ENDROOT
BRANCH   1   3
ATOM      3  C   UNL     1       6.495   5.554  16.139  0.00  0.00    +0.000 C 
BRANCH   3   7
ATOM      4  C   UNL     1       6.337   3.691  13.112  0.00  0.00    +0.000 A 
ATOM      5  N   UNL     1       7.240   4.610  12.731  0.00  0.00    +0.000 NA
ATOM      6  O   UNL     1       7.419   5.372  13.890  0.00  0.00    +0.000 OA
ATOM      7  C   UNL     1       6.603   4.829  14.837  0.00  0.00    +0.000 A 
ATOM      8  N   UNL     1       5.952   3.771  14.411  0.00  0.00    +0.000 NA
BRANCH   4  10
ATOM      9  C   UNL     1       4.543   3.326  11.443  0.00  0.00    +0.000 C 
ATOM     10  C   UNL     1       5.723   2.703  12.186  0.00  0.00    +0.000 C 
ATOM     11  C   UNL     1       6.755   2.174  11.187  0.00  0.00    +0.000 C 
ENDBRANCH   4  10
ENDBRANCH   3   7
ENDBRANCH   1   3
BRANCH   1  12
ATOM     12  C   UNL     1       5.180   4.943  18.160  0.00  0.00    +0.000 C 
BRANCH  12  13
ATOM     13  C   UNL     1       3.821   5.134  17.428  0.00  0.00    +0.000 C 
ATOM     14  C   UNL     1       3.470   6.632  17.389  0.00  0.00    +0.000 C 
ATOM     15  C   UNL     1       3.153   7.193  18.773  0.00  0.00    +0.000 C 
ATOM     16  C   UNL     1       2.445   6.229  19.756  0.00  0.00    +0.000 C 
ATOM     17  N   UNL     1       2.445   4.797  19.465  0.00  0.00    +0.000 NA
ATOM     18  C   UNL     1       1.301   4.139  20.108  0.00  0.00    +0.000 C 
ATOM     19  C   UNL     1       1.418   2.620  20.012  0.00  0.00    +0.000 C 
ATOM     20  C   UNL     1       1.491   2.179  18.558  0.00  0.00    +0.000 C 
ATOM     21  C   UNL     1       2.649   2.890  17.870  0.00  0.00    +0.000 C 
ATOM     22  C   UNL     1       2.595   4.420  18.056  0.00  0.00    +0.000 C 
ENDBRANCH  12  13
ENDBRANCH   1  12
TORSDOF 5
ENDMDL
MODEL 4
REMARK VINA RESULT:      -8.0      0.862      1.332
REMARK  Name = 
REMARK  8 active torsions:
REMARK  status: ('A' for Active; 'I' for Inactive)
REMARK    1  A    between atoms: C_1  and  C_2
REMARK    2  A    between atoms: C_2  and  C_3
REMARK    3  A    between atoms: C_2  and  C_4
REMARK    4  A    between atoms: C_7  and  C_8
REMARK    5  A    between atoms: C_8  and  N_9
REMARK    6  A    between atoms: N_9  and  C_10
REMARK    7  A    between atoms: N_9  and  C_11
REMARK    8  A    between atoms: C_11  and  C_12
REMARK                            x       y       z     vdW  Elec       q    Type
REMARK                         _______ _______ _______ _____ _____    ______ ____
ROOT
ATOM      1  N   UNL     1       5.528   5.819  17.396  0.00  0.00    +0.000 NA
ATOM      2  C   UNL     1       4.970   6.469  16.210  0.00  0.00    +0.000 C 
ENDROOT
BRANCH   1   3
ATOM      3  C   UNL     1       6.490   4.754  17.038  0.00  0.00    +0.000 C 
BRANCH   3   7
ATOM      4  C   UNL     1       6.818   4.314  13.522  0.00  0.00    +0.000 A 
ATOM      5  N   UNL     1       7.764   5.253  13.694  0.00  0.00    +0.000 NA
ATOM      6  O   UNL     1       7.755   5.458  15.076  0.00  0.00    +0.000 OA
ATOM      7  C   UNL     1       6.805   4.624  15.583  0.00  0.00    +0.000 A 
ATOM      8  N   UNL     1       6.234   3.876  14.667  0.00  0.00    +0.000 NA
BRANCH   4  10
ATOM      9  C   UNL     1       7.145   2.591  11.772  0.00  0.00    +0.000 C 
ATOM     10  C   UNL     1       6.361   3.834  12.192  0.00  0.00    +0.000 C 
ATOM     11  C   UNL     1       4.860   3.531  12.205  0.00  0.00    +0.000 C 
ENDBRANCH   4  10
ENDBRANCH   3   7
ENDBRANCH   1   3
BRANCH   1  12
ATOM     12  C   UNL     1       4.457   5.402  18.317  0.00  0.00    +0.000 C 
BRANCH  12  13
ATOM     13  C   UNL     1       2.983   5.571  17.852  0.00  0.00    +0.000 C 
ATOM     14  C   UNL     1       2.500   6.991  18.197  0.00  0.00    +0.000 C 
ATOM     15  C   UNL     1       2.374   7.215  19.702  0.00  0.00    +0.000 C 
ATOM     16  C   UNL     1       1.930   5.991  20.540  0.00  0.00    +0.000 C 
ATOM     17  N   UNL     1       2.007   4.660  19.944  0.00  0.00    +0.000 NA
ATOM     18  C   UNL     1       1.051   3.750  20.586  0.00  0.00    +0.000 C 
ATOM     19  C   UNL     1       1.283   2.308  20.141  0.00  0.00    +0.000 C 
ATOM     20  C   UNL     1       1.147   2.185  18.631  0.00  0.00    +0.000 C 
ATOM     21  C   UNL     1       2.104   3.157  17.955  0.00  0.00    +0.000 C 
ATOM     22  C   UNL     1       1.948   4.599  18.480  0.00  0.00    +0.000 C 
ENDBRANCH  12  13
ENDBRANCH   1  12
TORSDOF 5
ENDMDL
MODEL 5
REMARK VINA RESULT:      -7.6      1.673      2.348
REMARK  Name = 
REMARK  8 active torsions:
REMARK  status: ('A' for Active; 'I' for Inactive)
REMARK    1  A    between atoms: C_1  and  C_2
REMARK    2  A    between atoms: C_2  and  C_3
REMARK    3  A    between atoms: C_2  and  C_4
REMARK    4  A    between atoms: C_7  and  C_8
REMARK    5  A    between atoms: C_8  and  N_9
REMARK    6  A    between atoms: N_9  and  C_10
REMARK    7  A    between atoms: N_9  and  C_11
REMARK    8  A    between atoms: C_11  and  C_12
REMARK                            x       y       z     vdW  Elec       q    Type
REMARK                         _______ _______ _______ _____ _____    ______ ____
ROOT
ATOM      1  N   UNL     1       6.128   5.038  18.307  0.00  0.00    +0.000 NA
ATOM      2  C   UNL     1       7.051   5.675  19.246  0.00  0.00    +0.000 C 
ENDROOT
BRANCH   1   3
ATOM      3  C   UNL     1       5.909   5.868  17.103  0.00  0.00    +0.000 C 
BRANCH   3   7
ATOM      4  C   UNL     1       6.797   4.472  13.953  0.00  0.00    +0.000 A 
ATOM      5  N   UNL     1       7.837   5.309  14.098  0.00  0.00    +0.000 NA
ATOM      6  O   UNL     1       7.610   5.876  15.356  0.00  0.00    +0.000 OA
ATOM      7  C   UNL     1       6.458   5.319  15.826  0.00  0.00    +0.000 A 
ATOM      8  N   UNL     1       5.949   4.423  15.012  0.00  0.00    +0.000 NA
BRANCH   4  10
ATOM      9  C   UNL     1       5.013   3.606  12.467  0.00  0.00    +0.000 C 
ATOM     10  C   UNL     1       6.518   3.708  12.708  0.00  0.00    +0.000 C 
ATOM     11  C   UNL     1       7.202   4.358  11.503  0.00  0.00    +0.000 C 
ENDBRANCH   4  10
ENDBRANCH   3   7
ENDBRANCH   1   3
BRANCH   1  12
ATOM     12  C   UNL     1       4.899   4.605  18.993  0.00  0.00    +0.000 C 
BRANCH  12  13
ATOM     13  C   UNL     1       4.409   3.146  18.768  0.00  0.00    +0.000 C 
ATOM     14  C   UNL     1       4.070   2.947  17.280  0.00  0.00    +0.000 C 
ATOM     15  C   UNL     1       2.847   3.751  16.847  0.00  0.00    +0.000 C 
ATOM     16  C   UNL     1       1.731   3.922  17.907  0.00  0.00    +0.000 C 
ATOM     17  N   UNL     1       2.039   3.646  19.308  0.00  0.00    +0.000 NA
ATOM     18  C   UNL     1       0.820   3.286  20.043  0.00  0.00    +0.000 C 
ATOM     19  C   UNL     1       1.083   3.226  21.545  0.00  0.00    +0.000 C 
ATOM     20  C   UNL     1       2.170   2.207  21.858  0.00  0.00    +0.000 C 
ATOM     21  C   UNL     1       3.426   2.547  21.066  0.00  0.00    +0.000 C 
ATOM     22  C   UNL     1       3.144   2.716  19.559  0.00  0.00    +0.000 C 
ENDBRANCH  12  13
ENDBRANCH   1  12
TORSDOF 5
ENDMDL
MODEL 6
REMARK VINA RESULT:      -7.4      1.086      1.400
REMARK  Name = 
REMARK  8 active torsions:
REMARK  status: ('A' for Active; 'I' for Inactive)
REMARK    1  A    between atoms: C_1  and  C_2
REMARK    2  A    between atoms: C_2  and  C_3
REMARK    3  A    between atoms: C_2  and  C_4
REMARK    4  A    between atoms: C_7  and  C_8
REMARK    5  A    between atoms: C_8  and  N_9
REMARK    6  A    between atoms: N_9  and  C_10
REMARK    7  A    between atoms: N_9  and  C_11
REMARK    8  A    between atoms: C_11  and  C_12
REMARK                            x       y       z     vdW  Elec       q    Type
REMARK                         _______ _______ _______ _____ _____    ______ ____
ROOT
ATOM      1  N   UNL     1       5.998   5.933  18.235  0.00  0.00    +0.000 NA
ATOM      2  C   UNL     1       5.905   7.002  17.241  0.00  0.00    +0.000 C 
ENDROOT
BRANCH   1   3
ATOM      3  C   UNL     1       6.537   4.685  17.651  0.00  0.00    +0.000 C 
BRANCH   3   7
ATOM      4  C   UNL     1       6.560   4.223  14.124  0.00  0.00    +0.000 A 
ATOM      5  N   UNL     1       5.279   3.892  14.358  0.00  0.00    +0.000 NA
ATOM      6  O   UNL     1       5.149   4.099  15.735  0.00  0.00    +0.000 OA
ATOM      7  C   UNL     1       6.365   4.529  16.176  0.00  0.00    +0.000 A 
ATOM      8  N   UNL     1       7.248   4.657  15.212  0.00  0.00    +0.000 NA
BRANCH   4  10
ATOM      9  C   UNL     1       6.285   3.394  11.805  0.00  0.00    +0.000 C 
ATOM     10  C   UNL     1       7.229   4.058  12.806  0.00  0.00    +0.000 C 
ATOM     11  C   UNL     1       7.709   5.407  12.264  0.00  0.00    +0.000 C 
ENDBRANCH   4  10
ENDBRANCH   3   7
ENDBRANCH   1   3
BRANCH   1  12
ATOM     12  C   UNL     1       4.724   5.778  18.958  0.00  0.00    +0.000 C 
BRANCH  12  13
ATOM     13  C   UNL     1       3.402   5.883  18.145  0.00  0.00    +0.000 C 
ATOM     14  C   UNL     1       2.762   7.261  18.389  0.00  0.00    +0.000 C 
ATOM     15  C   UNL     1       2.255   7.423  19.820  0.00  0.00    +0.000 C 
ATOM     16  C   UNL     1       1.694   6.147  20.495  0.00  0.00    +0.000 C 
ATOM     17  N   UNL     1       1.999   4.844  19.908  0.00  0.00    +0.000 NA
ATOM     18  C   UNL     1       0.973   3.860  20.273  0.00  0.00    +0.000 C 
ATOM     19  C   UNL     1       1.397   2.450  19.869  0.00  0.00    +0.000 C 
ATOM     20  C   UNL     1       1.646   2.375  18.370  0.00  0.00    +0.000 C 
ATOM     21  C   UNL     1       2.678   3.422  17.974  0.00  0.00    +0.000 C 
ATOM     22  C   UNL     1       2.307   4.833  18.475  0.00  0.00    +0.000 C 
ENDBRANCH  12  13
ENDBRANCH   1  12
TORSDOF 5
ENDMDL
MODEL 7
REMARK VINA RESULT:      -7.3      1.170      1.526
REMARK  Name = 
REMARK  8 active torsions:
REMARK  status: ('A' for Active; 'I' for Inactive)
REMARK    1  A    between atoms: C_1  and  C_2
REMARK    2  A    between atoms: C_2  and  C_3
REMARK    3  A    between atoms: C_2  and  C_4
REMARK    4  A    between atoms: C_7  and  C_8
REMARK    5  A    between atoms: C_8  and  N_9
REMARK    6  A    between atoms: N_9  and  C_10
REMARK    7  A    between atoms: N_9  and  C_11
REMARK    8  A    between atoms: C_11  and  C_12
REMARK                            x       y       z     vdW  Elec       q    Type
REMARK                         _______ _______ _______ _____ _____    ______ ____
ROOT
ATOM      1  N   UNL     1       4.867   5.710  17.950  0.00  0.00    +0.000 NA
ATOM      2  C   UNL     1       6.007   5.349  18.792  0.00  0.00    +0.000 C 
ENDROOT
BRANCH   1   3
ATOM      3  C   UNL     1       5.287   6.461  16.747  0.00  0.00    +0.000 C 
BRANCH   3   7
ATOM      4  C   UNL     1       6.630   4.552  14.062  0.00  0.00    +0.000 A 
ATOM      5  N   UNL     1       7.749   5.204  14.420  0.00  0.00    +0.000 NA
ATOM      6  O   UNL     1       7.335   5.953  15.526  0.00  0.00    +0.000 OA
ATOM      7  C   UNL     1       6.014   5.671  15.708  0.00  0.00    +0.000 A 
ATOM      8  N   UNL     1       5.553   4.785  14.855  0.00  0.00    +0.000 NA
BRANCH   4  10
ATOM      9  C   UNL     1       5.056   3.447  12.500  0.00  0.00    +0.000 C 
ATOM     10  C   UNL     1       6.521   3.702  12.847  0.00  0.00    +0.000 C 
ATOM     11  C   UNL     1       7.240   4.351  11.660  0.00  0.00    +0.000 C 
ENDBRANCH   4  10
ENDBRANCH   3   7
ENDBRANCH   1   3
BRANCH   1  12
ATOM     12  C   UNL     1       3.811   6.358  18.747  0.00  0.00    +0.000 C 
BRANCH  12  13
ATOM     13  C   UNL     1       2.346   5.870  18.558  0.00  0.00    +0.000 C 
ATOM     14  C   UNL     1       1.466   6.457  19.676  0.00  0.00    +0.000 C 
ATOM     15  C   UNL     1       1.806   5.881  21.049  0.00  0.00    +0.000 C 
ATOM     16  C   UNL     1       2.255   4.400  21.076  0.00  0.00    +0.000 C 
ATOM     17  N   UNL     1       2.670   3.763  19.829  0.00  0.00    +0.000 NA
ATOM     18  C   UNL     1       2.490   2.308  19.906  0.00  0.00    +0.000 C 
ATOM     19  C   UNL     1       3.136   1.612  18.710  0.00  0.00    +0.000 C 
ATOM     20  C   UNL     1       2.533   2.117  17.408  0.00  0.00    +0.000 C 
ATOM     21  C   UNL     1       2.675   3.632  17.337  0.00  0.00    +0.000 C 
ATOM     22  C   UNL     1       2.122   4.335  18.595  0.00  0.00    +0.000 C 
ENDBRANCH  12  13
ENDBRANCH   1  12
TORSDOF 5
ENDMDL
MODEL 8
REMARK VINA RESULT:      -7.3      1.689      2.556
REMARK  Name = 
REMARK  8 active torsions:
REMARK  status: ('A' for Active; 'I' for Inactive)
REMARK    1  A    between atoms: C_1  and  C_2
REMARK    2  A    between atoms: C_2  and  C_3
REMARK    3  A    between atoms: C_2  and  C_4
REMARK    4  A    between atoms: C_7  and  C_8
REMARK    5  A    between atoms: C_8  and  N_9
REMARK    6  A    between atoms: N_9  and  C_10
REMARK    7  A    between atoms: N_9  and  C_11
REMARK    8  A    between atoms: C_11  and  C_12
REMARK                            x       y       z     vdW  Elec       q    Type
REMARK                         _______ _______ _______ _____ _____    ______ ____
ROOT
ATOM      1  N   UNL     1       6.237   4.523  17.535  0.00  0.00    +0.000 NA
ATOM      2  C   UNL     1       7.441   4.930  18.259  0.00  0.00    +0.000 C 
ENDROOT
BRANCH   1   3
ATOM      3  C   UNL     1       5.934   5.440  16.414  0.00  0.00    +0.000 C 
BRANCH   3   7
ATOM      4  C   UNL     1       6.534   4.264  13.110  0.00  0.00    +0.000 A 
ATOM      5  N   UNL     1       7.601   5.072  13.230  0.00  0.00    +0.000 NA
ATOM      6  O   UNL     1       7.488   5.549  14.539  0.00  0.00    +0.000 OA
ATOM      7  C   UNL     1       6.366   4.978  15.061  0.00  0.00    +0.000 A 
ATOM      8  N   UNL     1       5.773   4.152  14.229  0.00  0.00    +0.000 NA
BRANCH   4  10
ATOM      9  C   UNL     1       6.909   2.291  11.659  0.00  0.00    +0.000 C 
ATOM     10  C   UNL     1       6.140   3.598  11.841  0.00  0.00    +0.000 C 
ATOM     11  C   UNL     1       4.632   3.331  11.809  0.00  0.00    +0.000 C 
ENDBRANCH   4  10
ENDBRANCH   3   7
ENDBRANCH   1   3
BRANCH   1  12
ATOM     12  C   UNL     1       5.119   4.292  18.465  0.00  0.00    +0.000 C 
BRANCH  12  13
ATOM     13  C   UNL     1       4.348   2.945  18.365  0.00  0.00    +0.000 C 
ATOM     14  C   UNL     1       3.775   2.792  16.945  0.00  0.00    +0.000 C 
ATOM     15  C   UNL     1       2.667   3.800  16.651  0.00  0.00    +0.000 C 
ATOM     16  C   UNL     1       1.760   4.187  17.845  0.00  0.00    +0.000 C 
ATOM     17  N   UNL     1       2.206   3.877  19.201  0.00  0.00    +0.000 NA
ATOM     18  C   UNL     1       1.057   3.756  20.108  0.00  0.00    +0.000 C 
ATOM     19  C   UNL     1       1.514   3.668  21.562  0.00  0.00    +0.000 C 
ATOM     20  C   UNL     1       2.432   2.473  21.763  0.00  0.00    +0.000 C 
ATOM     21  C   UNL     1       3.606   2.566  20.797  0.00  0.00    +0.000 C 
ATOM     22  C   UNL     1       3.151   2.764  19.336  0.00  0.00    +0.000 C 
ENDBRANCH  12  13
ENDBRANCH   1  12
TORSDOF 5
ENDMDL
MODEL 9
REMARK VINA RESULT:      -7.3      1.051      1.422
REMARK  Name = 
REMARK  8 active torsions:
REMARK  status: ('A' for Active; 'I' for Inactive)
REMARK    1  A    between atoms: C_1  and  C_2
REMARK    2  A    between atoms: C_2  and  C_3
REMARK    3  A    between atoms: C_2  and  C_4
REMARK    4  A    between atoms: C_7  and  C_8
REMARK    5  A    between atoms: C_8  and  N_9
REMARK    6  A    between atoms: N_9  and  C_10
REMARK    7  A    between atoms: N_9  and  C_11
REMARK    8  A    between atoms: C_11  and  C_12
REMARK                            x       y       z     vdW  Elec       q    Type
REMARK                         _______ _______ _______ _____ _____    ______ ____
ROOT
ATOM      1  N   UNL     1       5.972   5.490  18.506  0.00  0.00    +0.000 NA
ATOM      2  C   UNL     1       7.109   5.692  19.404  0.00  0.00    +0.000 C 
ENDROOT
BRANCH   1   3
ATOM      3  C   UNL     1       6.165   6.179  17.211  0.00  0.00    +0.000 C 
BRANCH   3   7
ATOM      4  C   UNL     1       6.143   4.460  14.096  0.00  0.00    +0.000 A 
ATOM      5  N   UNL     1       6.228   3.394  14.910  0.00  0.00    +0.000 NA
ATOM      6  O   UNL     1       6.185   3.968  16.184  0.00  0.00    +0.000 OA
ATOM      7  C   UNL     1       6.081   5.314  15.996  0.00  0.00    +0.000 A 
ATOM      8  N   UNL     1       6.013   5.654  14.729  0.00  0.00    +0.000 NA
BRANCH   4  10
ATOM      9  C   UNL     1       7.665   4.802  12.171  0.00  0.00    +0.000 C 
ATOM     10  C   UNL     1       6.265   4.383  12.616  0.00  0.00    +0.000 C 
ATOM     11  C   UNL     1       5.953   2.970  12.115  0.00  0.00    +0.000 C 
ENDBRANCH   4  10
ENDBRANCH   3   7
ENDBRANCH   1   3
BRANCH   1  12
ATOM     12  C   UNL     1       4.705   5.799  19.189  0.00  0.00    +0.000 C 
BRANCH  12  13
ATOM     13  C   UNL     1       3.405   5.846  18.336  0.00  0.00    +0.000 C 
ATOM     14  C   UNL     1       2.719   7.210  18.528  0.00  0.00    +0.000 C 
ATOM     15  C   UNL     1       2.165   7.391  19.939  0.00  0.00    +0.000 C 
ATOM     16  C   UNL     1       1.621   6.115  20.628  0.00  0.00    +0.000 C 
ATOM     17  N   UNL     1       1.981   4.808  20.083  0.00  0.00    +0.000 NA
ATOM     18  C   UNL     1       0.972   3.804  20.441  0.00  0.00    +0.000 C 
ATOM     19  C   UNL     1       1.448   2.398  20.085  0.00  0.00    +0.000 C 
ATOM     20  C   UNL     1       1.743   2.295  18.596  0.00  0.00    +0.000 C 
ATOM     21  C   UNL     1       2.756   3.362  18.204  0.00  0.00    +0.000 C 
ATOM     22  C   UNL     1       2.331   4.773  18.660  0.00  0.00    +0.000 C 
ENDBRANCH  12  13
ENDBRANCH   1  12
TORSDOF 5
ENDMDL
