MODEL 1
REMARK VINA RESULT:      -6.9      0.000      0.000
REMARK  Name = 
REMARK  13 active torsions:
REMARK  status: ('A' for Active; 'I' for Inactive)
REMARK    1  A    between atoms: C_1  and  C_2
REMARK    2  A    between atoms: C_2  and  C_3
REMARK    3  A    between atoms: C_3  and  C_4
REMARK    4  A    between atoms: C_4  and  C_5
REMARK    5  A    between atoms: C_5  and  C_6
REMARK    6  A    between atoms: C_6  and  C_7
REMARK    7  A    between atoms: C_7  and  C_8
REMARK    8  A    between atoms: C_8  and  C_9
REMARK    9  A    between atoms: N_11  and  C_12
REMARK   10  A    between atoms: C_12  and  C_13
REMARK   11  A    between atoms: C_16  and  S_17
REMARK   12  A    between atoms: C_18  and  O_19
REMARK   13  A    between atoms: O_19  and  C_20
REMARK                            x       y       z     vdW  Elec       q    Type
REMARK                         _______ _______ _______ _____ _____    ______ ____
ROOT
ATOM      1  C   UNL     1       6.463   5.626  15.975  0.00  0.00    +0.000 C 
ATOM      2  O   UNL     1       7.088   6.484  16.597  0.00  0.00    +0.000 OA
ATOM      3  N   UNL     1       5.110   5.430  16.115  0.00  0.00    +0.000 N 
ATOM      4  H   UNL     1       4.650   4.686  15.609  0.00  0.00    +0.000 HD
ENDROOT
BRANCH   1   5
ATOM      5  C   UNL     1       7.154   4.687  15.005  0.00  0.00    +0.000 C 
BRANCH   5   6
ATOM      6  C   UNL     1       6.195   3.942  14.081  0.00  0.00    +0.000 C 
BRANCH   6   7
ATOM      7  C   UNL     1       6.519   4.164  12.603  0.00  0.00    +0.000 C 
BRANCH   7   8
ATOM      8  C   UNL     1       6.584   2.834  11.852  0.00  0.00    +0.000 C 
BRANCH   8   9
ATOM      9  C   UNL     1       5.184   2.309  11.541  0.00  0.00    +0.000 C 
BRANCH   9  10
ATOM     10  C   UNL     1       4.191   3.461  11.397  0.00  0.00    +0.000 C 
BRANCH  10  12
ATOM     11  C   UNL     1       2.915   4.297   9.401  0.00  0.00    +0.000 C 
ATOM     12  C   UNL     1       3.116   3.139  10.362  0.00  0.00    +0.000 C 
ENDBRANCH  10  12
ENDBRANCH   9  10
ENDBRANCH   8   9
ENDBRANCH   7   8
ENDBRANCH   6   7
ENDBRANCH   5   6
ENDBRANCH   1   5
BRANCH   3  13
ATOM     13  C   UNL     1       4.292   6.275  16.967  0.00  0.00    +0.000 C 
BRANCH  13  14
ATOM     14  C   UNL     1       3.562   5.471  18.013  0.00  0.00    +0.000 A 
ATOM     15  C   UNL     1       3.086   6.091  19.169  0.00  0.00    +0.000 A 
ATOM     16  C   UNL     1       2.458   5.339  20.165  0.00  0.00    +0.000 A 
ATOM     17  C   UNL     1       2.269   3.951  20.033  0.00  0.00    +0.000 A 
ATOM     18  C   UNL     1       2.672   3.330  18.835  0.00  0.00    +0.000 A 
ATOM     19  C   UNL     1       3.325   4.097  17.849  0.00  0.00    +0.000 A 
BRANCH  17  20
ATOM     20  S   UNL     1       1.621   3.109  21.475  0.00  0.00    +0.000 S 
ATOM     21  H   UNL     1       2.648   3.329  22.306  0.00  0.00    +0.000 HD
ENDBRANCH  17  20
BRANCH  18  22
ATOM     22  O   UNL     1       2.598   2.001  18.503  0.00  0.00    +0.000 OA
ATOM     23  C   UNL     1       3.802   1.321  18.169  0.00  0.00    +0.000 C 
ENDBRANCH  18  22
ENDBRANCH  13  14
ENDBRANCH   3  13
TORSDOF 11
ENDMDL
MODEL 2
REMARK VINA RESULT:      -6.4      3.904      6.942
REMARK  Name = 
REMARK  13 active torsions:
REMARK  status: ('A' for Active; 'I' for Inactive)
REMARK    1  A    between atoms: C_1  and  C_2
REMARK    2  A    between atoms: C_2  and  C_3
REMARK    3  A    between atoms: C_3  and  C_4
REMARK    4  A    between atoms: C_4  and  C_5
REMARK    5  A    between atoms: C_5  and  C_6
REMARK    6  A    between atoms: C_6  and  C_7
REMARK    7  A    between atoms: C_7  and  C_8
REMARK    8  A    between atoms: C_8  and  C_9
REMARK    9  A    between atoms: N_11  and  C_12
REMARK   10  A    between atoms: C_12  and  C_13
REMARK   11  A    between atoms: C_16  and  S_17
REMARK   12  A    between atoms: C_18  and  O_19
REMARK   13  A    between atoms: O_19  and  C_20
REMARK                            x       y       z     vdW  Elec       q    Type
REMARK                         _______ _______ _______ _____ _____    ______ ____
ROOT
ATOM      1  C   UNL     1       2.532   2.639  17.963  0.00  0.00    +0.000 C 
ATOM      2  O   UNL     1       1.831   3.139  17.085  0.00  0.00    +0.000 OA
ATOM      3  N   UNL     1       3.896   2.503  17.852  0.00  0.00    +0.000 N 
ATOM      4  H   UNL     1       4.421   2.051  18.586  0.00  0.00    +0.000 HD
ENDROOT
BRANCH   1   5
ATOM      5  C   UNL     1       1.933   2.104  19.250  0.00  0.00    +0.000 C 
BRANCH   5   6
ATOM      6  C   UNL     1       2.722   2.484  20.500  0.00  0.00    +0.000 C 
BRANCH   6   7
ATOM      7  C   UNL     1       1.950   3.443  21.407  0.00  0.00    +0.000 C 
BRANCH   7   8
ATOM      8  C   UNL     1       1.127   4.432  20.582  0.00  0.00    +0.000 C 
BRANCH   8   9
ATOM      9  C   UNL     1       1.751   5.826  20.612  0.00  0.00    +0.000 C 
BRANCH   9  10
ATOM     10  C   UNL     1       2.929   5.916  19.643  0.00  0.00    +0.000 C 
BRANCH  10  12
ATOM     11  C   UNL     1       2.957   7.739  17.914  0.00  0.00    +0.000 C 
ATOM     12  C   UNL     1       2.469   6.341  18.250  0.00  0.00    +0.000 C 
ENDBRANCH  10  12
ENDBRANCH   9  10
ENDBRANCH   8   9
ENDBRANCH   7   8
ENDBRANCH   6   7
ENDBRANCH   5   6
ENDBRANCH   1   5
BRANCH   3  13
ATOM     13  C   UNL     1       4.631   3.007  16.705  0.00  0.00    +0.000 C 
BRANCH  13  14
ATOM     14  C   UNL     1       5.328   4.307  17.018  0.00  0.00    +0.000 A 
ATOM     15  C   UNL     1       5.420   5.305  16.047  0.00  0.00    +0.000 A 
ATOM     16  C   UNL     1       6.113   6.489  16.316  0.00  0.00    +0.000 A 
ATOM     17  C   UNL     1       6.719   6.720  17.564  0.00  0.00    +0.000 A 
ATOM     18  C   UNL     1       6.562   5.756  18.577  0.00  0.00    +0.000 A 
ATOM     19  C   UNL     1       5.880   4.557  18.285  0.00  0.00    +0.000 A 
BRANCH  17  20
ATOM     20  S   UNL     1       7.725   8.198  17.682  0.00  0.00    +0.000 S 
ATOM     21  H   UNL     1       6.762   9.061  18.032  0.00  0.00    +0.000 HD
ENDBRANCH  17  20
BRANCH  18  22
ATOM     22  O   UNL     1       7.076   5.770  19.849  0.00  0.00    +0.000 OA
ATOM     23  C   UNL     1       8.407   5.306  20.044  0.00  0.00    +0.000 C 
ENDBRANCH  18  22
ENDBRANCH  13  14
ENDBRANCH   3  13
TORSDOF 11
ENDMDL
MODEL 3
REMARK VINA RESULT:      -6.4      1.606      2.334
REMARK  Name = 
REMARK  13 active torsions:
REMARK  status: ('A' for Active; 'I' for Inactive)
REMARK    1  A    between atoms: C_1  and  C_2
REMARK    2  A    between atoms: C_2  and  C_3
REMARK    3  A    between atoms: C_3  and  C_4
REMARK    4  A    between atoms: C_4  and  C_5
REMARK    5  A    between atoms: C_5  and  C_6
REMARK    6  A    between atoms: C_6  and  C_7
REMARK    7  A    between atoms: C_7  and  C_8
REMARK    8  A    between atoms: C_8  and  C_9
REMARK    9  A    between atoms: N_11  and  C_12
REMARK   10  A    between atoms: C_12  and  C_13
REMARK   11  A    between atoms: C_16  and  S_17
REMARK   12  A    between atoms: C_18  and  O_19
REMARK   13  A    between atoms: O_19  and  C_20
REMARK                            x       y       z     vdW  Elec       q    Type
REMARK                         _______ _______ _______ _____ _____    ______ ____
ROOT
ATOM      1  C   UNL     1       5.950   4.786  15.839  0.00  0.00    +0.000 C 
ATOM      2  O   UNL     1       5.287   5.816  15.730  0.00  0.00    +0.000 OA
ATOM      3  N   UNL     1       6.498   4.364  17.027  0.00  0.00    +0.000 N 
ATOM      4  H   UNL     1       7.066   3.530  17.055  0.00  0.00    +0.000 HD
ENDROOT
BRANCH   1   5
ATOM      5  C   UNL     1       6.237   3.896  14.644  0.00  0.00    +0.000 C 
BRANCH   5   6
ATOM      6  C   UNL     1       7.089   4.566  13.569  0.00  0.00    +0.000 C 
BRANCH   6   7
ATOM      7  C   UNL     1       6.607   4.238  12.155  0.00  0.00    +0.000 C 
BRANCH   7   8
ATOM      8  C   UNL     1       6.635   2.731  11.904  0.00  0.00    +0.000 C 
BRANCH   8   9
ATOM      9  C   UNL     1       5.272   2.227  11.434  0.00  0.00    +0.000 C 
BRANCH   9  10
ATOM     10  C   UNL     1       4.263   3.371  11.366  0.00  0.00    +0.000 C 
BRANCH  10  12
ATOM     11  C   UNL     1       2.853   4.398   9.558  0.00  0.00    +0.000 C 
ATOM     12  C   UNL     1       3.209   3.117  10.291  0.00  0.00    +0.000 C 
ENDBRANCH  10  12
ENDBRANCH   9  10
ENDBRANCH   8   9
ENDBRANCH   7   8
ENDBRANCH   6   7
ENDBRANCH   5   6
ENDBRANCH   1   5
BRANCH   3  13
ATOM     13  C   UNL     1       6.277   5.075  18.274  0.00  0.00    +0.000 C 
BRANCH  13  14
ATOM     14  C   UNL     1       4.985   4.659  18.931  0.00  0.00    +0.000 A 
ATOM     15  C   UNL     1       4.831   3.359  19.414  0.00  0.00    +0.000 A 
ATOM     16  C   UNL     1       3.616   2.954  19.974  0.00  0.00    +0.000 A 
ATOM     17  C   UNL     1       2.525   3.835  20.083  0.00  0.00    +0.000 A 
ATOM     18  C   UNL     1       2.697   5.172  19.674  0.00  0.00    +0.000 A 
ATOM     19  C   UNL     1       3.920   5.560  19.090  0.00  0.00    +0.000 A 
BRANCH  17  20
ATOM     20  S   UNL     1       0.988   3.110  20.646  0.00  0.00    +0.000 S 
ATOM     21  H   UNL     1       0.913   2.104  19.765  0.00  0.00    +0.000 HD
ENDBRANCH  17  20
BRANCH  18  22
ATOM     22  O   UNL     1       1.771   6.185  19.678  0.00  0.00    +0.000 OA
ATOM     23  C   UNL     1       2.067   7.365  20.416  0.00  0.00    +0.000 C 
ENDBRANCH  18  22
ENDBRANCH  13  14
ENDBRANCH   3  13
TORSDOF 11
ENDMDL
MODEL 4
REMARK VINA RESULT:      -6.4      3.881      6.704
REMARK  Name = 
REMARK  13 active torsions:
REMARK  status: ('A' for Active; 'I' for Inactive)
REMARK    1  A    between atoms: C_1  and  C_2
REMARK    2  A    between atoms: C_2  and  C_3
REMARK    3  A    between atoms: C_3  and  C_4
REMARK    4  A    between atoms: C_4  and  C_5
REMARK    5  A    between atoms: C_5  and  C_6
REMARK    6  A    between atoms: C_6  and  C_7
REMARK    7  A    between atoms: C_7  and  C_8
REMARK    8  A    between atoms: C_8  and  C_9
REMARK    9  A    between atoms: N_11  and  C_12
REMARK   10  A    between atoms: C_12  and  C_13
REMARK   11  A    between atoms: C_16  and  S_17
REMARK   12  A    between atoms: C_18  and  O_19
REMARK   13  A    between atoms: O_19  and  C_20
REMARK                            x       y       z     vdW  Elec       q    Type
REMARK                         _______ _______ _______ _____ _____    ______ ____
ROOT
ATOM      1  C   UNL     1       5.878   6.606  16.590  0.00  0.00    +0.000 C 
ATOM      2  O   UNL     1       5.437   6.529  15.444  0.00  0.00    +0.000 OA
ATOM      3  N   UNL     1       5.077   6.727  17.700  0.00  0.00    +0.000 N 
ATOM      4  H   UNL     1       5.491   6.825  18.616  0.00  0.00    +0.000 HD
ENDROOT
BRANCH   1   5
ATOM      5  C   UNL     1       7.370   6.595  16.869  0.00  0.00    +0.000 C 
BRANCH   5   6
ATOM      6  C   UNL     1       7.771   7.398  18.103  0.00  0.00    +0.000 C 
BRANCH   6   7
ATOM      7  C   UNL     1       8.031   8.870  17.781  0.00  0.00    +0.000 C 
BRANCH   7   8
ATOM      8  C   UNL     1       8.976   9.495  18.808  0.00  0.00    +0.000 C 
BRANCH   8   9
ATOM      9  C   UNL     1       9.093  11.003  18.599  0.00  0.00    +0.000 C 
BRANCH   9  10
ATOM     10  C   UNL     1      10.408  11.356  17.905  0.00  0.00    +0.000 C 
BRANCH  10  12
ATOM     11  C   UNL     1      11.004  12.048  20.245  0.00  0.00    +0.000 C 
ATOM     12  C   UNL     1      11.536  11.539  18.917  0.00  0.00    +0.000 C 
ENDBRANCH  10  12
ENDBRANCH   9  10
ENDBRANCH   8   9
ENDBRANCH   7   8
ENDBRANCH   6   7
ENDBRANCH   5   6
ENDBRANCH   1   5
BRANCH   3  13
ATOM     13  C   UNL     1       3.627   6.705  17.610  0.00  0.00    +0.000 C 
BRANCH  13  14
ATOM     14  C   UNL     1       3.026   5.707  18.567  0.00  0.00    +0.000 A 
ATOM     15  C   UNL     1       2.411   6.143  19.741  0.00  0.00    +0.000 A 
ATOM     16  C   UNL     1       1.901   5.218  20.656  0.00  0.00    +0.000 A 
ATOM     17  C   UNL     1       1.974   3.833  20.422  0.00  0.00    +0.000 A 
ATOM     18  C   UNL     1       2.519   3.385  19.203  0.00  0.00    +0.000 A 
ATOM     19  C   UNL     1       3.049   4.328  18.300  0.00  0.00    +0.000 A 
BRANCH  17  20
ATOM     20  S   UNL     1       1.449   2.782  21.774  0.00  0.00    +0.000 S 
ATOM     21  H   UNL     1       2.348   3.174  22.685  0.00  0.00    +0.000 HD
ENDBRANCH  17  20
BRANCH  18  22
ATOM     22  O   UNL     1       2.699   2.093  18.778  0.00  0.00    +0.000 OA
ATOM     23  C   UNL     1       3.527   1.865  17.643  0.00  0.00    +0.000 C 
ENDBRANCH  18  22
ENDBRANCH  13  14
ENDBRANCH   3  13
TORSDOF 11
ENDMDL
MODEL 5
REMARK VINA RESULT:      -6.3      3.289      6.953
REMARK  Name = 
REMARK  13 active torsions:
REMARK  status: ('A' for Active; 'I' for Inactive)
REMARK    1  A    between atoms: C_1  and  C_2
REMARK    2  A    between atoms: C_2  and  C_3
REMARK    3  A    between atoms: C_3  and  C_4
REMARK    4  A    between atoms: C_4  and  C_5
REMARK    5  A    between atoms: C_5  and  C_6
REMARK    6  A    between atoms: C_6  and  C_7
REMARK    7  A    between atoms: C_7  and  C_8
REMARK    8  A    between atoms: C_8  and  C_9
REMARK    9  A    between atoms: N_11  and  C_12
REMARK   10  A    between atoms: C_12  and  C_13
REMARK   11  A    between atoms: C_16  and  S_17
REMARK   12  A    between atoms: C_18  and  O_19
REMARK   13  A    between atoms: O_19  and  C_20
REMARK                            x       y       z     vdW  Elec       q    Type
REMARK                         _______ _______ _______ _____ _____    ______ ____
ROOT
ATOM      1  C   UNL     1       2.330   2.747  19.281  0.00  0.00    +0.000 C 
ATOM      2  O   UNL     1       3.029   2.080  20.042  0.00  0.00    +0.000 OA
ATOM      3  N   UNL     1       2.748   3.157  18.038  0.00  0.00    +0.000 N 
ATOM      4  H   UNL     1       2.149   3.735  17.466  0.00  0.00    +0.000 HD
ENDROOT
BRANCH   1   5
ATOM      5  C   UNL     1       0.933   3.194  19.672  0.00  0.00    +0.000 C 
BRANCH   5   6
ATOM      6  C   UNL     1       0.874   4.618  20.219  0.00  0.00    +0.000 C 
BRANCH   6   7
ATOM      7  C   UNL     1       2.264   5.202  20.474  0.00  0.00    +0.000 C 
BRANCH   7   8
ATOM      8  C   UNL     1       2.353   6.643  19.971  0.00  0.00    +0.000 C 
BRANCH   8   9
ATOM      9  C   UNL     1       2.415   6.689  18.446  0.00  0.00    +0.000 C 
BRANCH   9  10
ATOM     10  C   UNL     1       2.797   8.085  17.959  0.00  0.00    +0.000 C 
BRANCH  10  12
ATOM     11  C   UNL     1       1.480  10.165  18.463  0.00  0.00    +0.000 C 
ATOM     12  C   UNL     1       1.559   8.909  17.612  0.00  0.00    +0.000 C 
ENDBRANCH  10  12
ENDBRANCH   9  10
ENDBRANCH   8   9
ENDBRANCH   7   8
ENDBRANCH   6   7
ENDBRANCH   5   6
ENDBRANCH   1   5
BRANCH   3  13
ATOM     13  C   UNL     1       4.039   2.773  17.493  0.00  0.00    +0.000 C 
BRANCH  13  14
ATOM     14  C   UNL     1       5.022   3.916  17.531  0.00  0.00    +0.000 A 
ATOM     15  C   UNL     1       5.295   4.565  18.736  0.00  0.00    +0.000 A 
ATOM     16  C   UNL     1       6.164   5.660  18.766  0.00  0.00    +0.000 A 
ATOM     17  C   UNL     1       6.799   6.128  17.601  0.00  0.00    +0.000 A 
ATOM     18  C   UNL     1       6.594   5.429  16.396  0.00  0.00    +0.000 A 
ATOM     19  C   UNL     1       5.698   4.342  16.377  0.00  0.00    +0.000 A 
BRANCH  17  20
ATOM     20  S   UNL     1       7.728   7.649  17.776  0.00  0.00    +0.000 S 
ATOM     21  H   UNL     1       6.775   8.505  17.383  0.00  0.00    +0.000 HD
ENDBRANCH  17  20
BRANCH  18  22
ATOM     22  O   UNL     1       7.097   5.718  15.153  0.00  0.00    +0.000 OA
ATOM     23  C   UNL     1       6.996   4.726  14.137  0.00  0.00    +0.000 C 
ENDBRANCH  18  22
ENDBRANCH  13  14
ENDBRANCH   3  13
TORSDOF 11
ENDMDL
MODEL 6
REMARK VINA RESULT:      -6.3      4.715      7.697
REMARK  Name = 
REMARK  13 active torsions:
REMARK  status: ('A' for Active; 'I' for Inactive)
REMARK    1  A    between atoms: C_1  and  C_2
REMARK    2  A    between atoms: C_2  and  C_3
REMARK    3  A    between atoms: C_3  and  C_4
REMARK    4  A    between atoms: C_4  and  C_5
REMARK    5  A    between atoms: C_5  and  C_6
REMARK    6  A    between atoms: C_6  and  C_7
REMARK    7  A    between atoms: C_7  and  C_8
REMARK    8  A    between atoms: C_8  and  C_9
REMARK    9  A    between atoms: N_11  and  C_12
REMARK   10  A    between atoms: C_12  and  C_13
REMARK   11  A    between atoms: C_16  and  S_17
REMARK   12  A    between atoms: C_18  and  O_19
REMARK   13  A    between atoms: O_19  and  C_20
REMARK                            x       y       z     vdW  Elec       q    Type
REMARK                         _______ _______ _______ _____ _____    ______ ____
ROOT
ATOM      1  C   UNL     1       7.380   6.507  17.490  0.00  0.00    +0.000 C 
ATOM      2  O   UNL     1       7.743   5.334  17.560  0.00  0.00    +0.000 OA
ATOM      3  N   UNL     1       6.291   6.917  16.758  0.00  0.00    +0.000 N 
ATOM      4  H   UNL     1       6.057   7.898  16.704  0.00  0.00    +0.000 HD
ENDROOT
BRANCH   1   5
ATOM      5  C   UNL     1       8.132   7.615  18.204  0.00  0.00    +0.000 C 
BRANCH   5   6
ATOM      6  C   UNL     1       7.715   9.019  17.771  0.00  0.00    +0.000 C 
BRANCH   6   7
ATOM      7  C   UNL     1       8.858  10.028  17.891  0.00  0.00    +0.000 C 
BRANCH   7   8
ATOM      8  C   UNL     1       9.257  10.232  19.352  0.00  0.00    +0.000 C 
BRANCH   8   9
ATOM      9  C   UNL     1       9.538  11.704  19.645  0.00  0.00    +0.000 C 
BRANCH   9  10
ATOM     10  C   UNL     1      10.697  11.852  20.629  0.00  0.00    +0.000 C 
BRANCH  10  12
ATOM     11  C   UNL     1      12.333  13.172  19.254  0.00  0.00    +0.000 C 
ATOM     12  C   UNL     1      12.042  11.832  19.908  0.00  0.00    +0.000 C 
ENDBRANCH  10  12
ENDBRANCH   9  10
ENDBRANCH   8   9
ENDBRANCH   7   8
ENDBRANCH   6   7
ENDBRANCH   5   6
ENDBRANCH   1   5
BRANCH   3  13
ATOM     13  C   UNL     1       5.435   5.977  16.056  0.00  0.00    +0.000 C 
BRANCH  13  14
ATOM     14  C   UNL     1       4.446   5.323  16.987  0.00  0.00    +0.000 A 
ATOM     15  C   UNL     1       4.037   4.007  16.764  0.00  0.00    +0.000 A 
ATOM     16  C   UNL     1       3.079   3.416  17.593  0.00  0.00    +0.000 A 
ATOM     17  C   UNL     1       2.513   4.111  18.677  0.00  0.00    +0.000 A 
ATOM     18  C   UNL     1       2.979   5.409  18.960  0.00  0.00    +0.000 A 
ATOM     19  C   UNL     1       3.928   6.001  18.102  0.00  0.00    +0.000 A 
BRANCH  17  20
ATOM     20  S   UNL     1       1.168   3.282  19.520  0.00  0.00    +0.000 S 
ATOM     21  H   UNL     1       1.017   2.251  18.678  0.00  0.00    +0.000 HD
ENDBRANCH  17  20
BRANCH  18  22
ATOM     22  O   UNL     1       2.559   6.264  19.948  0.00  0.00    +0.000 OA
ATOM     23  C   UNL     1       2.083   7.551  19.570  0.00  0.00    +0.000 C 
ENDBRANCH  18  22
ENDBRANCH  13  14
ENDBRANCH   3  13
TORSDOF 11
ENDMDL
MODEL 7
REMARK VINA RESULT:      -6.3      3.303      7.528
REMARK  Name = 
REMARK  13 active torsions:
REMARK  status: ('A' for Active; 'I' for Inactive)
REMARK    1  A    between atoms: C_1  and  C_2
REMARK    2  A    between atoms: C_2  and  C_3
REMARK    3  A    between atoms: C_3  and  C_4
REMARK    4  A    between atoms: C_4  and  C_5
REMARK    5  A    between atoms: C_5  and  C_6
REMARK    6  A    between atoms: C_6  and  C_7
REMARK    7  A    between atoms: C_7  and  C_8
REMARK    8  A    between atoms: C_8  and  C_9
REMARK    9  A    between atoms: N_11  and  C_12
REMARK   10  A    between atoms: C_12  and  C_13
REMARK   11  A    between atoms: C_16  and  S_17
REMARK   12  A    between atoms: C_18  and  O_19
REMARK   13  A    between atoms: O_19  and  C_20
REMARK                            x       y       z     vdW  Elec       q    Type
REMARK                         _______ _______ _______ _____ _____    ______ ____
ROOT
ATOM      1  C   UNL     1       1.708   3.358  18.367  0.00  0.00    +0.000 C 
ATOM      2  O   UNL     1       1.276   3.682  17.261  0.00  0.00    +0.000 OA
ATOM      3  N   UNL     1       2.979   2.874  18.567  0.00  0.00    +0.000 N 
ATOM      4  H   UNL     1       3.272   2.587  19.490  0.00  0.00    +0.000 HD
ENDROOT
BRANCH   1   5
ATOM      5  C   UNL     1       0.848   3.451  19.613  0.00  0.00    +0.000 C 
BRANCH   5   6
ATOM      6  C   UNL     1       1.581   4.020  20.825  0.00  0.00    +0.000 C 
BRANCH   6   7
ATOM      7  C   UNL     1       1.455   5.541  20.920  0.00  0.00    +0.000 C 
BRANCH   7   8
ATOM      8  C   UNL     1       2.335   6.230  19.878  0.00  0.00    +0.000 C 
BRANCH   8   9
ATOM      9  C   UNL     1       2.014   7.720  19.786  0.00  0.00    +0.000 C 
BRANCH   9  10
ATOM     10  C   UNL     1       1.243   8.188  21.019  0.00  0.00    +0.000 C 
BRANCH  10  12
ATOM     11  C   UNL     1       0.715   9.956  19.315  0.00  0.00    +0.000 C 
ATOM     12  C   UNL     1       0.509   9.499  20.748  0.00  0.00    +0.000 C 
ENDBRANCH  10  12
ENDBRANCH   9  10
ENDBRANCH   8   9
ENDBRANCH   7   8
ENDBRANCH   6   7
ENDBRANCH   5   6
ENDBRANCH   1   5
BRANCH   3  13
ATOM     13  C   UNL     1       3.944   2.770  17.487  0.00  0.00    +0.000 C 
BRANCH  13  14
ATOM     14  C   UNL     1       4.961   3.882  17.539  0.00  0.00    +0.000 A 
ATOM     15  C   UNL     1       5.154   4.601  18.719  0.00  0.00    +0.000 A 
ATOM     16  C   UNL     1       6.056   5.668  18.756  0.00  0.00    +0.000 A 
ATOM     17  C   UNL     1       6.803   6.040  17.623  0.00  0.00    +0.000 A 
ATOM     18  C   UNL     1       6.676   5.270  16.451  0.00  0.00    +0.000 A 
ATOM     19  C   UNL     1       5.746   4.211  16.422  0.00  0.00    +0.000 A 
BRANCH  17  20
ATOM     20  S   UNL     1       7.767   7.541  17.782  0.00  0.00    +0.000 S 
ATOM     21  H   UNL     1       7.034   8.328  16.985  0.00  0.00    +0.000 HD
ENDBRANCH  17  20
BRANCH  18  22
ATOM     22  O   UNL     1       7.291   5.462  15.240  0.00  0.00    +0.000 OA
ATOM     23  C   UNL     1       6.801   4.745  14.113  0.00  0.00    +0.000 C 
ENDBRANCH  18  22
ENDBRANCH  13  14
ENDBRANCH   3  13
TORSDOF 11
ENDMDL
MODEL 8
REMARK VINA RESULT:      -6.2      3.138      4.088
REMARK  Name = 
REMARK  13 active torsions:
REMARK  status: ('A' for Active; 'I' for Inactive)
REMARK    1  A    between atoms: C_1  and  C_2
REMARK    2  A    between atoms: C_2  and  C_3
REMARK    3  A    between atoms: C_3  and  C_4
REMARK    4  A    between atoms: C_4  and  C_5
REMARK    5  A    between atoms: C_5  and  C_6
REMARK    6  A    between atoms: C_6  and  C_7
REMARK    7  A    between atoms: C_7  and  C_8
REMARK    8  A    between atoms: C_8  and  C_9
REMARK    9  A    between atoms: N_11  and  C_12
REMARK   10  A    between atoms: C_12  and  C_13
REMARK   11  A    between atoms: C_16  and  S_17
REMARK   12  A    between atoms: C_18  and  O_19
REMARK   13  A    between atoms: O_19  and  C_20
REMARK                            x       y       z     vdW  Elec       q    Type
REMARK                         _______ _______ _______ _____ _____    ______ ____
ROOT
ATOM      1  C   UNL     1       5.719   4.725  18.176  0.00  0.00    +0.000 C 
ATOM      2  O   UNL     1       6.430   4.763  19.179  0.00  0.00    +0.000 OA
ATOM      3  N   UNL     1       4.362   4.942  18.205  0.00  0.00    +0.000 N 
ATOM      4  H   UNL     1       3.817   4.861  17.359  0.00  0.00    +0.000 HD
ENDROOT
BRANCH   1   5
ATOM      5  C   UNL     1       6.292   4.407  16.807  0.00  0.00    +0.000 C 
BRANCH   5   6
ATOM      6  C   UNL     1       5.234   4.247  15.719  0.00  0.00    +0.000 C 
BRANCH   6   7
ATOM      7  C   UNL     1       5.729   4.719  14.351  0.00  0.00    +0.000 C 
BRANCH   7   8
ATOM      8  C   UNL     1       6.294   3.551  13.542  0.00  0.00    +0.000 C 
BRANCH   8   9
ATOM      9  C   UNL     1       6.042   3.746  12.049  0.00  0.00    +0.000 C 
BRANCH   9  10
ATOM     10  C   UNL     1       5.057   2.704  11.522  0.00  0.00    +0.000 C 
BRANCH  10  12
ATOM     11  C   UNL     1       3.415   3.868  10.019  0.00  0.00    +0.000 C 
ATOM     12  C   UNL     1       3.650   3.283  11.401  0.00  0.00    +0.000 C 
ENDBRANCH  10  12
ENDBRANCH   9  10
ENDBRANCH   8   9
ENDBRANCH   7   8
ENDBRANCH   6   7
ENDBRANCH   5   6
ENDBRANCH   1   5
BRANCH   3  13
ATOM     13  C   UNL     1       3.665   5.305  19.427  0.00  0.00    +0.000 C 
BRANCH  13  14
ATOM     14  C   UNL     1       2.891   6.589  19.265  0.00  0.00    +0.000 A 
ATOM     15  C   UNL     1       3.015   7.340  18.096  0.00  0.00    +0.000 A 
ATOM     16  C   UNL     1       2.341   8.558  17.964  0.00  0.00    +0.000 A 
ATOM     17  C   UNL     1       1.512   9.055  18.987  0.00  0.00    +0.000 A 
ATOM     18  C   UNL     1       1.315   8.265  20.136  0.00  0.00    +0.000 A 
ATOM     19  C   UNL     1       2.019   7.051  20.264  0.00  0.00    +0.000 A 
BRANCH  17  20
ATOM     20  S   UNL     1       0.876  10.711  18.741  0.00  0.00    +0.000 S 
ATOM     21  H   UNL     1      -0.179  10.638  19.563  0.00  0.00    +0.000 HD
ENDBRANCH  17  20
BRANCH  18  22
ATOM     22  O   UNL     1       0.569   8.560  21.249  0.00  0.00    +0.000 OA
ATOM     23  C   UNL     1       1.202   9.243  22.325  0.00  0.00    +0.000 C 
ENDBRANCH  18  22
ENDBRANCH  13  14
ENDBRANCH   3  13
TORSDOF 11
ENDMDL
MODEL 9
REMARK VINA RESULT:      -6.2      4.887      7.940
REMARK  Name = 
REMARK  13 active torsions:
REMARK  status: ('A' for Active; 'I' for Inactive)
REMARK    1  A    between atoms: C_1  and  C_2
REMARK    2  A    between atoms: C_2  and  C_3
REMARK    3  A    between atoms: C_3  and  C_4
REMARK    4  A    between atoms: C_4  and  C_5
REMARK    5  A    between atoms: C_5  and  C_6
REMARK    6  A    between atoms: C_6  and  C_7
REMARK    7  A    between atoms: C_7  and  C_8
REMARK    8  A    between atoms: C_8  and  C_9
REMARK    9  A    between atoms: N_11  and  C_12
REMARK   10  A    between atoms: C_12  and  C_13
REMARK   11  A    between atoms: C_16  and  S_17
REMARK   12  A    between atoms: C_18  and  O_19
REMARK   13  A    between atoms: O_19  and  C_20
REMARK                            x       y       z     vdW  Elec       q    Type
REMARK                         _______ _______ _______ _____ _____    ______ ____
ROOT
ATOM      1  C   UNL     1       7.646   7.577  17.688  0.00  0.00    +0.000 C 
ATOM      2  O   UNL     1       8.150   6.806  18.503  0.00  0.00    +0.000 OA
ATOM      3  N   UNL     1       6.790   7.170  16.693  0.00  0.00    +0.000 N 
ATOM      4  H   UNL     1       6.433   7.839  16.026  0.00  0.00    +0.000 HD
ENDROOT
BRANCH   1   5
ATOM      5  C   UNL     1       7.954   9.063  17.707  0.00  0.00    +0.000 C 
BRANCH   5   6
ATOM      6  C   UNL     1       8.974   9.467  18.768  0.00  0.00    +0.000 C 
BRANCH   6   7
ATOM      7  C   UNL     1       9.233  10.974  18.783  0.00  0.00    +0.000 C 
BRANCH   7   8
ATOM      8  C   UNL     1      10.616  11.285  19.355  0.00  0.00    +0.000 C 
BRANCH   8   9
ATOM      9  C   UNL     1      10.507  11.927  20.737  0.00  0.00    +0.000 C 
BRANCH   9  10
ATOM     10  C   UNL     1       9.059  11.931  21.223  0.00  0.00    +0.000 C 
BRANCH  10  12
ATOM     11  C   UNL     1       8.118  11.701  23.540  0.00  0.00    +0.000 C 
ATOM     12  C   UNL     1       8.941  12.569  22.605  0.00  0.00    +0.000 C 
ENDBRANCH  10  12
ENDBRANCH   9  10
ENDBRANCH   8   9
ENDBRANCH   7   8
ENDBRANCH   6   7
ENDBRANCH   5   6
ENDBRANCH   1   5
BRANCH   3  13
ATOM     13  C   UNL     1       6.356   5.790  16.567  0.00  0.00    +0.000 C 
BRANCH  13  14
ATOM     14  C   UNL     1       5.173   5.495  17.455  0.00  0.00    +0.000 A 
ATOM     15  C   UNL     1       4.225   6.485  17.712  0.00  0.00    +0.000 A 
ATOM     16  C   UNL     1       3.158   6.232  18.579  0.00  0.00    +0.000 A 
ATOM     17  C   UNL     1       2.995   4.981  19.202  0.00  0.00    +0.000 A 
ATOM     18  C   UNL     1       3.900   3.950  18.885  0.00  0.00    +0.000 A 
ATOM     19  C   UNL     1       4.984   4.227  18.028  0.00  0.00    +0.000 A 
BRANCH  17  20
ATOM     20  S   UNL     1       1.691   4.881  20.425  0.00  0.00    +0.000 S 
ATOM     21  H   UNL     1       1.418   6.189  20.526  0.00  0.00    +0.000 HD
ENDBRANCH  17  20
BRANCH  18  22
ATOM     22  O   UNL     1       3.937   2.672  19.383  0.00  0.00    +0.000 OA
ATOM     23  C   UNL     1       3.518   1.607  18.538  0.00  0.00    +0.000 C 
ENDBRANCH  18  22
ENDBRANCH  13  14
ENDBRANCH   3  13
TORSDOF 11
ENDMDL
