MODEL 1
REMARK VINA RESULT:      -7.8      0.000      0.000
REMARK  Name = 
REMARK  1 active torsions:
REMARK  status: ('A' for Active; 'I' for Inactive)
REMARK    1  A    between atoms: C_9  and  C_10
REMARK                            x       y       z     vdW  Elec       q    Type
REMARK                         _______ _______ _______ _____ _____    ______ ____
ROOT
ATOM      1  C   UNL     1       6.842   3.982  11.860  0.00  0.00    +0.000 A 
ATOM      2  C   UNL     1       7.751   5.001  12.136  0.00  0.00    +0.000 A 
ATOM      3  C   UNL     1       7.889   5.507  13.431  0.00  0.00    +0.000 A 
ATOM      4  C   UNL     1       7.079   4.967  14.443  0.00  0.00    +0.000 A 
ATOM      5  S   UNL     1       6.992   5.402  16.107  0.00  0.00    +0.000 S 
ATOM      6  C   UNL     1       5.784   4.225  16.337  0.00  0.00    +0.000 A 
ATOM      7  N   UNL     1       5.201   4.064  17.592  0.00  0.00    +0.000 N 
ATOM      8  C   UNL     1       4.265   3.142  18.003  0.00  0.00    +0.000 A 
ATOM      9  C   UNL     1       4.033   3.439  19.328  0.00  0.00    +0.000 A 
ATOM     10  N   UNL     1       4.799   4.519  19.673  0.00  0.00    +0.000 NA
ATOM     11  N   UNL     1       5.515   4.885  18.621  0.00  0.00    +0.000 NA
ATOM     12  N   UNL     1       5.442   3.501  15.294  0.00  0.00    +0.000 NA
ATOM     13  C   UNL     1       6.167   3.937  14.194  0.00  0.00    +0.000 A 
ATOM     14  C   UNL     1       6.052   3.440  12.880  0.00  0.00    +0.000 A 
ENDROOT
BRANCH   9  15
ATOM     15  C   UNL     1       3.142   2.759  20.322  0.00  0.00    +0.000 C 
ATOM     16  C   UNL     1       2.427   3.756  21.249  0.00  0.00    +0.000 C 
ATOM     17  C   UNL     1       1.283   4.509  20.568  0.00  0.00    +0.000 C 
ATOM     18  C   UNL     1       0.307   3.576  19.861  0.00  0.00    +0.000 C 
ATOM     19  C   UNL     1       0.986   2.553  18.956  0.00  0.00    +0.000 C 
ATOM     20  C   UNL     1       2.123   1.816  19.663  0.00  0.00    +0.000 C 
ENDBRANCH   9  15
TORSDOF 1
ENDMDL
MODEL 2
REMARK VINA RESULT:      -7.5      5.092      8.500
REMARK  Name = 
REMARK  1 active torsions:
REMARK  status: ('A' for Active; 'I' for Inactive)
REMARK    1  A    between atoms: C_9  and  C_10
REMARK                            x       y       z     vdW  Elec       q    Type
REMARK                         _______ _______ _______ _____ _____    ______ ____
ROOT
ATOM      1  C   UNL     1      -1.235  11.843  23.056  0.00  0.00    +0.000 A 
ATOM      2  C   UNL     1      -1.111  12.690  21.958  0.00  0.00    +0.000 A 
ATOM      3  C   UNL     1      -0.466  12.266  20.794  0.00  0.00    +0.000 A 
ATOM      4  C   UNL     1       0.062  10.965  20.766  0.00  0.00    +0.000 A 
ATOM      5  S   UNL     1       0.933  10.178  19.506  0.00  0.00    +0.000 S 
ATOM      6  C   UNL     1       1.073   8.793  20.487  0.00  0.00    +0.000 A 
ATOM      7  N   UNL     1       1.769   7.680  20.021  0.00  0.00    +0.000 N 
ATOM      8  C   UNL     1       1.944   6.453  20.621  0.00  0.00    +0.000 A 
ATOM      9  C   UNL     1       2.717   5.734  19.736  0.00  0.00    +0.000 A 
ATOM     10  N   UNL     1       3.002   6.530  18.659  0.00  0.00    +0.000 NA
ATOM     11  N   UNL     1       2.413   7.703  18.831  0.00  0.00    +0.000 NA
ATOM     12  N   UNL     1       0.507   8.837  21.672  0.00  0.00    +0.000 NA
ATOM     13  C   UNL     1      -0.058  10.091  21.851  0.00  0.00    +0.000 A 
ATOM     14  C   UNL     1      -0.719  10.542  23.011  0.00  0.00    +0.000 A 
ENDROOT
BRANCH   9  15
ATOM     15  C   UNL     1       3.205   4.320  19.817  0.00  0.00    +0.000 C 
ATOM     16  C   UNL     1       2.343   3.455  20.753  0.00  0.00    +0.000 C 
ATOM     17  C   UNL     1       0.988   3.073  20.156  0.00  0.00    +0.000 C 
ATOM     18  C   UNL     1       1.112   2.469  18.761  0.00  0.00    +0.000 C 
ATOM     19  C   UNL     1       1.985   3.287  17.816  0.00  0.00    +0.000 C 
ATOM     20  C   UNL     1       3.333   3.652  18.440  0.00  0.00    +0.000 C 
ENDBRANCH   9  15
TORSDOF 1
ENDMDL
MODEL 3
REMARK VINA RESULT:      -7.4      4.832      8.695
REMARK  Name = 
REMARK  1 active torsions:
REMARK  status: ('A' for Active; 'I' for Inactive)
REMARK    1  A    between atoms: C_9  and  C_10
REMARK                            x       y       z     vdW  Elec       q    Type
REMARK                         _______ _______ _______ _____ _____    ______ ____
ROOT
ATOM      1  C   UNL     1      -0.888  10.324  23.240  0.00  0.00    +0.000 A 
ATOM      2  C   UNL     1      -1.179  11.402  22.409  0.00  0.00    +0.000 A 
ATOM      3  C   UNL     1      -0.697  11.449  21.098  0.00  0.00    +0.000 A 
ATOM      4  C   UNL     1       0.098  10.383  20.647  0.00  0.00    +0.000 A 
ATOM      5  S   UNL     1       0.859  10.174  19.116  0.00  0.00    +0.000 S 
ATOM      6  C   UNL     1       1.501   8.692  19.654  0.00  0.00    +0.000 A 
ATOM      7  N   UNL     1       2.327   7.947  18.815  0.00  0.00    +0.000 N 
ATOM      8  C   UNL     1       2.891   6.709  19.028  0.00  0.00    +0.000 A 
ATOM      9  C   UNL     1       3.618   6.451  17.886  0.00  0.00    +0.000 A 
ATOM     10  N   UNL     1       3.496   7.520  17.041  0.00  0.00    +0.000 NA
ATOM     11  N   UNL     1       2.701   8.417  17.602  0.00  0.00    +0.000 NA
ATOM     12  N   UNL     1       1.185   8.305  20.870  0.00  0.00    +0.000 NA
ATOM     13  C   UNL     1       0.395   9.283  21.457  0.00  0.00    +0.000 A 
ATOM     14  C   UNL     1      -0.109   9.258  22.773  0.00  0.00    +0.000 A 
ENDROOT
BRANCH   9  15
ATOM     15  C   UNL     1       4.421   5.242  17.513  0.00  0.00    +0.000 C 
ATOM     16  C   UNL     1       5.475   5.547  16.435  0.00  0.00    +0.000 C 
ATOM     17  C   UNL     1       6.681   6.325  16.964  0.00  0.00    +0.000 C 
ATOM     18  C   UNL     1       7.292   5.685  18.205  0.00  0.00    +0.000 C 
ATOM     19  C   UNL     1       6.270   5.342  19.283  0.00  0.00    +0.000 C 
ATOM     20  C   UNL     1       5.077   4.564  18.725  0.00  0.00    +0.000 C 
ENDBRANCH   9  15
TORSDOF 1
ENDMDL
MODEL 4
REMARK VINA RESULT:      -7.2      1.093      1.862
REMARK  Name = 
REMARK  1 active torsions:
REMARK  status: ('A' for Active; 'I' for Inactive)
REMARK    1  A    between atoms: C_9  and  C_10
REMARK                            x       y       z     vdW  Elec       q    Type
REMARK                         _______ _______ _______ _____ _____    ______ ____
ROOT
ATOM      1  C   UNL     1       6.887   3.810  12.009  0.00  0.00    +0.000 A 
ATOM      2  C   UNL     1       7.912   4.665  12.404  0.00  0.00    +0.000 A 
ATOM      3  C   UNL     1       7.877   5.300  13.648  0.00  0.00    +0.000 A 
ATOM      4  C   UNL     1       6.774   5.059  14.484  0.00  0.00    +0.000 A 
ATOM      5  S   UNL     1       6.432   5.715  16.039  0.00  0.00    +0.000 S 
ATOM      6  C   UNL     1       4.979   4.829  16.077  0.00  0.00    +0.000 A 
ATOM      7  N   UNL     1       4.122   4.947  17.169  0.00  0.00    +0.000 N 
ATOM      8  C   UNL     1       2.946   4.280  17.425  0.00  0.00    +0.000 A 
ATOM      9  C   UNL     1       2.507   4.785  18.629  0.00  0.00    +0.000 A 
ATOM     10  N   UNL     1       3.396   5.737  19.052  0.00  0.00    +0.000 NA
ATOM     11  N   UNL     1       4.379   5.820  18.171  0.00  0.00    +0.000 NA
ATOM     12  N   UNL     1       4.720   4.054  15.047  0.00  0.00    +0.000 NA
ATOM     13  C   UNL     1       5.737   4.197  14.115  0.00  0.00    +0.000 A 
ATOM     14  C   UNL     1       5.800   3.565  12.857  0.00  0.00    +0.000 A 
ENDROOT
BRANCH   9  15
ATOM     15  C   UNL     1       1.301   4.422  19.440  0.00  0.00    +0.000 C 
ATOM     16  C   UNL     1       0.917   2.940  19.290  0.00  0.00    +0.000 C 
ATOM     17  C   UNL     1       1.849   1.989  20.042  0.00  0.00    +0.000 C 
ATOM     18  C   UNL     1       2.043   2.391  21.500  0.00  0.00    +0.000 C 
ATOM     19  C   UNL     1       2.395   3.863  21.686  0.00  0.00    +0.000 C 
ATOM     20  C   UNL     1       1.446   4.789  20.924  0.00  0.00    +0.000 C 
ENDBRANCH   9  15
TORSDOF 1
ENDMDL
MODEL 5
REMARK VINA RESULT:      -7.1      4.472      8.043
REMARK  Name = 
REMARK  1 active torsions:
REMARK  status: ('A' for Active; 'I' for Inactive)
REMARK    1  A    between atoms: C_9  and  C_10
REMARK                            x       y       z     vdW  Elec       q    Type
REMARK                         _______ _______ _______ _____ _____    ______ ____
ROOT
ATOM      1  C   UNL     1      -0.939  10.344  23.152  0.00  0.00    +0.000 A 
ATOM      2  C   UNL     1      -0.781  11.502  22.396  0.00  0.00    +0.000 A 
ATOM      3  C   UNL     1      -0.062  11.484  21.198  0.00  0.00    +0.000 A 
ATOM      4  C   UNL     1       0.505  10.267  20.784  0.00  0.00    +0.000 A 
ATOM      5  S   UNL     1       1.465   9.939  19.393  0.00  0.00    +0.000 S 
ATOM      6  C   UNL     1       1.592   8.313  19.882  0.00  0.00    +0.000 A 
ATOM      7  N   UNL     1       2.345   7.417  19.126  0.00  0.00    +0.000 N 
ATOM      8  C   UNL     1       2.523   6.064  19.308  0.00  0.00    +0.000 A 
ATOM      9  C   UNL     1       3.364   5.678  18.287  0.00  0.00    +0.000 A 
ATOM     10  N   UNL     1       3.682   6.782  17.544  0.00  0.00    +0.000 NA
ATOM     11  N   UNL     1       3.051   7.830  18.048  0.00  0.00    +0.000 NA
ATOM     12  N   UNL     1       0.962   7.965  20.982  0.00  0.00    +0.000 NA
ATOM     13  C   UNL     1       0.351   9.088  21.520  0.00  0.00    +0.000 A 
ATOM     14  C   UNL     1      -0.384   9.134  22.722  0.00  0.00    +0.000 A 
ENDROOT
BRANCH   9  15
ATOM     15  C   UNL     1       3.887   4.318  17.938  0.00  0.00    +0.000 C 
ATOM     16  C   UNL     1       4.494   3.593  19.151  0.00  0.00    +0.000 C 
ATOM     17  C   UNL     1       3.448   3.063  20.132  0.00  0.00    +0.000 C 
ATOM     18  C   UNL     1       2.368   2.234  19.444  0.00  0.00    +0.000 C 
ATOM     19  C   UNL     1       1.765   2.912  18.218  0.00  0.00    +0.000 C 
ATOM     20  C   UNL     1       2.835   3.430  17.256  0.00  0.00    +0.000 C 
ENDBRANCH   9  15
TORSDOF 1
ENDMDL
MODEL 6
REMARK VINA RESULT:      -7.0      5.159      7.783
REMARK  Name = 
REMARK  1 active torsions:
REMARK  status: ('A' for Active; 'I' for Inactive)
REMARK    1  A    between atoms: C_9  and  C_10
REMARK                            x       y       z     vdW  Elec       q    Type
REMARK                         _______ _______ _______ _____ _____    ______ ____
ROOT
ATOM      1  C   UNL     1      -0.866  12.646  20.890  0.00  0.00    +0.000 A 
ATOM      2  C   UNL     1      -0.466  13.284  19.718  0.00  0.00    +0.000 A 
ATOM      3  C   UNL     1       0.324  12.622  18.775  0.00  0.00    +0.000 A 
ATOM      4  C   UNL     1       0.712  11.300  19.047  0.00  0.00    +0.000 A 
ATOM      5  S   UNL     1       1.702  10.249  18.109  0.00  0.00    +0.000 S 
ATOM      6  C   UNL     1       1.528   9.045  19.299  0.00  0.00    +0.000 A 
ATOM      7  N   UNL     1       2.176   7.821  19.149  0.00  0.00    +0.000 N 
ATOM      8  C   UNL     1       2.117   6.704  19.952  0.00  0.00    +0.000 A 
ATOM      9  C   UNL     1       2.954   5.791  19.349  0.00  0.00    +0.000 A 
ATOM     10  N   UNL     1       3.501   6.370  18.236  0.00  0.00    +0.000 NA
ATOM     11  N   UNL     1       3.015   7.595  18.112  0.00  0.00    +0.000 NA
ATOM     12  N   UNL     1       0.772   9.330  20.337  0.00  0.00    +0.000 NA
ATOM     13  C   UNL     1       0.316  10.634  20.211  0.00  0.00    +0.000 A 
ATOM     14  C   UNL     1      -0.486  11.323  21.143  0.00  0.00    +0.000 A 
ENDROOT
BRANCH   9  15
ATOM     15  C   UNL     1       3.272   4.379  19.737  0.00  0.00    +0.000 C 
ATOM     16  C   UNL     1       2.325   3.841  20.823  0.00  0.00    +0.000 C 
ATOM     17  C   UNL     1       0.928   3.503  20.301  0.00  0.00    +0.000 C 
ATOM     18  C   UNL     1       0.965   2.605  19.069  0.00  0.00    +0.000 C 
ATOM     19  C   UNL     1       1.917   3.095  17.984  0.00  0.00    +0.000 C 
ATOM     20  C   UNL     1       3.306   3.423  18.535  0.00  0.00    +0.000 C 
ENDBRANCH   9  15
TORSDOF 1
ENDMDL
MODEL 7
REMARK VINA RESULT:      -6.9      5.097      8.573
REMARK  Name = 
REMARK  1 active torsions:
REMARK  status: ('A' for Active; 'I' for Inactive)
REMARK    1  A    between atoms: C_9  and  C_10
REMARK                            x       y       z     vdW  Elec       q    Type
REMARK                         _______ _______ _______ _____ _____    ______ ____
ROOT
ATOM      1  C   UNL     1      -0.996  12.412  20.460  0.00  0.00    +0.000 A 
ATOM      2  C   UNL     1      -1.223  11.931  21.747  0.00  0.00    +0.000 A 
ATOM      3  C   UNL     1      -0.664  10.723  22.170  0.00  0.00    +0.000 A 
ATOM      4  C   UNL     1       0.125  10.003  21.259  0.00  0.00    +0.000 A 
ATOM      5  S   UNL     1       0.908   8.484  21.470  0.00  0.00    +0.000 S 
ATOM      6  C   UNL     1       1.487   8.576  19.871  0.00  0.00    +0.000 A 
ATOM      7  N   UNL     1       2.250   7.534  19.348  0.00  0.00    +0.000 N 
ATOM      8  C   UNL     1       2.860   7.439  18.117  0.00  0.00    +0.000 A 
ATOM      9  C   UNL     1       3.467   6.203  18.118  0.00  0.00    +0.000 A 
ATOM     10  N   UNL     1       3.199   5.587  19.311  0.00  0.00    +0.000 NA
ATOM     11  N   UNL     1       2.473   6.404  20.057  0.00  0.00    +0.000 NA
ATOM     12  N   UNL     1       1.180   9.653  19.182  0.00  0.00    +0.000 NA
ATOM     13  C   UNL     1       0.377  10.469  19.965  0.00  0.00    +0.000 A 
ATOM     14  C   UNL     1      -0.194  11.694  19.566  0.00  0.00    +0.000 A 
ENDROOT
BRANCH   9  15
ATOM     15  C   UNL     1       4.314   5.549  17.069  0.00  0.00    +0.000 C 
ATOM     16  C   UNL     1       5.183   6.560  16.302  0.00  0.00    +0.000 C 
ATOM     17  C   UNL     1       6.377   7.073  17.107  0.00  0.00    +0.000 C 
ATOM     18  C   UNL     1       7.203   5.944  17.714  0.00  0.00    +0.000 C 
ATOM     19  C   UNL     1       6.368   4.907  18.457  0.00  0.00    +0.000 C 
ATOM     20  C   UNL     1       5.183   4.412  17.627  0.00  0.00    +0.000 C 
ENDBRANCH   9  15
TORSDOF 1
ENDMDL
MODEL 8
REMARK VINA RESULT:      -6.8      6.386      7.786
REMARK  Name = 
REMARK  1 active torsions:
REMARK  status: ('A' for Active; 'I' for Inactive)
REMARK    1  A    between atoms: C_9  and  C_10
REMARK                            x       y       z     vdW  Elec       q    Type
REMARK                         _______ _______ _______ _____ _____    ______ ____
ROOT
ATOM      1  C   UNL     1      11.502  13.283  20.113  0.00  0.00    +0.000 A 
ATOM      2  C   UNL     1      10.791  14.140  19.277  0.00  0.00    +0.000 A 
ATOM      3  C   UNL     1       9.750  13.663  18.476  0.00  0.00    +0.000 A 
ATOM      4  C   UNL     1       9.448  12.293  18.531  0.00  0.00    +0.000 A 
ATOM      5  S   UNL     1       8.262  11.410  17.648  0.00  0.00    +0.000 S 
ATOM      6  C   UNL     1       8.763   9.983  18.429  0.00  0.00    +0.000 A 
ATOM      7  N   UNL     1       8.160   8.768  18.109  0.00  0.00    +0.000 N 
ATOM      8  C   UNL     1       8.369   7.524  18.660  0.00  0.00    +0.000 A 
ATOM      9  C   UNL     1       7.524   6.684  17.969  0.00  0.00    +0.000 A 
ATOM     10  N   UNL     1       6.857   7.418  17.025  0.00  0.00    +0.000 NA
ATOM     11  N   UNL     1       7.236   8.682  17.124  0.00  0.00    +0.000 NA
ATOM     12  N   UNL     1       9.723  10.090  19.320  0.00  0.00    +0.000 NA
ATOM     13  C   UNL     1      10.139  11.413  19.370  0.00  0.00    +0.000 A 
ATOM     14  C   UNL     1      11.181  11.922  20.171  0.00  0.00    +0.000 A 
ENDROOT
BRANCH   9  15
ATOM     15  C   UNL     1       7.277   5.217  18.142  0.00  0.00    +0.000 C 
ATOM     16  C   UNL     1       5.994   4.928  18.940  0.00  0.00    +0.000 C 
ATOM     17  C   UNL     1       4.712   5.164  18.141  0.00  0.00    +0.000 C 
ATOM     18  C   UNL     1       4.724   4.457  16.791  0.00  0.00    +0.000 C 
ATOM     19  C   UNL     1       5.997   4.698  15.985  0.00  0.00    +0.000 C 
ATOM     20  C   UNL     1       7.261   4.452  16.810  0.00  0.00    +0.000 C 
ENDBRANCH   9  15
TORSDOF 1
ENDMDL
MODEL 9
REMARK VINA RESULT:      -6.7      5.370      7.936
REMARK  Name = 
REMARK  1 active torsions:
REMARK  status: ('A' for Active; 'I' for Inactive)
REMARK    1  A    between atoms: C_9  and  C_10
REMARK                            x       y       z     vdW  Elec       q    Type
REMARK                         _______ _______ _______ _____ _____    ______ ____
ROOT
ATOM      1  C   UNL     1       2.624   2.826  21.216  0.00  0.00    +0.000 A 
ATOM      2  C   UNL     1       3.654   2.570  20.315  0.00  0.00    +0.000 A 
ATOM      3  C   UNL     1       4.063   3.541  19.398  0.00  0.00    +0.000 A 
ATOM      4  C   UNL     1       3.398   4.778  19.403  0.00  0.00    +0.000 A 
ATOM      5  S   UNL     1       3.645   6.143  18.382  0.00  0.00    +0.000 S 
ATOM      6  C   UNL     1       2.396   6.962  19.198  0.00  0.00    +0.000 A 
ATOM      7  N   UNL     1       2.030   8.246  18.799  0.00  0.00    +0.000 N 
ATOM      8  C   UNL     1       1.102   9.096  19.357  0.00  0.00    +0.000 A 
ATOM      9  C   UNL     1       1.135  10.223  18.565  0.00  0.00    +0.000 A 
ATOM     10  N   UNL     1       2.043  10.024  17.560  0.00  0.00    +0.000 NA
ATOM     11  N   UNL     1       2.593   8.830  17.716  0.00  0.00    +0.000 NA
ATOM     12  N   UNL     1       1.812   6.330  20.193  0.00  0.00    +0.000 NA
ATOM     13  C   UNL     1       2.368   5.064  20.304  0.00  0.00    +0.000 A 
ATOM     14  C   UNL     1       1.980   4.069  21.223  0.00  0.00    +0.000 A 
ENDROOT
BRANCH   9  15
ATOM     15  C   UNL     1       0.375  11.508  18.693  0.00  0.00    +0.000 C 
ATOM     16  C   UNL     1      -0.309  11.652  20.063  0.00  0.00    +0.000 C 
ATOM     17  C   UNL     1       0.661  11.981  21.198  0.00  0.00    +0.000 C 
ATOM     18  C   UNL     1       1.560  13.169  20.873  0.00  0.00    +0.000 C 
ATOM     19  C   UNL     1       2.231  13.072  19.507  0.00  0.00    +0.000 C 
ATOM     20  C   UNL     1       1.237  12.744  18.393  0.00  0.00    +0.000 C 
ENDBRANCH   9  15
TORSDOF 1
ENDMDL
