MODEL 1
REMARK VINA RESULT:      -7.5      0.000      0.000
REMARK  Name = 
REMARK  11 active torsions:
REMARK  status: ('A' for Active; 'I' for Inactive)
REMARK    1  A    between atoms: C_1  and  O_2
REMARK    2  A    between atoms: O_2  and  C_3
REMARK    3  A    between atoms: C_3  and  C_5
REMARK    4  A    between atoms: C_5  and  C_6
REMARK    5  A    between atoms: C_5  and  N_7
REMARK    6  A    between atoms: C_8  and  C_10
REMARK    7  A    between atoms: C_10  and  C_11
REMARK    8  A    between atoms: C_10  and  N_12
REMARK    9  A    between atoms: C_13  and  O_15
REMARK   10  A    between atoms: O_15  and  C_16
REMARK   11  A    between atoms: C_16  and  C_17
REMARK                            x       y       z     vdW  Elec       q    Type
REMARK                         _______ _______ _______ _____ _____    ______ ____
ROOT
ATOM      1  C   UNL     1       7.184   4.859  17.962  0.00  0.00    +0.000 C 
ATOM      2  C   UNL     1       7.287   4.798  16.437  0.00  0.00    +0.000 C 
ENDROOT
BRANCH   1   4
ATOM      3  N   UNL     1       5.457   3.458  19.030  0.00  0.00    +0.000 N 
ATOM      4  C   UNL     1       5.727   4.671  18.442  0.00  0.00    +0.000 C 
ATOM      5  O   UNL     1       4.889   5.562  18.331  0.00  0.00    +0.000 OA
ATOM      6  H   UNL     1       6.142   2.708  18.907  0.00  0.00    +0.000 HD
BRANCH   3   7
ATOM      7  C   UNL     1       4.130   3.053  19.475  0.00  0.00    +0.000 C 
ATOM      8  C   UNL     1       4.265   2.182  20.714  0.00  0.00    +0.000 C 
BRANCH   7   9
ATOM      9  C   UNL     1       3.415   2.270  18.369  0.00  0.00    +0.000 C 
ATOM     10  O   UNL     1       3.684   1.130  18.025  0.00  0.00    +0.000 OA
BRANCH   9  12
ATOM     11  C   UNL     1       1.188   2.971  18.627  0.00  0.00    +0.000 C 
ATOM     12  O   UNL     1       2.385   3.015  17.854  0.00  0.00    +0.000 OA
ENDBRANCH   9  12
ENDBRANCH   7   9
ENDBRANCH   3   7
ENDBRANCH   1   4
BRANCH   1  13
ATOM     13  N   UNL     1       7.777   6.063  18.539  0.00  0.00    +0.000 N 
ATOM     14  C   UNL     1       7.735   7.282  17.931  0.00  0.00    +0.000 C 
ATOM     15  O   UNL     1       7.139   7.498  16.886  0.00  0.00    +0.000 OA
ATOM     16  H   UNL     1       8.365   5.988  19.357  0.00  0.00    +0.000 HD
BRANCH  14  17
ATOM     17  O   UNL     1       8.464   8.182  18.619  0.00  0.00    +0.000 OA
BRANCH  17  18
ATOM     18  C   UNL     1       8.395   9.506  18.076  0.00  0.00    +0.000 C 
BRANCH  18  19
ATOM     19  C   UNL     1       9.383  10.450  18.709  0.00  0.00    +0.000 A 
ATOM     20  C   UNL     1      10.285  11.163  17.908  0.00  0.00    +0.000 A 
ATOM     21  C   UNL     1      11.171  12.078  18.475  0.00  0.00    +0.000 A 
ATOM     22  C   UNL     1      11.165  12.296  19.851  0.00  0.00    +0.000 A 
ATOM     23  C   UNL     1      10.260  11.609  20.658  0.00  0.00    +0.000 A 
ATOM     24  C   UNL     1       9.372  10.692  20.090  0.00  0.00    +0.000 A 
ENDBRANCH  18  19
ENDBRANCH  17  18
ENDBRANCH  14  17
ENDBRANCH   1  13
TORSDOF 8
ENDMDL
MODEL 2
REMARK VINA RESULT:      -7.4      5.259      7.469
REMARK  Name = 
REMARK  11 active torsions:
REMARK  status: ('A' for Active; 'I' for Inactive)
REMARK    1  A    between atoms: C_1  and  O_2
REMARK    2  A    between atoms: O_2  and  C_3
REMARK    3  A    between atoms: C_3  and  C_5
REMARK    4  A    between atoms: C_5  and  C_6
REMARK    5  A    between atoms: C_5  and  N_7
REMARK    6  A    between atoms: C_8  and  C_10
REMARK    7  A    between atoms: C_10  and  C_11
REMARK    8  A    between atoms: C_10  and  N_12
REMARK    9  A    between atoms: C_13  and  O_15
REMARK   10  A    between atoms: O_15  and  C_16
REMARK   11  A    between atoms: C_16  and  C_17
REMARK                            x       y       z     vdW  Elec       q    Type
REMARK                         _______ _______ _______ _____ _____    ______ ____
ROOT
ATOM      1  C   UNL     1       3.177   5.728  17.996  0.00  0.00    +0.000 C 
ATOM      2  C   UNL     1       2.518   4.374  17.733  0.00  0.00    +0.000 C 
ENDROOT
BRANCH   1   4
ATOM      3  N   UNL     1       5.543   6.342  17.667  0.00  0.00    +0.000 N 
ATOM      4  C   UNL     1       4.663   5.572  18.389  0.00  0.00    +0.000 C 
ATOM      5  O   UNL     1       5.016   4.836  19.308  0.00  0.00    +0.000 OA
ATOM      6  H   UNL     1       5.200   6.769  16.803  0.00  0.00    +0.000 HD
BRANCH   3   7
ATOM      7  C   UNL     1       6.991   6.281  17.826  0.00  0.00    +0.000 C 
ATOM      8  C   UNL     1       7.584   7.645  17.512  0.00  0.00    +0.000 C 
BRANCH   7   9
ATOM      9  C   UNL     1       7.585   5.230  16.883  0.00  0.00    +0.000 C 
ATOM     10  O   UNL     1       8.089   4.175  17.232  0.00  0.00    +0.000 OA
BRANCH   9  12
ATOM     11  C   UNL     1       6.764   4.651  14.759  0.00  0.00    +0.000 C 
ATOM     12  O   UNL     1       7.418   5.618  15.579  0.00  0.00    +0.000 OA
ENDBRANCH   9  12
ENDBRANCH   7   9
ENDBRANCH   3   7
ENDBRANCH   1   4
BRANCH   1  13
ATOM     13  N   UNL     1       2.458   6.547  18.969  0.00  0.00    +0.000 N 
ATOM     14  C   UNL     1       2.235   7.881  18.804  0.00  0.00    +0.000 C 
ATOM     15  O   UNL     1       2.550   8.502  17.799  0.00  0.00    +0.000 OA
ATOM     16  H   UNL     1       2.224   6.161  19.873  0.00  0.00    +0.000 HD
BRANCH  14  17
ATOM     17  O   UNL     1       1.663   8.408  19.904  0.00  0.00    +0.000 OA
BRANCH  17  18
ATOM     18  C   UNL     1       0.878   9.576  19.635  0.00  0.00    +0.000 C 
BRANCH  18  19
ATOM     19  C   UNL     1       0.164  10.095  20.856  0.00  0.00    +0.000 A 
ATOM     20  C   UNL     1      -0.590  11.273  20.780  0.00  0.00    +0.000 A 
ATOM     21  C   UNL     1      -1.298  11.738  21.888  0.00  0.00    +0.000 A 
ATOM     22  C   UNL     1      -1.265  11.028  23.086  0.00  0.00    +0.000 A 
ATOM     23  C   UNL     1      -0.536   9.843  23.170  0.00  0.00    +0.000 A 
ATOM     24  C   UNL     1       0.173   9.377  22.061  0.00  0.00    +0.000 A 
ENDBRANCH  18  19
ENDBRANCH  17  18
ENDBRANCH  14  17
ENDBRANCH   1  13
TORSDOF 8
ENDMDL
MODEL 3
REMARK VINA RESULT:      -7.3      3.342      7.719
REMARK  Name = 
REMARK  11 active torsions:
REMARK  status: ('A' for Active; 'I' for Inactive)
REMARK    1  A    between atoms: C_1  and  O_2
REMARK    2  A    between atoms: O_2  and  C_3
REMARK    3  A    between atoms: C_3  and  C_5
REMARK    4  A    between atoms: C_5  and  C_6
REMARK    5  A    between atoms: C_5  and  N_7
REMARK    6  A    between atoms: C_8  and  C_10
REMARK    7  A    between atoms: C_10  and  C_11
REMARK    8  A    between atoms: C_10  and  N_12
REMARK    9  A    between atoms: C_13  and  O_15
REMARK   10  A    between atoms: O_15  and  C_16
REMARK   11  A    between atoms: C_16  and  C_17
REMARK                            x       y       z     vdW  Elec       q    Type
REMARK                         _______ _______ _______ _____ _____    ______ ____
ROOT
ATOM      1  C   UNL     1       7.009   6.576  17.668  0.00  0.00    +0.000 C 
ATOM      2  C   UNL     1       7.780   7.873  17.420  0.00  0.00    +0.000 C 
ENDROOT
BRANCH   1   4
ATOM      3  N   UNL     1       7.203   5.759  15.349  0.00  0.00    +0.000 N 
ATOM      4  C   UNL     1       7.423   5.468  16.674  0.00  0.00    +0.000 C 
ATOM      5  O   UNL     1       7.943   4.421  17.051  0.00  0.00    +0.000 OA
ATOM      6  H   UNL     1       6.594   6.553  15.132  0.00  0.00    +0.000 HD
BRANCH   3   7
ATOM      7  C   UNL     1       7.447   4.819  14.262  0.00  0.00    +0.000 C 
ATOM      8  C   UNL     1       8.043   5.568  13.081  0.00  0.00    +0.000 C 
BRANCH   7   9
ATOM      9  C   UNL     1       6.139   4.144  13.839  0.00  0.00    +0.000 C 
ATOM     10  O   UNL     1       5.077   4.230  14.435  0.00  0.00    +0.000 OA
BRANCH   9  12
ATOM     11  C   UNL     1       5.106   3.203  11.951  0.00  0.00    +0.000 C 
ATOM     12  O   UNL     1       6.315   3.472  12.657  0.00  0.00    +0.000 OA
ENDBRANCH   9  12
ENDBRANCH   7   9
ENDBRANCH   3   7
ENDBRANCH   1   4
BRANCH   1  13
ATOM     13  N   UNL     1       5.559   6.754  17.683  0.00  0.00    +0.000 N 
ATOM     14  C   UNL     1       4.713   5.938  18.373  0.00  0.00    +0.000 C 
ATOM     15  O   UNL     1       5.089   5.029  19.098  0.00  0.00    +0.000 OA
ATOM     16  H   UNL     1       5.130   7.420  17.056  0.00  0.00    +0.000 HD
BRANCH  14  17
ATOM     17  O   UNL     1       3.429   6.253  18.112  0.00  0.00    +0.000 OA
BRANCH  17  18
ATOM     18  C   UNL     1       2.660   5.149  17.620  0.00  0.00    +0.000 C 
BRANCH  18  19
ATOM     19  C   UNL     1       2.196   4.226  18.715  0.00  0.00    +0.000 A 
ATOM     20  C   UNL     1       1.732   4.753  19.927  0.00  0.00    +0.000 A 
ATOM     21  C   UNL     1       1.251   3.913  20.931  0.00  0.00    +0.000 A 
ATOM     22  C   UNL     1       1.224   2.534  20.734  0.00  0.00    +0.000 A 
ATOM     23  C   UNL     1       1.663   1.997  19.525  0.00  0.00    +0.000 A 
ATOM     24  C   UNL     1       2.144   2.838  18.520  0.00  0.00    +0.000 A 
ENDBRANCH  18  19
ENDBRANCH  17  18
ENDBRANCH  14  17
ENDBRANCH   1  13
TORSDOF 8
ENDMDL
MODEL 4
REMARK VINA RESULT:      -7.3      1.592      2.216
REMARK  Name = 
REMARK  11 active torsions:
REMARK  status: ('A' for Active; 'I' for Inactive)
REMARK    1  A    between atoms: C_1  and  O_2
REMARK    2  A    between atoms: O_2  and  C_3
REMARK    3  A    between atoms: C_3  and  C_5
REMARK    4  A    between atoms: C_5  and  C_6
REMARK    5  A    between atoms: C_5  and  N_7
REMARK    6  A    between atoms: C_8  and  C_10
REMARK    7  A    between atoms: C_10  and  C_11
REMARK    8  A    between atoms: C_10  and  N_12
REMARK    9  A    between atoms: C_13  and  O_15
REMARK   10  A    between atoms: O_15  and  C_16
REMARK   11  A    between atoms: C_16  and  C_17
REMARK                            x       y       z     vdW  Elec       q    Type
REMARK                         _______ _______ _______ _____ _____    ______ ____
ROOT
ATOM      1  C   UNL     1       5.354   6.290  17.442  0.00  0.00    +0.000 C 
ATOM      2  C   UNL     1       3.982   6.938  17.249  0.00  0.00    +0.000 C 
ENDROOT
BRANCH   1   4
ATOM      3  N   UNL     1       4.105   4.280  18.136  0.00  0.00    +0.000 N 
ATOM      4  C   UNL     1       5.263   5.004  18.292  0.00  0.00    +0.000 C 
ATOM      5  O   UNL     1       6.182   4.646  19.027  0.00  0.00    +0.000 OA
ATOM      6  H   UNL     1       3.319   4.738  17.668  0.00  0.00    +0.000 HD
BRANCH   3   7
ATOM      7  C   UNL     1       3.789   3.083  18.905  0.00  0.00    +0.000 C 
ATOM      8  C   UNL     1       3.050   2.099  18.013  0.00  0.00    +0.000 C 
BRANCH   7   9
ATOM      9  C   UNL     1       2.916   3.442  20.112  0.00  0.00    +0.000 C 
ATOM     10  O   UNL     1       2.793   4.561  20.584  0.00  0.00    +0.000 OA
BRANCH   9  12
ATOM     11  C   UNL     1       1.403   2.570  21.682  0.00  0.00    +0.000 C 
ATOM     12  O   UNL     1       2.244   2.333  20.556  0.00  0.00    +0.000 OA
ENDBRANCH   9  12
ENDBRANCH   7   9
ENDBRANCH   3   7
ENDBRANCH   1   4
BRANCH   1  13
ATOM     13  N   UNL     1       6.360   7.204  17.976  0.00  0.00    +0.000 N 
ATOM     14  C   UNL     1       7.592   7.371  17.417  0.00  0.00    +0.000 C 
ATOM     15  O   UNL     1       7.944   6.829  16.379  0.00  0.00    +0.000 OA
ATOM     16  H   UNL     1       6.212   7.642  18.875  0.00  0.00    +0.000 HD
BRANCH  14  17
ATOM     17  O   UNL     1       8.357   8.174  18.181  0.00  0.00    +0.000 OA
BRANCH  17  18
ATOM     18  C   UNL     1       8.131   9.570  17.948  0.00  0.00    +0.000 C 
BRANCH  18  19
ATOM     19  C   UNL     1       9.177  10.446  18.583  0.00  0.00    +0.000 A 
ATOM     20  C   UNL     1       9.238  10.567  19.978  0.00  0.00    +0.000 A 
ATOM     21  C   UNL     1      10.233  11.334  20.583  0.00  0.00    +0.000 A 
ATOM     22  C   UNL     1      11.183  11.987  19.802  0.00  0.00    +0.000 A 
ATOM     23  C   UNL     1      11.147  11.860  18.414  0.00  0.00    +0.000 A 
ATOM     24  C   UNL     1      10.151  11.091  17.808  0.00  0.00    +0.000 A 
ENDBRANCH  18  19
ENDBRANCH  17  18
ENDBRANCH  14  17
ENDBRANCH   1  13
TORSDOF 8
ENDMDL
MODEL 5
REMARK VINA RESULT:      -7.3      4.593      7.347
REMARK  Name = 
REMARK  11 active torsions:
REMARK  status: ('A' for Active; 'I' for Inactive)
REMARK    1  A    between atoms: C_1  and  O_2
REMARK    2  A    between atoms: O_2  and  C_3
REMARK    3  A    between atoms: C_3  and  C_5
REMARK    4  A    between atoms: C_5  and  C_6
REMARK    5  A    between atoms: C_5  and  N_7
REMARK    6  A    between atoms: C_8  and  C_10
REMARK    7  A    between atoms: C_10  and  C_11
REMARK    8  A    between atoms: C_10  and  N_12
REMARK    9  A    between atoms: C_13  and  O_15
REMARK   10  A    between atoms: O_15  and  C_16
REMARK   11  A    between atoms: C_16  and  C_17
REMARK                            x       y       z     vdW  Elec       q    Type
REMARK                         _______ _______ _______ _____ _____    ______ ____
ROOT
ATOM      1  C   UNL     1       3.423   4.519  18.877  0.00  0.00    +0.000 C 
ATOM      2  C   UNL     1       4.260   3.422  19.538  0.00  0.00    +0.000 C 
ENDROOT
BRANCH   1   4
ATOM      3  N   UNL     1       4.993   4.426  16.977  0.00  0.00    +0.000 N 
ATOM      4  C   UNL     1       4.209   5.240  17.760  0.00  0.00    +0.000 C 
ATOM      5  O   UNL     1       4.106   6.450  17.573  0.00  0.00    +0.000 OA
ATOM      6  H   UNL     1       5.178   3.478  17.315  0.00  0.00    +0.000 HD
BRANCH   3   7
ATOM      7  C   UNL     1       5.873   4.918  15.925  0.00  0.00    +0.000 C 
ATOM      8  C   UNL     1       5.994   3.860  14.841  0.00  0.00    +0.000 C 
BRANCH   7   9
ATOM      9  C   UNL     1       7.259   5.233  16.496  0.00  0.00    +0.000 C 
ATOM     10  O   UNL     1       8.028   4.414  16.973  0.00  0.00    +0.000 OA
BRANCH   9  12
ATOM     11  C   UNL     1       7.556   7.304  17.565  0.00  0.00    +0.000 C 
ATOM     12  O   UNL     1       7.541   6.566  16.344  0.00  0.00    +0.000 OA
ENDBRANCH   9  12
ENDBRANCH   7   9
ENDBRANCH   3   7
ENDBRANCH   1   4
BRANCH   1  13
ATOM     13  N   UNL     1       2.862   5.476  19.828  0.00  0.00    +0.000 N 
ATOM     14  C   UNL     1       1.638   5.322  20.408  0.00  0.00    +0.000 C 
ATOM     15  O   UNL     1       0.929   4.340  20.246  0.00  0.00    +0.000 OA
ATOM     16  H   UNL     1       3.321   6.364  19.974  0.00  0.00    +0.000 HD
BRANCH  14  17
ATOM     17  O   UNL     1       1.320   6.408  21.140  0.00  0.00    +0.000 OA
BRANCH  17  18
ATOM     18  C   UNL     1       1.697   7.644  20.521  0.00  0.00    +0.000 C 
BRANCH  18  19
ATOM     19  C   UNL     1       0.895   8.817  21.021  0.00  0.00    +0.000 A 
ATOM     20  C   UNL     1       0.325   9.716  20.111  0.00  0.00    +0.000 A 
ATOM     21  C   UNL     1      -0.462  10.777  20.556  0.00  0.00    +0.000 A 
ATOM     22  C   UNL     1      -0.694  10.951  21.919  0.00  0.00    +0.000 A 
ATOM     23  C   UNL     1      -0.149  10.052  22.835  0.00  0.00    +0.000 A 
ATOM     24  C   UNL     1       0.639   8.989  22.389  0.00  0.00    +0.000 A 
ENDBRANCH  18  19
ENDBRANCH  17  18
ENDBRANCH  14  17
ENDBRANCH   1  13
TORSDOF 8
ENDMDL
MODEL 6
REMARK VINA RESULT:      -7.2      1.475      1.741
REMARK  Name = 
REMARK  11 active torsions:
REMARK  status: ('A' for Active; 'I' for Inactive)
REMARK    1  A    between atoms: C_1  and  O_2
REMARK    2  A    between atoms: O_2  and  C_3
REMARK    3  A    between atoms: C_3  and  C_5
REMARK    4  A    between atoms: C_5  and  C_6
REMARK    5  A    between atoms: C_5  and  N_7
REMARK    6  A    between atoms: C_8  and  C_10
REMARK    7  A    between atoms: C_10  and  C_11
REMARK    8  A    between atoms: C_10  and  N_12
REMARK    9  A    between atoms: C_13  and  O_15
REMARK   10  A    between atoms: O_15  and  C_16
REMARK   11  A    between atoms: C_16  and  C_17
REMARK                            x       y       z     vdW  Elec       q    Type
REMARK                         _______ _______ _______ _____ _____    ______ ____
ROOT
ATOM      1  C   UNL     1       6.555   5.836  16.698  0.00  0.00    +0.000 C 
ATOM      2  C   UNL     1       6.651   5.180  15.320  0.00  0.00    +0.000 C 
ENDROOT
BRANCH   1   4
ATOM      3  N   UNL     1       4.728   4.702  17.908  0.00  0.00    +0.000 N 
ATOM      4  C   UNL     1       5.104   5.837  17.228  0.00  0.00    +0.000 C 
ATOM      5  O   UNL     1       4.359   6.803  17.076  0.00  0.00    +0.000 OA
ATOM      6  H   UNL     1       5.327   3.877  17.820  0.00  0.00    +0.000 HD
BRANCH   3   7
ATOM      7  C   UNL     1       3.382   4.471  18.415  0.00  0.00    +0.000 C 
ATOM      8  C   UNL     1       3.298   4.968  19.849  0.00  0.00    +0.000 C 
BRANCH   7   9
ATOM      9  C   UNL     1       3.045   2.977  18.365  0.00  0.00    +0.000 C 
ATOM     10  O   UNL     1       3.740   2.083  18.820  0.00  0.00    +0.000 OA
BRANCH   9  12
ATOM     11  C   UNL     1       0.773   2.490  18.707  0.00  0.00    +0.000 C 
ATOM     12  O   UNL     1       1.818   2.789  17.784  0.00  0.00    +0.000 OA
ENDBRANCH   9  12
ENDBRANCH   7   9
ENDBRANCH   3   7
ENDBRANCH   1   4
BRANCH   1  13
ATOM     13  N   UNL     1       7.133   7.176  16.747  0.00  0.00    +0.000 N 
ATOM     14  C   UNL     1       7.860   7.638  17.804  0.00  0.00    +0.000 C 
ATOM     15  O   UNL     1       8.156   6.956  18.773  0.00  0.00    +0.000 OA
ATOM     16  H   UNL     1       6.885   7.855  16.041  0.00  0.00    +0.000 HD
BRANCH  14  17
ATOM     17  O   UNL     1       8.163   8.941  17.639  0.00  0.00    +0.000 OA
BRANCH  17  18
ATOM     18  C   UNL     1       8.815   9.523  18.775  0.00  0.00    +0.000 C 
BRANCH  18  19
ATOM     19  C   UNL     1       9.421  10.868  18.476  0.00  0.00    +0.000 A 
ATOM     20  C   UNL     1       8.650  11.864  17.862  0.00  0.00    +0.000 A 
ATOM     21  C   UNL     1       9.181  13.131  17.624  0.00  0.00    +0.000 A 
ATOM     22  C   UNL     1      10.490  13.421  18.003  0.00  0.00    +0.000 A 
ATOM     23  C   UNL     1      11.262  12.447  18.633  0.00  0.00    +0.000 A 
ATOM     24  C   UNL     1      10.730  11.178  18.871  0.00  0.00    +0.000 A 
ENDBRANCH  18  19
ENDBRANCH  17  18
ENDBRANCH  14  17
ENDBRANCH   1  13
TORSDOF 8
ENDMDL
MODEL 7
REMARK VINA RESULT:      -7.2      4.439      5.958
REMARK  Name = 
REMARK  11 active torsions:
REMARK  status: ('A' for Active; 'I' for Inactive)
REMARK    1  A    between atoms: C_1  and  O_2
REMARK    2  A    between atoms: O_2  and  C_3
REMARK    3  A    between atoms: C_3  and  C_5
REMARK    4  A    between atoms: C_5  and  C_6
REMARK    5  A    between atoms: C_5  and  N_7
REMARK    6  A    between atoms: C_8  and  C_10
REMARK    7  A    between atoms: C_10  and  C_11
REMARK    8  A    between atoms: C_10  and  N_12
REMARK    9  A    between atoms: C_13  and  O_15
REMARK   10  A    between atoms: O_15  and  C_16
REMARK   11  A    between atoms: C_16  and  C_17
REMARK                            x       y       z     vdW  Elec       q    Type
REMARK                         _______ _______ _______ _____ _____    ______ ____
ROOT
ATOM      1  C   UNL     1       3.520   6.256  17.743  0.00  0.00    +0.000 C 
ATOM      2  C   UNL     1       2.946   7.631  18.088  0.00  0.00    +0.000 C 
ENDROOT
BRANCH   1   4
ATOM      3  N   UNL     1       3.275   3.896  18.416  0.00  0.00    +0.000 N 
ATOM      4  C   UNL     1       3.168   5.205  18.820  0.00  0.00    +0.000 C 
ATOM      5  O   UNL     1       2.850   5.530  19.962  0.00  0.00    +0.000 OA
ATOM      6  H   UNL     1       3.349   3.713  17.413  0.00  0.00    +0.000 HD
BRANCH   3   7
ATOM      7  C   UNL     1       2.911   2.759  19.253  0.00  0.00    +0.000 C 
ATOM      8  C   UNL     1       3.518   1.495  18.666  0.00  0.00    +0.000 C 
BRANCH   7   9
ATOM      9  C   UNL     1       1.387   2.616  19.322  0.00  0.00    +0.000 C 
ATOM     10  O   UNL     1       0.629   2.686  18.368  0.00  0.00    +0.000 OA
BRANCH   9  12
ATOM     11  C   UNL     1       1.806   2.954  21.608  0.00  0.00    +0.000 C 
ATOM     12  O   UNL     1       0.996   2.342  20.607  0.00  0.00    +0.000 OA
ENDBRANCH   9  12
ENDBRANCH   7   9
ENDBRANCH   3   7
ENDBRANCH   1   4
BRANCH   1  13
ATOM     13  N   UNL     1       4.956   6.274  17.476  0.00  0.00    +0.000 N 
ATOM     14  C   UNL     1       5.488   6.648  16.278  0.00  0.00    +0.000 C 
ATOM     15  O   UNL     1       4.824   7.070  15.343  0.00  0.00    +0.000 OA
ATOM     16  H   UNL     1       5.595   5.868  18.145  0.00  0.00    +0.000 HD
BRANCH  14  17
ATOM     17  O   UNL     1       6.821   6.451  16.268  0.00  0.00    +0.000 OA
BRANCH  17  18
ATOM     18  C   UNL     1       7.196   5.098  15.982  0.00  0.00    +0.000 C 
BRANCH  18  19
ATOM     19  C   UNL     1       7.005   4.732  14.534  0.00  0.00    +0.000 A 
ATOM     20  C   UNL     1       7.798   5.334  13.548  0.00  0.00    +0.000 A 
ATOM     21  C   UNL     1       7.667   4.968  12.208  0.00  0.00    +0.000 A 
ATOM     22  C   UNL     1       6.746   3.991  11.838  0.00  0.00    +0.000 A 
ATOM     23  C   UNL     1       5.965   3.369  12.810  0.00  0.00    +0.000 A 
ATOM     24  C   UNL     1       6.096   3.735  14.152  0.00  0.00    +0.000 A 
ENDBRANCH  18  19
ENDBRANCH  17  18
ENDBRANCH  14  17
ENDBRANCH   1  13
TORSDOF 8
ENDMDL
MODEL 8
REMARK VINA RESULT:      -7.1      1.377      1.899
REMARK  Name = 
REMARK  11 active torsions:
REMARK  status: ('A' for Active; 'I' for Inactive)
REMARK    1  A    between atoms: C_1  and  O_2
REMARK    2  A    between atoms: O_2  and  C_3
REMARK    3  A    between atoms: C_3  and  C_5
REMARK    4  A    between atoms: C_5  and  C_6
REMARK    5  A    between atoms: C_5  and  N_7
REMARK    6  A    between atoms: C_8  and  C_10
REMARK    7  A    between atoms: C_10  and  C_11
REMARK    8  A    between atoms: C_10  and  N_12
REMARK    9  A    between atoms: C_13  and  O_15
REMARK   10  A    between atoms: O_15  and  C_16
REMARK   11  A    between atoms: C_16  and  C_17
REMARK                            x       y       z     vdW  Elec       q    Type
REMARK                         _______ _______ _______ _____ _____    ______ ____
ROOT
ATOM      1  C   UNL     1       6.733   5.081  18.286  0.00  0.00    +0.000 C 
ATOM      2  C   UNL     1       7.375   4.506  17.023  0.00  0.00    +0.000 C 
ENDROOT
BRANCH   1   4
ATOM      3  N   UNL     1       4.418   4.697  19.046  0.00  0.00    +0.000 N 
ATOM      4  C   UNL     1       5.215   5.302  18.104  0.00  0.00    +0.000 C 
ATOM      5  O   UNL     1       4.766   5.999  17.196  0.00  0.00    +0.000 OA
ATOM      6  H   UNL     1       4.846   3.983  19.641  0.00  0.00    +0.000 HD
BRANCH   3   7
ATOM      7  C   UNL     1       2.961   4.715  19.007  0.00  0.00    +0.000 C 
ATOM      8  C   UNL     1       2.453   5.840  19.894  0.00  0.00    +0.000 C 
BRANCH   7   9
ATOM      9  C   UNL     1       2.400   3.377  19.497  0.00  0.00    +0.000 C 
ATOM     10  O   UNL     1       1.767   2.586  18.816  0.00  0.00    +0.000 OA
BRANCH   9  12
ATOM     11  C   UNL     1       1.705   2.677  21.629  0.00  0.00    +0.000 C 
ATOM     12  O   UNL     1       2.760   3.164  20.803  0.00  0.00    +0.000 OA
ENDBRANCH   9  12
ENDBRANCH   7   9
ENDBRANCH   3   7
ENDBRANCH   1   4
BRANCH   1  13
ATOM     13  N   UNL     1       7.387   6.293  18.772  0.00  0.00    +0.000 N 
ATOM     14  C   UNL     1       7.789   7.305  17.953  0.00  0.00    +0.000 C 
ATOM     15  O   UNL     1       7.579   7.328  16.749  0.00  0.00    +0.000 OA
ATOM     16  H   UNL     1       7.686   6.349  19.736  0.00  0.00    +0.000 HD
BRANCH  14  17
ATOM     17  O   UNL     1       8.472   8.237  18.647  0.00  0.00    +0.000 OA
BRANCH  17  18
ATOM     18  C   UNL     1       8.395   9.547  18.071  0.00  0.00    +0.000 C 
BRANCH  18  19
ATOM     19  C   UNL     1       9.378  10.512  18.680  0.00  0.00    +0.000 A 
ATOM     20  C   UNL     1       9.374  10.737  20.063  0.00  0.00    +0.000 A 
ATOM     21  C   UNL     1      10.312  11.589  20.648  0.00  0.00    +0.000 A 
ATOM     22  C   UNL     1      11.269  12.222  19.857  0.00  0.00    +0.000 A 
ATOM     23  C   UNL     1      11.297  11.991  18.483  0.00  0.00    +0.000 A 
ATOM     24  C   UNL     1      10.359  11.138  17.898  0.00  0.00    +0.000 A 
ENDBRANCH  18  19
ENDBRANCH  17  18
ENDBRANCH  14  17
ENDBRANCH   1  13
TORSDOF 8
ENDMDL
MODEL 9
REMARK VINA RESULT:      -7.1      4.725      6.651
REMARK  Name = 
REMARK  11 active torsions:
REMARK  status: ('A' for Active; 'I' for Inactive)
REMARK    1  A    between atoms: C_1  and  O_2
REMARK    2  A    between atoms: O_2  and  C_3
REMARK    3  A    between atoms: C_3  and  C_5
REMARK    4  A    between atoms: C_5  and  C_6
REMARK    5  A    between atoms: C_5  and  N_7
REMARK    6  A    between atoms: C_8  and  C_10
REMARK    7  A    between atoms: C_10  and  C_11
REMARK    8  A    between atoms: C_10  and  N_12
REMARK    9  A    between atoms: C_13  and  O_15
REMARK   10  A    between atoms: O_15  and  C_16
REMARK   11  A    between atoms: C_16  and  C_17
REMARK                            x       y       z     vdW  Elec       q    Type
REMARK                         _______ _______ _______ _____ _____    ______ ____
ROOT
ATOM      1  C   UNL     1       4.010   3.229  18.326  0.00  0.00    +0.000 C 
ATOM      2  C   UNL     1       3.495   1.807  18.096  0.00  0.00    +0.000 C 
ENDROOT
BRANCH   1   4
ATOM      3  N   UNL     1       3.234   5.563  18.512  0.00  0.00    +0.000 N 
ATOM      4  C   UNL     1       2.875   4.271  18.212  0.00  0.00    +0.000 C 
ATOM      5  O   UNL     1       1.744   3.959  17.845  0.00  0.00    +0.000 OA
ATOM      6  H   UNL     1       4.125   5.708  18.994  0.00  0.00    +0.000 HD
BRANCH   3   7
ATOM      7  C   UNL     1       2.296   6.678  18.545  0.00  0.00    +0.000 C 
ATOM      8  C   UNL     1       2.969   7.913  17.970  0.00  0.00    +0.000 C 
BRANCH   7   9
ATOM      9  C   UNL     1       1.850   6.955  19.984  0.00  0.00    +0.000 C 
ATOM     10  O   UNL     1       1.689   6.108  20.848  0.00  0.00    +0.000 OA
BRANCH   9  12
ATOM     11  C   UNL     1       1.074   8.652  21.412  0.00  0.00    +0.000 C 
ATOM     12  O   UNL     1       1.711   8.304  20.184  0.00  0.00    +0.000 OA
ENDBRANCH   9  12
ENDBRANCH   7   9
ENDBRANCH   3   7
ENDBRANCH   1   4
BRANCH   1  13
ATOM     13  N   UNL     1       5.139   3.586  17.471  0.00  0.00    +0.000 N 
ATOM     14  C   UNL     1       6.218   4.292  17.913  0.00  0.00    +0.000 C 
ATOM     15  O   UNL     1       6.377   4.629  19.077  0.00  0.00    +0.000 OA
ATOM     16  H   UNL     1       5.080   3.432  16.474  0.00  0.00    +0.000 HD
BRANCH  14  17
ATOM     17  O   UNL     1       7.045   4.587  16.891  0.00  0.00    +0.000 OA
BRANCH  17  18
ATOM     18  C   UNL     1       6.437   5.405  15.884  0.00  0.00    +0.000 C 
BRANCH  18  19
ATOM     19  C   UNL     1       6.650   4.873  14.492  0.00  0.00    +0.000 A 
ATOM     20  C   UNL     1       5.790   3.895  13.976  0.00  0.00    +0.000 A 
ATOM     21  C   UNL     1       5.943   3.428  12.671  0.00  0.00    +0.000 A 
ATOM     22  C   UNL     1       6.956   3.939  11.861  0.00  0.00    +0.000 A 
ATOM     23  C   UNL     1       7.806   4.927  12.354  0.00  0.00    +0.000 A 
ATOM     24  C   UNL     1       7.653   5.394  13.661  0.00  0.00    +0.000 A 
ENDBRANCH  18  19
ENDBRANCH  17  18
ENDBRANCH  14  17
ENDBRANCH   1  13
TORSDOF 8
ENDMDL
