MODEL 1
REMARK VINA RESULT:      -8.1      0.000      0.000
REMARK  Name = 
REMARK  8 active torsions:
REMARK  status: ('A' for Active; 'I' for Inactive)
REMARK    1  A    between atoms: C_1  and  N_2
REMARK    2  A    between atoms: N_2  and  C_3
REMARK    3  A    between atoms: N_2  and  S_19
REMARK    4  A    between atoms: C_6  and  C_7
REMARK    5  A    between atoms: C_7  and  O_8
REMARK    6  A    between atoms: C_7  and  C_9
REMARK    7  A    between atoms: C_7  and  C_13
REMARK    8  A    between atoms: S_19  and  C_22
REMARK                            x       y       z     vdW  Elec       q    Type
REMARK                         _______ _______ _______ _____ _____    ______ ____
ROOT
ATOM      1  C   UNL     1       5.554   4.392  17.861  0.00  0.00    +0.000 A 
ATOM      2  C   UNL     1       5.083   4.997  19.024  0.00  0.00    +0.000 A 
ATOM      3  C   UNL     1       3.949   4.499  19.664  0.00  0.00    +0.000 A 
ATOM      4  C   UNL     1       3.252   3.390  19.149  0.00  0.00    +0.000 A 
ATOM      5  C   UNL     1       3.704   2.839  17.932  0.00  0.00    +0.000 A 
ATOM      6  C   UNL     1       4.848   3.337  17.293  0.00  0.00    +0.000 A 
ENDROOT
BRANCH   1   8
ATOM      7  C   UNL     1       8.055   4.427  17.833  0.00  0.00    +0.000 C 
ATOM      8  N   UNL     1       6.769   4.861  17.295  0.00  0.00    +0.000 N 
BRANCH   8   9
ATOM      9  S   UNL     1       6.706   5.991  16.043  0.00  0.00    +0.000 S 
ATOM     10  O   UNL     1       5.368   6.561  16.021  0.00  0.00    +0.000 OA
ATOM     11  O   UNL     1       7.862   6.863  16.114  0.00  0.00    +0.000 OA
BRANCH   9  12
ATOM     12  C   UNL     1       6.859   5.034  14.540  0.00  0.00    +0.000 A 
ATOM     13  C   UNL     1       5.901   4.055  14.242  0.00  0.00    +0.000 A 
ATOM     14  C   UNL     1       5.862   3.482  12.970  0.00  0.00    +0.000 A 
ATOM     15  C   UNL     1       6.769   3.887  11.990  0.00  0.00    +0.000 A 
ATOM     16  C   UNL     1       7.736   4.850  12.288  0.00  0.00    +0.000 A 
ATOM     17  C   UNL     1       7.781   5.426  13.561  0.00  0.00    +0.000 A 
ENDBRANCH   9  12
ENDBRANCH   8   9
ENDBRANCH   1   8
BRANCH   4  18
ATOM     18  C   UNL     1       2.058   2.766  19.906  0.00  0.00    +0.000 C 
BRANCH  18  19
ATOM     19  C   UNL     1       2.258   2.796  21.443  0.00  0.00    +0.000 C 
ATOM     20  F   UNL     1       3.349   2.094  21.839  0.00  0.00    +0.000 F 
ATOM     21  F   UNL     1       2.353   4.003  22.023  0.00  0.00    +0.000 F 
ATOM     22  F   UNL     1       1.199   2.167  22.036  0.00  0.00    +0.000 F 
ENDBRANCH  18  19
BRANCH  18  23
ATOM     23  C   UNL     1       0.716   3.455  19.518  0.00  0.00    +0.000 C 
ATOM     24  F   UNL     1      -0.323   2.579  19.463  0.00  0.00    +0.000 F 
ATOM     25  F   UNL     1       0.353   4.391  20.434  0.00  0.00    +0.000 F 
ATOM     26  F   UNL     1       0.715   4.086  18.327  0.00  0.00    +0.000 F 
ENDBRANCH  18  23
BRANCH  18  27
ATOM     27  O   UNL     1       2.002   1.353  19.469  0.00  0.00    +0.000 OA
ATOM     28  H   UNL     1       2.755   1.201  18.866  0.00  0.00    +0.000 HD
ENDBRANCH  18  27
ENDBRANCH   4  18
TORSDOF 7
ENDMDL
MODEL 2
REMARK VINA RESULT:      -8.1      0.994      1.742
REMARK  Name = 
REMARK  8 active torsions:
REMARK  status: ('A' for Active; 'I' for Inactive)
REMARK    1  A    between atoms: C_1  and  N_2
REMARK    2  A    between atoms: N_2  and  C_3
REMARK    3  A    between atoms: N_2  and  S_19
REMARK    4  A    between atoms: C_6  and  C_7
REMARK    5  A    between atoms: C_7  and  O_8
REMARK    6  A    between atoms: C_7  and  C_9
REMARK    7  A    between atoms: C_7  and  C_13
REMARK    8  A    between atoms: S_19  and  C_22
REMARK                            x       y       z     vdW  Elec       q    Type
REMARK                         _______ _______ _______ _____ _____    ______ ____
ROOT
ATOM      1  C   UNL     1       4.809   5.072  17.352  0.00  0.00    +0.000 A 
ATOM      2  C   UNL     1       4.306   3.857  16.894  0.00  0.00    +0.000 A 
ATOM      3  C   UNL     1       3.468   3.094  17.707  0.00  0.00    +0.000 A 
ATOM      4  C   UNL     1       3.125   3.523  19.003  0.00  0.00    +0.000 A 
ATOM      5  C   UNL     1       3.705   4.720  19.472  0.00  0.00    +0.000 A 
ATOM      6  C   UNL     1       4.541   5.489  18.651  0.00  0.00    +0.000 A 
ENDROOT
BRANCH   1   8
ATOM      7  C   UNL     1       4.959   6.997  15.762  0.00  0.00    +0.000 C 
ATOM      8  N   UNL     1       5.572   5.872  16.460  0.00  0.00    +0.000 N 
BRANCH   8   9
ATOM      9  S   UNL     1       7.179   5.453  16.156  0.00  0.00    +0.000 S 
ATOM     10  O   UNL     1       7.959   6.680  16.107  0.00  0.00    +0.000 OA
ATOM     11  O   UNL     1       7.578   4.377  17.041  0.00  0.00    +0.000 OA
BRANCH   9  12
ATOM     12  C   UNL     1       7.185   4.798  14.492  0.00  0.00    +0.000 A 
ATOM     13  C   UNL     1       6.269   3.798  14.138  0.00  0.00    +0.000 A 
ATOM     14  C   UNL     1       6.091   3.458  12.796  0.00  0.00    +0.000 A 
ATOM     15  C   UNL     1       6.817   4.119  11.804  0.00  0.00    +0.000 A 
ATOM     16  C   UNL     1       7.742   5.105  12.154  0.00  0.00    +0.000 A 
ATOM     17  C   UNL     1       7.926   5.447  13.496  0.00  0.00    +0.000 A 
ENDBRANCH   9  12
ENDBRANCH   8   9
ENDBRANCH   1   8
BRANCH   4  18
ATOM     18  C   UNL     1       2.116   2.737  19.871  0.00  0.00    +0.000 C 
BRANCH  18  19
ATOM     19  C   UNL     1       2.518   2.720  21.367  0.00  0.00    +0.000 C 
ATOM     20  F   UNL     1       3.737   2.161  21.573  0.00  0.00    +0.000 F 
ATOM     21  F   UNL     1       2.528   3.899  22.010  0.00  0.00    +0.000 F 
ATOM     22  F   UNL     1       1.643   1.919  22.048  0.00  0.00    +0.000 F 
ENDBRANCH  18  19
BRANCH  18  23
ATOM     23  C   UNL     1       0.669   3.288  19.700  0.00  0.00    +0.000 C 
ATOM     24  F   UNL     1       0.446   4.403  20.446  0.00  0.00    +0.000 F 
ATOM     25  F   UNL     1       0.425   3.656  18.415  0.00  0.00    +0.000 F 
ATOM     26  F   UNL     1      -0.316   2.431  20.033  0.00  0.00    +0.000 F 
ENDBRANCH  18  23
BRANCH  18  27
ATOM     27  O   UNL     1       2.150   1.347  19.362  0.00  0.00    +0.000 OA
ATOM     28  H   UNL     1       1.326   1.198  18.859  0.00  0.00    +0.000 HD
ENDBRANCH  18  27
ENDBRANCH   4  18
TORSDOF 7
ENDMDL
MODEL 3
REMARK VINA RESULT:      -8.0      0.945      2.081
REMARK  Name = 
REMARK  8 active torsions:
REMARK  status: ('A' for Active; 'I' for Inactive)
REMARK    1  A    between atoms: C_1  and  N_2
REMARK    2  A    between atoms: N_2  and  C_3
REMARK    3  A    between atoms: N_2  and  S_19
REMARK    4  A    between atoms: C_6  and  C_7
REMARK    5  A    between atoms: C_7  and  O_8
REMARK    6  A    between atoms: C_7  and  C_9
REMARK    7  A    between atoms: C_7  and  C_13
REMARK    8  A    between atoms: S_19  and  C_22
REMARK                            x       y       z     vdW  Elec       q    Type
REMARK                         _______ _______ _______ _____ _____    ______ ____
ROOT
ATOM      1  C   UNL     1       5.419   4.704  17.936  0.00  0.00    +0.000 A 
ATOM      2  C   UNL     1       4.978   5.540  18.959  0.00  0.00    +0.000 A 
ATOM      3  C   UNL     1       3.808   5.241  19.656  0.00  0.00    +0.000 A 
ATOM      4  C   UNL     1       3.043   4.103  19.335  0.00  0.00    +0.000 A 
ATOM      5  C   UNL     1       3.469   3.311  18.249  0.00  0.00    +0.000 A 
ATOM      6  C   UNL     1       4.649   3.610  17.555  0.00  0.00    +0.000 A 
ENDROOT
BRANCH   1   8
ATOM      7  C   UNL     1       7.899   4.395  17.839  0.00  0.00    +0.000 C 
ATOM      8  N   UNL     1       6.667   4.982  17.320  0.00  0.00    +0.000 N 
BRANCH   8   9
ATOM      9  S   UNL     1       6.719   6.067  16.028  0.00  0.00    +0.000 S 
ATOM     10  O   UNL     1       5.430   6.738  15.955  0.00  0.00    +0.000 OA
ATOM     11  O   UNL     1       7.937   6.849  16.095  0.00  0.00    +0.000 OA
BRANCH   9  12
ATOM     12  C   UNL     1       6.826   5.047  14.563  0.00  0.00    +0.000 A 
ATOM     13  C   UNL     1       5.839   4.083  14.317  0.00  0.00    +0.000 A 
ATOM     14  C   UNL     1       5.768   3.460  13.070  0.00  0.00    +0.000 A 
ATOM     15  C   UNL     1       6.674   3.801  12.064  0.00  0.00    +0.000 A 
ATOM     16  C   UNL     1       7.669   4.749  12.311  0.00  0.00    +0.000 A 
ATOM     17  C   UNL     1       7.746   5.374  13.558  0.00  0.00    +0.000 A 
ENDBRANCH   9  12
ENDBRANCH   8   9
ENDBRANCH   1   8
BRANCH   4  18
ATOM     18  C   UNL     1       1.803   3.706  20.168  0.00  0.00    +0.000 C 
BRANCH  18  19
ATOM     19  C   UNL     1       0.843   2.776  19.384  0.00  0.00    +0.000 C 
ATOM     20  F   UNL     1       1.332   1.518  19.247  0.00  0.00    +0.000 F 
ATOM     21  F   UNL     1      -0.406   2.647  19.858  0.00  0.00    +0.000 F 
ATOM     22  F   UNL     1       0.721   3.248  18.106  0.00  0.00    +0.000 F 
ENDBRANCH  18  19
BRANCH  18  23
ATOM     23  C   UNL     1       2.213   3.050  21.521  0.00  0.00    +0.000 C 
ATOM     24  F   UNL     1       3.332   2.286  21.411  0.00  0.00    +0.000 F 
ATOM     25  F   UNL     1       2.504   3.987  22.460  0.00  0.00    +0.000 F 
ATOM     26  F   UNL     1       1.284   2.247  22.076  0.00  0.00    +0.000 F 
ENDBRANCH  18  23
BRANCH  18  27
ATOM     27  O   UNL     1       1.095   4.972  20.458  0.00  0.00    +0.000 OA
ATOM     28  H   UNL     1       0.717   4.900  21.357  0.00  0.00    +0.000 HD
ENDBRANCH  18  27
ENDBRANCH   4  18
TORSDOF 7
ENDMDL
MODEL 4
REMARK VINA RESULT:      -8.0      1.006      1.855
REMARK  Name = 
REMARK  8 active torsions:
REMARK  status: ('A' for Active; 'I' for Inactive)
REMARK    1  A    between atoms: C_1  and  N_2
REMARK    2  A    between atoms: N_2  and  C_3
REMARK    3  A    between atoms: N_2  and  S_19
REMARK    4  A    between atoms: C_6  and  C_7
REMARK    5  A    between atoms: C_7  and  O_8
REMARK    6  A    between atoms: C_7  and  C_9
REMARK    7  A    between atoms: C_7  and  C_13
REMARK    8  A    between atoms: S_19  and  C_22
REMARK                            x       y       z     vdW  Elec       q    Type
REMARK                         _______ _______ _______ _____ _____    ______ ____
ROOT
ATOM      1  C   UNL     1       4.801   5.083  17.345  0.00  0.00    +0.000 A 
ATOM      2  C   UNL     1       4.419   3.808  16.936  0.00  0.00    +0.000 A 
ATOM      3  C   UNL     1       3.580   3.036  17.739  0.00  0.00    +0.000 A 
ATOM      4  C   UNL     1       3.114   3.517  18.977  0.00  0.00    +0.000 A 
ATOM      5  C   UNL     1       3.573   4.781  19.404  0.00  0.00    +0.000 A 
ATOM      6  C   UNL     1       4.411   5.558  18.592  0.00  0.00    +0.000 A 
ENDROOT
BRANCH   1   8
ATOM      7  C   UNL     1       4.962   7.007  15.755  0.00  0.00    +0.000 C 
ATOM      8  N   UNL     1       5.570   5.880  16.456  0.00  0.00    +0.000 N 
BRANCH   8   9
ATOM      9  S   UNL     1       7.177   5.457  16.158  0.00  0.00    +0.000 S 
ATOM     10  O   UNL     1       7.960   6.682  16.108  0.00  0.00    +0.000 OA
ATOM     11  O   UNL     1       7.571   4.382  17.046  0.00  0.00    +0.000 OA
BRANCH   9  12
ATOM     12  C   UNL     1       7.186   4.798  14.495  0.00  0.00    +0.000 A 
ATOM     13  C   UNL     1       6.270   3.799  14.141  0.00  0.00    +0.000 A 
ATOM     14  C   UNL     1       6.095   3.456  12.799  0.00  0.00    +0.000 A 
ATOM     15  C   UNL     1       6.824   4.114  11.807  0.00  0.00    +0.000 A 
ATOM     16  C   UNL     1       7.749   5.100  12.157  0.00  0.00    +0.000 A 
ATOM     17  C   UNL     1       7.931   5.444  13.499  0.00  0.00    +0.000 A 
ENDBRANCH   9  12
ENDBRANCH   8   9
ENDBRANCH   1   8
BRANCH   4  18
ATOM     18  C   UNL     1       2.102   2.714  19.825  0.00  0.00    +0.000 C 
BRANCH  18  19
ATOM     19  C   UNL     1       2.495   2.671  21.323  0.00  0.00    +0.000 C 
ATOM     20  F   UNL     1       2.539   3.905  21.885  0.00  0.00    +0.000 F 
ATOM     21  F   UNL     1       1.737   1.914  22.132  0.00  0.00    +0.000 F 
ATOM     22  F   UNL     1       3.770   2.189  21.430  0.00  0.00    +0.000 F 
ENDBRANCH  18  19
BRANCH  18  23
ATOM     23  C   UNL     1       0.655   3.265  19.656  0.00  0.00    +0.000 C 
ATOM     24  F   UNL     1       0.372   3.601  18.369  0.00  0.00    +0.000 F 
ATOM     25  F   UNL     1      -0.275   2.335  20.000  0.00  0.00    +0.000 F 
ATOM     26  F   UNL     1       0.367   4.361  20.384  0.00  0.00    +0.000 F 
ENDBRANCH  18  23
BRANCH  18  27
ATOM     27  O   UNL     1       2.142   1.333  19.292  0.00  0.00    +0.000 OA
ATOM     28  H   UNL     1       3.039   1.180  18.936  0.00  0.00    +0.000 HD
ENDBRANCH  18  27
ENDBRANCH   4  18
TORSDOF 7
ENDMDL
MODEL 5
REMARK VINA RESULT:      -7.9      0.965      2.095
REMARK  Name = 
REMARK  8 active torsions:
REMARK  status: ('A' for Active; 'I' for Inactive)
REMARK    1  A    between atoms: C_1  and  N_2
REMARK    2  A    between atoms: N_2  and  C_3
REMARK    3  A    between atoms: N_2  and  S_19
REMARK    4  A    between atoms: C_6  and  C_7
REMARK    5  A    between atoms: C_7  and  O_8
REMARK    6  A    between atoms: C_7  and  C_9
REMARK    7  A    between atoms: C_7  and  C_13
REMARK    8  A    between atoms: S_19  and  C_22
REMARK                            x       y       z     vdW  Elec       q    Type
REMARK                         _______ _______ _______ _____ _____    ______ ____
ROOT
ATOM      1  C   UNL     1       5.419   4.720  17.930  0.00  0.00    +0.000 A 
ATOM      2  C   UNL     1       5.073   5.445  19.068  0.00  0.00    +0.000 A 
ATOM      3  C   UNL     1       3.902   5.145  19.763  0.00  0.00    +0.000 A 
ATOM      4  C   UNL     1       3.041   4.119  19.327  0.00  0.00    +0.000 A 
ATOM      5  C   UNL     1       3.374   3.448  18.133  0.00  0.00    +0.000 A 
ATOM      6  C   UNL     1       4.556   3.747  17.440  0.00  0.00    +0.000 A 
ENDROOT
BRANCH   1   8
ATOM      7  C   UNL     1       7.895   4.383  17.825  0.00  0.00    +0.000 C 
ATOM      8  N   UNL     1       6.668   4.983  17.310  0.00  0.00    +0.000 N 
BRANCH   8   9
ATOM      9  S   UNL     1       6.728   6.065  16.015  0.00  0.00    +0.000 S 
ATOM     10  O   UNL     1       5.442   6.742  15.939  0.00  0.00    +0.000 OA
ATOM     11  O   UNL     1       7.950   6.841  16.083  0.00  0.00    +0.000 OA
BRANCH   9  12
ATOM     12  C   UNL     1       6.832   5.041  14.553  0.00  0.00    +0.000 A 
ATOM     13  C   UNL     1       5.843   4.079  14.309  0.00  0.00    +0.000 A 
ATOM     14  C   UNL     1       5.770   3.453  13.064  0.00  0.00    +0.000 A 
ATOM     15  C   UNL     1       6.675   3.790  12.056  0.00  0.00    +0.000 A 
ATOM     16  C   UNL     1       7.673   4.737  12.301  0.00  0.00    +0.000 A 
ATOM     17  C   UNL     1       7.752   5.364  13.547  0.00  0.00    +0.000 A 
ENDBRANCH   9  12
ENDBRANCH   8   9
ENDBRANCH   1   8
BRANCH   4  18
ATOM     18  C   UNL     1       1.797   3.710  20.147  0.00  0.00    +0.000 C 
BRANCH  18  19
ATOM     19  C   UNL     1       0.879   2.732  19.371  0.00  0.00    +0.000 C 
ATOM     20  F   UNL     1      -0.325   2.561  19.972  0.00  0.00    +0.000 F 
ATOM     21  F   UNL     1       0.624   3.023  18.086  0.00  0.00    +0.000 F 
ATOM     22  F   UNL     1       1.455   1.491  19.376  0.00  0.00    +0.000 F 
ENDBRANCH  18  19
BRANCH  18  23
ATOM     23  C   UNL     1       2.199   3.103  21.525  0.00  0.00    +0.000 C 
ATOM     24  F   UNL     1       1.217   2.329  22.060  0.00  0.00    +0.000 F 
ATOM     25  F   UNL     1       3.282   2.290  21.415  0.00  0.00    +0.000 F 
ATOM     26  F   UNL     1       2.507   4.002  22.482  0.00  0.00    +0.000 F 
ENDBRANCH  18  23
BRANCH  18  27
ATOM     27  O   UNL     1       1.048   4.963  20.389  0.00  0.00    +0.000 OA
ATOM     28  H   UNL     1       0.843   5.356  19.518  0.00  0.00    +0.000 HD
ENDBRANCH  18  27
ENDBRANCH   4  18
TORSDOF 7
ENDMDL
MODEL 6
REMARK VINA RESULT:      -7.9      0.293      1.421
REMARK  Name = 
REMARK  8 active torsions:
REMARK  status: ('A' for Active; 'I' for Inactive)
REMARK    1  A    between atoms: C_1  and  N_2
REMARK    2  A    between atoms: N_2  and  C_3
REMARK    3  A    between atoms: N_2  and  S_19
REMARK    4  A    between atoms: C_6  and  C_7
REMARK    5  A    between atoms: C_7  and  O_8
REMARK    6  A    between atoms: C_7  and  C_9
REMARK    7  A    between atoms: C_7  and  C_13
REMARK    8  A    between atoms: S_19  and  C_22
REMARK                            x       y       z     vdW  Elec       q    Type
REMARK                         _______ _______ _______ _____ _____    ______ ____
ROOT
ATOM      1  C   UNL     1       5.664   4.245  18.131  0.00  0.00    +0.000 A 
ATOM      2  C   UNL     1       4.989   3.160  17.575  0.00  0.00    +0.000 A 
ATOM      3  C   UNL     1       3.832   2.670  18.178  0.00  0.00    +0.000 A 
ATOM      4  C   UNL     1       3.329   3.246  19.361  0.00  0.00    +0.000 A 
ATOM      5  C   UNL     1       4.068   4.296  19.945  0.00  0.00    +0.000 A 
ATOM      6  C   UNL     1       5.228   4.791  19.332  0.00  0.00    +0.000 A 
ENDROOT
BRANCH   1   8
ATOM      7  C   UNL     1       8.139   4.429  17.822  0.00  0.00    +0.000 C 
ATOM      8  N   UNL     1       6.777   4.783  17.433  0.00  0.00    +0.000 N 
BRANCH   8   9
ATOM      9  S   UNL     1       6.507   5.902  16.199  0.00  0.00    +0.000 S 
ATOM     10  O   UNL     1       5.109   6.300  16.254  0.00  0.00    +0.000 OA
ATOM     11  O   UNL     1       7.547   6.912  16.220  0.00  0.00    +0.000 OA
BRANCH   9  12
ATOM     12  C   UNL     1       6.698   4.979  14.679  0.00  0.00    +0.000 A 
ATOM     13  C   UNL     1       5.718   4.049  14.306  0.00  0.00    +0.000 A 
ATOM     14  C   UNL     1       5.721   3.511  13.019  0.00  0.00    +0.000 A 
ATOM     15  C   UNL     1       6.694   3.904  12.097  0.00  0.00    +0.000 A 
ATOM     16  C   UNL     1       7.682   4.818  12.470  0.00  0.00    +0.000 A 
ATOM     17  C   UNL     1       7.685   5.357  13.759  0.00  0.00    +0.000 A 
ENDBRANCH   9  12
ENDBRANCH   8   9
ENDBRANCH   1   8
BRANCH   4  18
ATOM     18  C   UNL     1       1.992   2.778  19.978  0.00  0.00    +0.000 C 
BRANCH  18  19
ATOM     19  C   UNL     1       2.027   2.785  21.528  0.00  0.00    +0.000 C 
ATOM     20  F   UNL     1       2.215   4.028  22.039  0.00  0.00    +0.000 F 
ATOM     21  F   UNL     1       0.965   2.270  22.166  0.00  0.00    +0.000 F 
ATOM     22  F   UNL     1       3.112   2.064  21.945  0.00  0.00    +0.000 F 
ENDBRANCH  18  19
BRANCH  18  23
ATOM     23  C   UNL     1       0.796   3.630  19.457  0.00  0.00    +0.000 C 
ATOM     24  F   UNL     1       1.145   4.441  18.423  0.00  0.00    +0.000 F 
ATOM     25  F   UNL     1      -0.204   2.843  18.980  0.00  0.00    +0.000 F 
ATOM     26  F   UNL     1       0.224   4.440  20.370  0.00  0.00    +0.000 F 
ENDBRANCH  18  23
BRANCH  18  27
ATOM     27  O   UNL     1       1.807   1.383  19.521  0.00  0.00    +0.000 OA
ATOM     28  H   UNL     1       1.167   1.397  18.783  0.00  0.00    +0.000 HD
ENDBRANCH  18  27
ENDBRANCH   4  18
TORSDOF 7
ENDMDL
MODEL 7
REMARK VINA RESULT:      -7.8      1.438      2.645
REMARK  Name = 
REMARK  8 active torsions:
REMARK  status: ('A' for Active; 'I' for Inactive)
REMARK    1  A    between atoms: C_1  and  N_2
REMARK    2  A    between atoms: N_2  and  C_3
REMARK    3  A    between atoms: N_2  and  S_19
REMARK    4  A    between atoms: C_6  and  C_7
REMARK    5  A    between atoms: C_7  and  O_8
REMARK    6  A    between atoms: C_7  and  C_9
REMARK    7  A    between atoms: C_7  and  C_13
REMARK    8  A    between atoms: S_19  and  C_22
REMARK                            x       y       z     vdW  Elec       q    Type
REMARK                         _______ _______ _______ _____ _____    ______ ____
ROOT
ATOM      1  C   UNL     1       4.569   5.483  17.379  0.00  0.00    +0.000 A 
ATOM      2  C   UNL     1       4.459   4.097  17.443  0.00  0.00    +0.000 A 
ATOM      3  C   UNL     1       3.564   3.504  18.333  0.00  0.00    +0.000 A 
ATOM      4  C   UNL     1       2.766   4.287  19.190  0.00  0.00    +0.000 A 
ATOM      5  C   UNL     1       2.946   5.685  19.158  0.00  0.00    +0.000 A 
ATOM      6  C   UNL     1       3.842   6.278  18.258  0.00  0.00    +0.000 A 
ENDROOT
BRANCH   1   8
ATOM      7  C   UNL     1       4.905   7.075  15.479  0.00  0.00    +0.000 C 
ATOM      8  N   UNL     1       5.413   6.054  16.389  0.00  0.00    +0.000 N 
BRANCH   8   9
ATOM      9  S   UNL     1       6.990   5.475  16.227  0.00  0.00    +0.000 S 
ATOM     10  O   UNL     1       7.889   6.619  16.229  0.00  0.00    +0.000 OA
ATOM     11  O   UNL     1       7.208   4.383  17.154  0.00  0.00    +0.000 OA
BRANCH   9  12
ATOM     12  C   UNL     1       7.070   4.790  14.577  0.00  0.00    +0.000 A 
ATOM     13  C   UNL     1       6.167   3.787  14.199  0.00  0.00    +0.000 A 
ATOM     14  C   UNL     1       6.050   3.423  12.857  0.00  0.00    +0.000 A 
ATOM     15  C   UNL     1       6.823   4.064  11.887  0.00  0.00    +0.000 A 
ATOM     16  C   UNL     1       7.735   5.053  12.261  0.00  0.00    +0.000 A 
ATOM     17  C   UNL     1       7.859   5.418  13.604  0.00  0.00    +0.000 A 
ENDBRANCH   9  12
ENDBRANCH   8   9
ENDBRANCH   1   8
BRANCH   4  18
ATOM     18  C   UNL     1       1.697   3.645  20.103  0.00  0.00    +0.000 C 
BRANCH  18  19
ATOM     19  C   UNL     1       0.874   2.557  19.369  0.00  0.00    +0.000 C 
ATOM     20  F   UNL     1       0.583   2.900  18.089  0.00  0.00    +0.000 F 
ATOM     21  F   UNL     1       1.398   1.323  19.320  0.00  0.00    +0.000 F 
ATOM     22  F   UNL     1      -0.341   2.434  19.986  0.00  0.00    +0.000 F 
ENDBRANCH  18  19
BRANCH  18  23
ATOM     23  C   UNL     1       2.334   3.064  21.401  0.00  0.00    +0.000 C 
ATOM     24  F   UNL     1       3.511   2.426  21.164  0.00  0.00    +0.000 F 
ATOM     25  F   UNL     1       2.626   4.045  22.295  0.00  0.00    +0.000 F 
ATOM     26  F   UNL     1       1.572   2.173  22.067  0.00  0.00    +0.000 F 
ENDBRANCH  18  23
BRANCH  18  27
ATOM     27  O   UNL     1       0.784   4.746  20.484  0.00  0.00    +0.000 OA
ATOM     28  H   UNL     1       0.383   5.094  19.663  0.00  0.00    +0.000 HD
ENDBRANCH  18  27
ENDBRANCH   4  18
TORSDOF 7
ENDMDL
MODEL 8
REMARK VINA RESULT:      -7.8      0.933      2.310
REMARK  Name = 
REMARK  8 active torsions:
REMARK  status: ('A' for Active; 'I' for Inactive)
REMARK    1  A    between atoms: C_1  and  N_2
REMARK    2  A    between atoms: N_2  and  C_3
REMARK    3  A    between atoms: N_2  and  S_19
REMARK    4  A    between atoms: C_6  and  C_7
REMARK    5  A    between atoms: C_7  and  O_8
REMARK    6  A    between atoms: C_7  and  C_9
REMARK    7  A    between atoms: C_7  and  C_13
REMARK    8  A    between atoms: S_19  and  C_22
REMARK                            x       y       z     vdW  Elec       q    Type
REMARK                         _______ _______ _______ _____ _____    ______ ____
ROOT
ATOM      1  C   UNL     1       5.603   4.572  18.148  0.00  0.00    +0.000 A 
ATOM      2  C   UNL     1       4.870   3.446  17.783  0.00  0.00    +0.000 A 
ATOM      3  C   UNL     1       3.680   3.139  18.443  0.00  0.00    +0.000 A 
ATOM      4  C   UNL     1       3.203   3.947  19.493  0.00  0.00    +0.000 A 
ATOM      5  C   UNL     1       3.999   5.040  19.893  0.00  0.00    +0.000 A 
ATOM      6  C   UNL     1       5.191   5.350  19.224  0.00  0.00    +0.000 A 
ENDROOT
BRANCH   1   8
ATOM      7  C   UNL     1       8.065   4.381  17.746  0.00  0.00    +0.000 C 
ATOM      8  N   UNL     1       6.753   4.911  17.387  0.00  0.00    +0.000 N 
BRANCH   8   9
ATOM      9  S   UNL     1       6.596   6.002  16.108  0.00  0.00    +0.000 S 
ATOM     10  O   UNL     1       5.233   6.511  16.120  0.00  0.00    +0.000 OA
ATOM     11  O   UNL     1       7.712   6.926  16.115  0.00  0.00    +0.000 OA
BRANCH   9  12
ATOM     12  C   UNL     1       6.739   5.011  14.627  0.00  0.00    +0.000 A 
ATOM     13  C   UNL     1       5.756   4.056  14.334  0.00  0.00    +0.000 A 
ATOM     14  C   UNL     1       5.717   3.459  13.073  0.00  0.00    +0.000 A 
ATOM     15  C   UNL     1       6.650   3.817  12.099  0.00  0.00    +0.000 A 
ATOM     16  C   UNL     1       7.641   4.757  12.392  0.00  0.00    +0.000 A 
ATOM     17  C   UNL     1       7.687   5.356  13.653  0.00  0.00    +0.000 A 
ENDBRANCH   9  12
ENDBRANCH   8   9
ENDBRANCH   1   8
BRANCH   4  18
ATOM     18  C   UNL     1       1.835   3.676  20.159  0.00  0.00    +0.000 C 
BRANCH  18  19
ATOM     19  C   UNL     1       0.916   2.795  19.275  0.00  0.00    +0.000 C 
ATOM     20  F   UNL     1       0.822   3.255  18.002  0.00  0.00    +0.000 F 
ATOM     21  F   UNL     1       1.222   1.491  19.184  0.00  0.00    +0.000 F 
ATOM     22  F   UNL     1      -0.358   2.857  19.768  0.00  0.00    +0.000 F 
ENDBRANCH  18  19
BRANCH  18  23
ATOM     23  C   UNL     1       2.006   3.039  21.571  0.00  0.00    +0.000 C 
ATOM     24  F   UNL     1       2.306   3.960  22.525  0.00  0.00    +0.000 F 
ATOM     25  F   UNL     1       0.859   2.442  21.990  0.00  0.00    +0.000 F 
ATOM     26  F   UNL     1       2.967   2.098  21.665  0.00  0.00    +0.000 F 
ENDBRANCH  18  23
BRANCH  18  27
ATOM     27  O   UNL     1       1.198   5.002  20.319  0.00  0.00    +0.000 OA
ATOM     28  H   UNL     1       1.906   5.647  20.514  0.00  0.00    +0.000 HD
ENDBRANCH  18  27
ENDBRANCH   4  18
TORSDOF 7
ENDMDL
MODEL 9
REMARK VINA RESULT:      -7.7      6.546      8.949
REMARK  Name = 
REMARK  8 active torsions:
REMARK  status: ('A' for Active; 'I' for Inactive)
REMARK    1  A    between atoms: C_1  and  N_2
REMARK    2  A    between atoms: N_2  and  C_3
REMARK    3  A    between atoms: N_2  and  S_19
REMARK    4  A    between atoms: C_6  and  C_7
REMARK    5  A    between atoms: C_7  and  O_8
REMARK    6  A    between atoms: C_7  and  C_9
REMARK    7  A    between atoms: C_7  and  C_13
REMARK    8  A    between atoms: S_19  and  C_22
REMARK                            x       y       z     vdW  Elec       q    Type
REMARK                         _______ _______ _______ _____ _____    ______ ____
ROOT
ATOM      1  C   UNL     1       1.256   9.776  18.979  0.00  0.00    +0.000 A 
ATOM      2  C   UNL     1       1.291   8.969  20.113  0.00  0.00    +0.000 A 
ATOM      3  C   UNL     1       1.868   7.702  20.056  0.00  0.00    +0.000 A 
ATOM      4  C   UNL     1       2.414   7.206  18.856  0.00  0.00    +0.000 A 
ATOM      5  C   UNL     1       2.303   8.011  17.703  0.00  0.00    +0.000 A 
ATOM      6  C   UNL     1       1.728   9.288  17.765  0.00  0.00    +0.000 A 
ENDROOT
BRANCH   1   8
ATOM      7  C   UNL     1       1.657  12.212  19.384  0.00  0.00    +0.000 C 
ATOM      8  N   UNL     1       0.755  11.099  19.100  0.00  0.00    +0.000 N 
BRANCH   8   9
ATOM      9  S   UNL     1      -0.909  11.358  18.991  0.00  0.00    +0.000 S 
ATOM     10  O   UNL     1      -1.126  12.536  18.166  0.00  0.00    +0.000 OA
ATOM     11  O   UNL     1      -1.576  10.113  18.664  0.00  0.00    +0.000 OA
BRANCH   9  12
ATOM     12  C   UNL     1      -1.421  11.813  20.643  0.00  0.00    +0.000 A 
ATOM     13  C   UNL     1      -2.552  12.622  20.820  0.00  0.00    +0.000 A 
ATOM     14  C   UNL     1      -3.107  12.778  22.091  0.00  0.00    +0.000 A 
ATOM     15  C   UNL     1      -2.544  12.121  23.186  0.00  0.00    +0.000 A 
ATOM     16  C   UNL     1      -1.408  11.326  23.017  0.00  0.00    +0.000 A 
ATOM     17  C   UNL     1      -0.846  11.170  21.747  0.00  0.00    +0.000 A 
ENDBRANCH   9  12
ENDBRANCH   8   9
ENDBRANCH   1   8
BRANCH   4  18
ATOM     18  C   UNL     1       3.149   5.847  18.807  0.00  0.00    +0.000 C 
BRANCH  18  19
ATOM     19  C   UNL     1       2.204   4.684  18.413  0.00  0.00    +0.000 C 
ATOM     20  F   UNL     1       1.364   5.015  17.400  0.00  0.00    +0.000 F 
ATOM     21  F   UNL     1       2.779   3.522  18.064  0.00  0.00    +0.000 F 
ATOM     22  F   UNL     1       1.386   4.404  19.472  0.00  0.00    +0.000 F 
ENDBRANCH  18  19
BRANCH  18  23
ATOM     23  C   UNL     1       4.378   5.899  17.851  0.00  0.00    +0.000 C 
ATOM     24  F   UNL     1       4.991   7.113  17.857  0.00  0.00    +0.000 F 
ATOM     25  F   UNL     1       5.334   5.008  18.221  0.00  0.00    +0.000 F 
ATOM     26  F   UNL     1       4.111   5.639  16.556  0.00  0.00    +0.000 F 
ENDBRANCH  18  23
BRANCH  18  27
ATOM     27  O   UNL     1       3.637   5.607  20.183  0.00  0.00    +0.000 OA
ATOM     28  H   UNL     1       4.520   5.193  20.115  0.00  0.00    +0.000 HD
ENDBRANCH  18  27
ENDBRANCH   4  18
TORSDOF 7
ENDMDL
