MODEL 1
REMARK VINA RESULT:      -7.9      0.000      0.000
REMARK  Name = 
REMARK  3 active torsions:
REMARK  status: ('A' for Active; 'I' for Inactive)
REMARK    1  A    between atoms: C_1  and  N_2
REMARK    2  A    between atoms: N_13  and  C_14
REMARK    3  A    between atoms: C_15  and  C_16
REMARK                            x       y       z     vdW  Elec       q    Type
REMARK                         _______ _______ _______ _____ _____    ______ ____
ROOT
ATOM      1  C   UNL     1       1.017   9.564  20.621  0.00  0.00    +0.000 C 
ATOM      2  N   UNL     1       1.815   8.493  20.034  0.00  0.00    +0.000 NA
ATOM      3  C   UNL     1       1.776   8.524  18.555  0.00  0.00    +0.000 C 
ATOM      4  C   UNL     1       2.799   7.536  17.921  0.00  0.00    +0.000 C 
ATOM      5  C   UNL     1       2.806   6.253  18.689  0.00  0.00    +0.000 A 
ATOM      6  C   UNL     1       2.130   6.094  19.883  0.00  0.00    +0.000 A 
ATOM      7  C   UNL     1       2.337   4.762  20.308  0.00  0.00    +0.000 A 
ATOM      8  C   UNL     1       1.865   4.003  21.397  0.00  0.00    +0.000 A 
ATOM      9  C   UNL     1       2.400   2.737  21.637  0.00  0.00    +0.000 A 
ATOM     10  C   UNL     1       3.432   2.249  20.841  0.00  0.00    +0.000 A 
ATOM     11  C   UNL     1       3.890   2.972  19.737  0.00  0.00    +0.000 A 
ATOM     12  C   UNL     1       3.268   4.197  19.428  0.00  0.00    +0.000 A 
ATOM     13  N   UNL     1       3.402   5.055  18.330  0.00  0.00    +0.000 N 
ATOM     14  C   UNL     1       1.352   7.182  20.546  0.00  0.00    +0.000 C 
ENDROOT
BRANCH  13  15
ATOM     15  C   UNL     1       4.010   4.811  17.090  0.00  0.00    +0.000 C 
ATOM     16  C   UNL     1       5.181   5.240  16.582  0.00  0.00    +0.000 C 
BRANCH  16  17
ATOM     17  C   UNL     1       6.302   5.963  17.203  0.00  0.00    +0.000 A 
ATOM     18  C   UNL     1       6.926   5.428  18.336  0.00  0.00    +0.000 A 
ATOM     19  C   UNL     1       7.920   6.151  18.997  0.00  0.00    +0.000 A 
ATOM     20  C   UNL     1       8.263   7.397  18.506  0.00  0.00    +0.000 A 
ATOM     21  N   UNL     1       7.682   7.962  17.430  0.00  0.00    +0.000 NA
ATOM     22  C   UNL     1       6.714   7.237  16.813  0.00  0.00    +0.000 A 
ENDBRANCH  16  17
ENDBRANCH  13  15
TORSDOF 2
ENDMDL
MODEL 2
REMARK VINA RESULT:      -7.7      0.651      1.060
REMARK  Name = 
REMARK  3 active torsions:
REMARK  status: ('A' for Active; 'I' for Inactive)
REMARK    1  A    between atoms: C_1  and  N_2
REMARK    2  A    between atoms: N_13  and  C_14
REMARK    3  A    between atoms: C_15  and  C_16
REMARK                            x       y       z     vdW  Elec       q    Type
REMARK                         _______ _______ _______ _____ _____    ______ ____
ROOT
ATOM      1  C   UNL     1       0.787   9.513  21.049  0.00  0.00    +0.000 C 
ATOM      2  N   UNL     1       1.618   8.505  20.399  0.00  0.00    +0.000 NA
ATOM      3  C   UNL     1       1.599   8.644  18.926  0.00  0.00    +0.000 C 
ATOM      4  C   UNL     1       2.654   7.726  18.238  0.00  0.00    +0.000 C 
ATOM      5  C   UNL     1       2.678   6.391  18.911  0.00  0.00    +0.000 A 
ATOM      6  C   UNL     1       1.988   6.130  20.079  0.00  0.00    +0.000 A 
ATOM      7  C   UNL     1       2.218   4.776  20.409  0.00  0.00    +0.000 A 
ATOM      8  C   UNL     1       1.747   3.929  21.431  0.00  0.00    +0.000 A 
ATOM      9  C   UNL     1       2.307   2.660  21.587  0.00  0.00    +0.000 A 
ATOM     10  C   UNL     1       3.360   2.254  20.775  0.00  0.00    +0.000 A 
ATOM     11  C   UNL     1       3.819   3.065  19.734  0.00  0.00    +0.000 A 
ATOM     12  C   UNL     1       3.175   4.296  19.506  0.00  0.00    +0.000 A 
ATOM     13  N   UNL     1       3.306   5.235  18.475  0.00  0.00    +0.000 N 
ATOM     14  C   UNL     1       1.176   7.150  20.807  0.00  0.00    +0.000 C 
ENDROOT
BRANCH  13  15
ATOM     15  C   UNL     1       3.937   5.096  17.231  0.00  0.00    +0.000 C 
ATOM     16  C   UNL     1       5.117   5.565  16.782  0.00  0.00    +0.000 C 
BRANCH  16  17
ATOM     17  C   UNL     1       6.225   6.234  17.483  0.00  0.00    +0.000 A 
ATOM     18  C   UNL     1       6.656   7.494  17.050  0.00  0.00    +0.000 A 
ATOM     19  C   UNL     1       7.770   8.094  17.637  0.00  0.00    +0.000 A 
ATOM     20  C   UNL     1       8.430   7.414  18.644  0.00  0.00    +0.000 A 
ATOM     21  N   UNL     1       8.065   6.194  19.084  0.00  0.00    +0.000 NA
ATOM     22  C   UNL     1       6.981   5.634  18.490  0.00  0.00    +0.000 A 
ENDBRANCH  16  17
ENDBRANCH  13  15
TORSDOF 2
ENDMDL
MODEL 3
REMARK VINA RESULT:      -7.5      1.125      3.791
REMARK  Name = 
REMARK  3 active torsions:
REMARK  status: ('A' for Active; 'I' for Inactive)
REMARK    1  A    between atoms: C_1  and  N_2
REMARK    2  A    between atoms: N_13  and  C_14
REMARK    3  A    between atoms: C_15  and  C_16
REMARK                            x       y       z     vdW  Elec       q    Type
REMARK                         _______ _______ _______ _____ _____    ______ ____
ROOT
ATOM      1  C   UNL     1       1.617   2.409  22.044  0.00  0.00    +0.000 C 
ATOM      2  N   UNL     1       1.973   3.103  20.811  0.00  0.00    +0.000 NA
ATOM      3  C   UNL     1       3.221   2.571  20.221  0.00  0.00    +0.000 C 
ATOM      4  C   UNL     1       3.486   3.143  18.797  0.00  0.00    +0.000 C 
ATOM      5  C   UNL     1       3.151   4.601  18.767  0.00  0.00    +0.000 A 
ATOM      6  C   UNL     1       2.524   5.244  19.816  0.00  0.00    +0.000 A 
ATOM      7  C   UNL     1       2.389   6.604  19.454  0.00  0.00    +0.000 A 
ATOM      8  C   UNL     1       1.895   7.743  20.118  0.00  0.00    +0.000 A 
ATOM      9  C   UNL     1       1.737   8.937  19.412  0.00  0.00    +0.000 A 
ATOM     10  C   UNL     1       2.012   8.987  18.049  0.00  0.00    +0.000 A 
ATOM     11  C   UNL     1       2.535   7.877  17.381  0.00  0.00    +0.000 A 
ATOM     12  C   UNL     1       2.803   6.710  18.121  0.00  0.00    +0.000 A 
ATOM     13  N   UNL     1       3.447   5.516  17.771  0.00  0.00    +0.000 N 
ATOM     14  C   UNL     1       2.090   4.558  21.070  0.00  0.00    +0.000 C 
ENDROOT
BRANCH  13  15
ATOM     15  C   UNL     1       4.243   5.241  16.650  0.00  0.00    +0.000 C 
ATOM     16  C   UNL     1       5.524   5.556  16.379  0.00  0.00    +0.000 C 
BRANCH  16  17
ATOM     17  C   UNL     1       6.579   6.141  17.221  0.00  0.00    +0.000 A 
ATOM     18  C   UNL     1       7.069   5.420  18.317  0.00  0.00    +0.000 A 
ATOM     19  C   UNL     1       7.993   6.003  19.184  0.00  0.00    +0.000 A 
ATOM     20  C   UNL     1       8.404   7.300  18.933  0.00  0.00    +0.000 A 
ATOM     21  N   UNL     1       7.951   8.040  17.904  0.00  0.00    +0.000 NA
ATOM     22  C   UNL     1       7.048   7.448  17.081  0.00  0.00    +0.000 A 
ENDBRANCH  16  17
ENDBRANCH  13  15
TORSDOF 2
ENDMDL
MODEL 4
REMARK VINA RESULT:      -7.4      1.257      3.936
REMARK  Name = 
REMARK  3 active torsions:
REMARK  status: ('A' for Active; 'I' for Inactive)
REMARK    1  A    between atoms: C_1  and  N_2
REMARK    2  A    between atoms: N_13  and  C_14
REMARK    3  A    between atoms: C_15  and  C_16
REMARK                            x       y       z     vdW  Elec       q    Type
REMARK                         _______ _______ _______ _____ _____    ______ ____
ROOT
ATOM      1  C   UNL     1       1.479   2.400  21.893  0.00  0.00    +0.000 C 
ATOM      2  N   UNL     1       1.890   3.132  20.700  0.00  0.00    +0.000 NA
ATOM      3  C   UNL     1       3.174   2.629  20.161  0.00  0.00    +0.000 C 
ATOM      4  C   UNL     1       3.505   3.244  18.768  0.00  0.00    +0.000 C 
ATOM      5  C   UNL     1       3.154   4.699  18.762  0.00  0.00    +0.000 A 
ATOM      6  C   UNL     1       2.466   5.306  19.794  0.00  0.00    +0.000 A 
ATOM      7  C   UNL     1       2.334   6.673  19.463  0.00  0.00    +0.000 A 
ATOM      8  C   UNL     1       1.793   7.789  20.131  0.00  0.00    +0.000 A 
ATOM      9  C   UNL     1       1.657   9.000  19.450  0.00  0.00    +0.000 A 
ATOM     10  C   UNL     1       2.001   9.091  18.106  0.00  0.00    +0.000 A 
ATOM     11  C   UNL     1       2.571   8.005  17.435  0.00  0.00    +0.000 A 
ATOM     12  C   UNL     1       2.814   6.821  18.156  0.00  0.00    +0.000 A 
ATOM     13  N   UNL     1       3.490   5.645  17.807  0.00  0.00    +0.000 N 
ATOM     14  C   UNL     1       1.976   4.580  21.004  0.00  0.00    +0.000 C 
ENDROOT
BRANCH  13  15
ATOM     15  C   UNL     1       4.346   5.409  16.722  0.00  0.00    +0.000 C 
ATOM     16  C   UNL     1       5.605   5.824  16.485  0.00  0.00    +0.000 C 
BRANCH  16  17
ATOM     17  C   UNL     1       6.576   6.519  17.345  0.00  0.00    +0.000 A 
ATOM     18  C   UNL     1       6.928   7.844  17.059  0.00  0.00    +0.000 A 
ATOM     19  C   UNL     1       7.923   8.482  17.801  0.00  0.00    +0.000 A 
ATOM     20  C   UNL     1       8.544   7.773  18.813  0.00  0.00    +0.000 A 
ATOM     21  N   UNL     1       8.253   6.494  19.116  0.00  0.00    +0.000 NA
ATOM     22  C   UNL     1       7.286   5.899  18.372  0.00  0.00    +0.000 A 
ENDBRANCH  16  17
ENDBRANCH  13  15
TORSDOF 2
ENDMDL
MODEL 5
REMARK VINA RESULT:      -7.3      1.366      4.024
REMARK  Name = 
REMARK  3 active torsions:
REMARK  status: ('A' for Active; 'I' for Inactive)
REMARK    1  A    between atoms: C_1  and  N_2
REMARK    2  A    between atoms: N_13  and  C_14
REMARK    3  A    between atoms: C_15  and  C_16
REMARK                            x       y       z     vdW  Elec       q    Type
REMARK                         _______ _______ _______ _____ _____    ______ ____
ROOT
ATOM      1  C   UNL     1       1.653   2.558  21.543  0.00  0.00    +0.000 C 
ATOM      2  N   UNL     1       1.875   3.538  20.486  0.00  0.00    +0.000 NA
ATOM      3  C   UNL     1       3.128   3.275  19.744  0.00  0.00    +0.000 C 
ATOM      4  C   UNL     1       3.257   4.172  18.477  0.00  0.00    +0.000 C 
ATOM      5  C   UNL     1       2.795   5.560  18.790  0.00  0.00    +0.000 A 
ATOM      6  C   UNL     1       2.177   5.890  19.980  0.00  0.00    +0.000 A 
ATOM      7  C   UNL     1       1.903   7.276  19.940  0.00  0.00    +0.000 A 
ATOM      8  C   UNL     1       1.352   8.187  20.863  0.00  0.00    +0.000 A 
ATOM      9  C   UNL     1       1.050   9.485  20.450  0.00  0.00    +0.000 A 
ATOM     10  C   UNL     1       1.238   9.863  19.125  0.00  0.00    +0.000 A 
ATOM     11  C   UNL     1       1.815   8.985  18.204  0.00  0.00    +0.000 A 
ATOM     12  C   UNL     1       2.227   7.715  18.650  0.00  0.00    +0.000 A 
ATOM     13  N   UNL     1       2.951   6.697  18.016  0.00  0.00    +0.000 N 
ATOM     14  C   UNL     1       1.880   4.904  21.062  0.00  0.00    +0.000 C 
ENDROOT
BRANCH  13  15
ATOM     15  C   UNL     1       3.701   6.756  16.832  0.00  0.00    +0.000 C 
ATOM     16  C   UNL     1       5.029   6.679  16.625  0.00  0.00    +0.000 C 
BRANCH  16  17
ATOM     17  C   UNL     1       6.136   6.340  17.533  0.00  0.00    +0.000 A 
ATOM     18  C   UNL     1       7.089   7.313  17.855  0.00  0.00    +0.000 A 
ATOM     19  C   UNL     1       8.199   6.978  18.631  0.00  0.00    +0.000 A 
ATOM     20  C   UNL     1       8.329   5.671  19.064  0.00  0.00    +0.000 A 
ATOM     21  N   UNL     1       7.449   4.696  18.768  0.00  0.00    +0.000 NA
ATOM     22  C   UNL     1       6.383   5.051  18.007  0.00  0.00    +0.000 A 
ENDBRANCH  16  17
ENDBRANCH  13  15
TORSDOF 2
ENDMDL
MODEL 6
REMARK VINA RESULT:      -7.0      1.124      1.212
REMARK  Name = 
REMARK  3 active torsions:
REMARK  status: ('A' for Active; 'I' for Inactive)
REMARK    1  A    between atoms: C_1  and  N_2
REMARK    2  A    between atoms: N_13  and  C_14
REMARK    3  A    between atoms: C_15  and  C_16
REMARK                            x       y       z     vdW  Elec       q    Type
REMARK                         _______ _______ _______ _____ _____    ______ ____
ROOT
ATOM      1  C   UNL     1       1.137   8.451  21.287  0.00  0.00    +0.000 C 
ATOM      2  N   UNL     1       1.958   7.673  20.366  0.00  0.00    +0.000 NA
ATOM      3  C   UNL     1       2.074   8.329  19.044  0.00  0.00    +0.000 C 
ATOM      4  C   UNL     1       3.127   7.630  18.134  0.00  0.00    +0.000 C 
ATOM      5  C   UNL     1       3.014   6.145  18.278  0.00  0.00    +0.000 A 
ATOM      6  C   UNL     1       2.212   5.546  19.230  0.00  0.00    +0.000 A 
ATOM      7  C   UNL     1       2.331   4.148  19.060  0.00  0.00    +0.000 A 
ATOM      8  C   UNL     1       1.724   3.037  19.677  0.00  0.00    +0.000 A 
ATOM      9  C   UNL     1       2.192   1.753  19.395  0.00  0.00    +0.000 A 
ATOM     10  C   UNL     1       3.285   1.573  18.554  0.00  0.00    +0.000 A 
ATOM     11  C   UNL     1       3.879   2.660  17.906  0.00  0.00    +0.000 A 
ATOM     12  C   UNL     1       3.331   3.941  18.102  0.00  0.00    +0.000 A 
ATOM     13  N   UNL     1       3.606   5.171  17.491  0.00  0.00    +0.000 N 
ATOM     14  C   UNL     1       1.403   6.306  20.229  0.00  0.00    +0.000 C 
ENDROOT
BRANCH  13  15
ATOM     15  C   UNL     1       4.332   5.431  16.319  0.00  0.00    +0.000 C 
ATOM     16  C   UNL     1       5.546   5.986  16.138  0.00  0.00    +0.000 C 
BRANCH  16  17
ATOM     17  C   UNL     1       6.598   6.353  17.099  0.00  0.00    +0.000 A 
ATOM     18  C   UNL     1       6.939   5.463  18.124  0.00  0.00    +0.000 A 
ATOM     19  C   UNL     1       7.860   5.839  19.102  0.00  0.00    +0.000 A 
ATOM     20  C   UNL     1       8.417   7.103  19.031  0.00  0.00    +0.000 A 
ATOM     21  N   UNL     1       8.110   8.001  18.075  0.00  0.00    +0.000 NA
ATOM     22  C   UNL     1       7.206   7.608  17.141  0.00  0.00    +0.000 A 
ENDBRANCH  16  17
ENDBRANCH  13  15
TORSDOF 2
ENDMDL
MODEL 7
REMARK VINA RESULT:      -7.0      3.645      8.176
REMARK  Name = 
REMARK  3 active torsions:
REMARK  status: ('A' for Active; 'I' for Inactive)
REMARK    1  A    between atoms: C_1  and  N_2
REMARK    2  A    between atoms: N_13  and  C_14
REMARK    3  A    between atoms: C_15  and  C_16
REMARK                            x       y       z     vdW  Elec       q    Type
REMARK                         _______ _______ _______ _____ _____    ______ ____
ROOT
ATOM      1  C   UNL     1       2.899   5.894  18.468  0.00  0.00    +0.000 C 
ATOM      2  N   UNL     1       2.123   7.120  18.617  0.00  0.00    +0.000 NA
ATOM      3  C   UNL     1       2.658   8.216  17.778  0.00  0.00    +0.000 C 
ATOM      4  C   UNL     1       1.709   9.451  17.754  0.00  0.00    +0.000 C 
ATOM      5  C   UNL     1       1.160   9.694  19.124  0.00  0.00    +0.000 A 
ATOM      6  C   UNL     1       1.347   8.812  20.171  0.00  0.00    +0.000 A 
ATOM      7  C   UNL     1       0.718   9.370  21.307  0.00  0.00    +0.000 A 
ATOM      8  C   UNL     1       0.620   8.977  22.656  0.00  0.00    +0.000 A 
ATOM      9  C   UNL     1      -0.234   9.672  23.514  0.00  0.00    +0.000 A 
ATOM     10  C   UNL     1      -1.024  10.709  23.030  0.00  0.00    +0.000 A 
ATOM     11  C   UNL     1      -0.915  11.135  21.703  0.00  0.00    +0.000 A 
ATOM     12  C   UNL     1       0.031  10.509  20.870  0.00  0.00    +0.000 A 
ATOM     13  N   UNL     1       0.465  10.805  19.572  0.00  0.00    +0.000 N 
ATOM     14  C   UNL     1       2.084   7.520  20.044  0.00  0.00    +0.000 C 
ENDROOT
BRANCH  13  15
ATOM     15  C   UNL     1       0.266  11.973  18.821  0.00  0.00    +0.000 C 
ATOM     16  C   UNL     1      -0.778  12.371  18.070  0.00  0.00    +0.000 C 
BRANCH  16  17
ATOM     17  C   UNL     1      -2.130  11.811  17.912  0.00  0.00    +0.000 A 
ATOM     18  C   UNL     1      -2.476  11.167  16.717  0.00  0.00    +0.000 A 
ATOM     19  C   UNL     1      -3.782  10.723  16.512  0.00  0.00    +0.000 A 
ATOM     20  C   UNL     1      -4.714  10.938  17.511  0.00  0.00    +0.000 A 
ATOM     21  N   UNL     1      -4.436  11.566  18.669  0.00  0.00    +0.000 NA
ATOM     22  C   UNL     1      -3.158  11.992  18.837  0.00  0.00    +0.000 A 
ENDBRANCH  16  17
ENDBRANCH  13  15
TORSDOF 2
ENDMDL
MODEL 8
REMARK VINA RESULT:      -6.8      1.233      3.936
REMARK  Name = 
REMARK  3 active torsions:
REMARK  status: ('A' for Active; 'I' for Inactive)
REMARK    1  A    between atoms: C_1  and  N_2
REMARK    2  A    between atoms: N_13  and  C_14
REMARK    3  A    between atoms: C_15  and  C_16
REMARK                            x       y       z     vdW  Elec       q    Type
REMARK                         _______ _______ _______ _____ _____    ______ ____
ROOT
ATOM      1  C   UNL     1       2.142   2.607  21.425  0.00  0.00    +0.000 C 
ATOM      2  N   UNL     1       2.308   3.546  20.320  0.00  0.00    +0.000 NA
ATOM      3  C   UNL     1       3.564   3.302  19.576  0.00  0.00    +0.000 C 
ATOM      4  C   UNL     1       3.640   4.143  18.267  0.00  0.00    +0.000 C 
ATOM      5  C   UNL     1       3.120   5.523  18.520  0.00  0.00    +0.000 A 
ATOM      6  C   UNL     1       2.501   5.882  19.701  0.00  0.00    +0.000 A 
ATOM      7  C   UNL     1       2.166   7.251  19.600  0.00  0.00    +0.000 A 
ATOM      8  C   UNL     1       1.585   8.179  20.485  0.00  0.00    +0.000 A 
ATOM      9  C   UNL     1       1.221   9.443  20.017  0.00  0.00    +0.000 A 
ATOM     10  C   UNL     1       1.378   9.765  18.673  0.00  0.00    +0.000 A 
ATOM     11  C   UNL     1       1.984   8.870  17.786  0.00  0.00    +0.000 A 
ATOM     12  C   UNL     1       2.456   7.642  18.287  0.00  0.00    +0.000 A 
ATOM     13  N   UNL     1       3.218   6.628  17.692  0.00  0.00    +0.000 N 
ATOM     14  C   UNL     1       2.259   4.936  20.831  0.00  0.00    +0.000 C 
ENDROOT
BRANCH  13  15
ATOM     15  C   UNL     1       3.952   6.663  16.497  0.00  0.00    +0.000 C 
ATOM     16  C   UNL     1       5.279   6.600  16.275  0.00  0.00    +0.000 C 
BRANCH  16  17
ATOM     17  C   UNL     1       6.401   6.302  17.179  0.00  0.00    +0.000 A 
ATOM     18  C   UNL     1       6.713   4.970  17.478  0.00  0.00    +0.000 A 
ATOM     19  C   UNL     1       7.706   4.675  18.412  0.00  0.00    +0.000 A 
ATOM     20  C   UNL     1       8.363   5.724  19.028  0.00  0.00    +0.000 A 
ATOM     21  N   UNL     1       8.089   7.020  18.787  0.00  0.00    +0.000 NA
ATOM     22  C   UNL     1       7.114   7.276  17.878  0.00  0.00    +0.000 A 
ENDBRANCH  16  17
ENDBRANCH  13  15
TORSDOF 2
ENDMDL
MODEL 9
REMARK VINA RESULT:      -6.7      3.544      8.105
REMARK  Name = 
REMARK  3 active torsions:
REMARK  status: ('A' for Active; 'I' for Inactive)
REMARK    1  A    between atoms: C_1  and  N_2
REMARK    2  A    between atoms: N_13  and  C_14
REMARK    3  A    between atoms: C_15  and  C_16
REMARK                            x       y       z     vdW  Elec       q    Type
REMARK                         _______ _______ _______ _____ _____    ______ ____
ROOT
ATOM      1  C   UNL     1       2.862   5.896  18.451  0.00  0.00    +0.000 C 
ATOM      2  N   UNL     1       2.112   7.137  18.606  0.00  0.00    +0.000 NA
ATOM      3  C   UNL     1       2.691   8.234  17.798  0.00  0.00    +0.000 C 
ATOM      4  C   UNL     1       1.773   9.493  17.777  0.00  0.00    +0.000 C 
ATOM      5  C   UNL     1       1.201   9.725  19.140  0.00  0.00    +0.000 A 
ATOM      6  C   UNL     1       1.345   8.820  20.174  0.00  0.00    +0.000 A 
ATOM      7  C   UNL     1       0.706   9.373  21.307  0.00  0.00    +0.000 A 
ATOM      8  C   UNL     1       0.570   8.960  22.646  0.00  0.00    +0.000 A 
ATOM      9  C   UNL     1      -0.285   9.660  23.499  0.00  0.00    +0.000 A 
ATOM     10  C   UNL     1      -1.039  10.724  23.017  0.00  0.00    +0.000 A 
ATOM     11  C   UNL     1      -0.893  11.171  21.701  0.00  0.00    +0.000 A 
ATOM     12  C   UNL     1       0.056  10.536  20.877  0.00  0.00    +0.000 A 
ATOM     13  N   UNL     1       0.524  10.845  19.593  0.00  0.00    +0.000 N 
ATOM     14  C   UNL     1       2.053   7.513  20.039  0.00  0.00    +0.000 C 
ENDROOT
BRANCH  13  15
ATOM     15  C   UNL     1       0.368  12.030  18.860  0.00  0.00    +0.000 C 
ATOM     16  C   UNL     1      -0.651  12.468  18.097  0.00  0.00    +0.000 C 
BRANCH  16  17
ATOM     17  C   UNL     1      -2.014  11.945  17.904  0.00  0.00    +0.000 A 
ATOM     18  C   UNL     1      -2.976  12.141  18.903  0.00  0.00    +0.000 A 
ATOM     19  C   UNL     1      -4.240  11.563  18.781  0.00  0.00    +0.000 A 
ATOM     20  C   UNL     1      -4.510  10.800  17.661  0.00  0.00    +0.000 A 
ATOM     21  N   UNL     1      -3.614  10.569  16.682  0.00  0.00    +0.000 NA
ATOM     22  C   UNL     1      -2.391  11.138  16.831  0.00  0.00    +0.000 A 
ENDBRANCH  16  17
ENDBRANCH  13  15
TORSDOF 2
ENDMDL
