MODEL 1
REMARK VINA RESULT:      -8.4      0.000      0.000
REMARK  Name = 
REMARK  13 active torsions:
REMARK  status: ('A' for Active; 'I' for Inactive)
REMARK    1  A    between atoms: C_1  and  O_2
REMARK    2  A    between atoms: O_2  and  C_3
REMARK    3  A    between atoms: C_8  and  C_9
REMARK    4  A    between atoms: C_10  and  C_11
REMARK    5  A    between atoms: N_13  and  C_14
REMARK    6  A    between atoms: C_14  and  C_15
REMARK    7  A    between atoms: C_15  and  C_16
REMARK    8  A    between atoms: C_16  and  N_17
REMARK    9  A    between atoms: C_18  and  O_20
REMARK   10  A    between atoms: O_20  and  C_21
REMARK   11  A    between atoms: C_21  and  C_22
REMARK   12  A    between atoms: C_21  and  C_23
REMARK   13  A    between atoms: C_21  and  C_24
REMARK                            x       y       z     vdW  Elec       q    Type
REMARK                         _______ _______ _______ _____ _____    ______ ____
ROOT
ATOM      1  C   UNL     1       5.125   5.343  18.511  0.00  0.00    +0.000 A 
ATOM      2  C   UNL     1       6.022   6.257  19.014  0.00  0.00    +0.000 A 
ATOM      3  N   UNL     1       7.006   6.437  18.078  0.00  0.00    +0.000 N 
ATOM      4  C   UNL     1       6.725   5.696  16.956  0.00  0.00    +0.000 A 
ATOM      5  N   UNL     1       7.477   5.661  15.837  0.00  0.00    +0.000 NA
ATOM      6  C   UNL     1       6.967   4.864  14.874  0.00  0.00    +0.000 A 
ATOM      7  C   UNL     1       5.800   4.120  14.971  0.00  0.00    +0.000 A 
ATOM      8  C   UNL     1       5.064   4.167  16.158  0.00  0.00    +0.000 A 
ATOM      9  C   UNL     1       5.541   4.996  17.193  0.00  0.00    +0.000 A 
ENDROOT
BRANCH   1  11
ATOM     10  C   UNL     1       2.840   5.514  19.472  0.00  0.00    +0.000 C 
ATOM     11  C   UNL     1       4.009   4.893  19.252  0.00  0.00    +0.000 C 
ATOM     12  C   UNL     1       3.907   3.530  19.813  0.00  0.00    +0.000 C 
ATOM     13  O   UNL     1       4.749   2.654  19.762  0.00  0.00    +0.000 OA
ATOM     14  N   UNL     1       2.684   3.430  20.377  0.00  0.00    +0.000 N 
ATOM     15  C   UNL     1       1.981   4.572  20.217  0.00  0.00    +0.000 C 
ATOM     16  O   UNL     1       0.857   4.789  20.630  0.00  0.00    +0.000 OA
ATOM     17  H   UNL     1       2.336   2.602  20.829  0.00  0.00    +0.000 HD
BRANCH  10  23
ATOM     18  C   UNL     1       1.885   7.798  19.918  0.00  0.00    +0.000 A 
ATOM     19  C   UNL     1       1.528   9.064  19.436  0.00  0.00    +0.000 A 
ATOM     20  C   UNL     1       1.675   9.376  18.083  0.00  0.00    +0.000 A 
ATOM     21  C   UNL     1       2.200   8.433  17.206  0.00  0.00    +0.000 A 
ATOM     22  C   UNL     1       2.592   7.182  17.679  0.00  0.00    +0.000 A 
ATOM     23  C   UNL     1       2.447   6.854  19.037  0.00  0.00    +0.000 A 
BRANCH  18  25
ATOM     24  C   UNL     1       1.127   8.397  22.079  0.00  0.00    +0.000 C 
ATOM     25  O   UNL     1       1.747   7.429  21.235  0.00  0.00    +0.000 OA
ENDBRANCH  18  25
ENDBRANCH  10  23
ENDBRANCH   1  11
BRANCH   3  26
ATOM     26  C   UNL     1       8.173   7.275  18.276  0.00  0.00    +0.000 C 
BRANCH  26  27
ATOM     27  C   UNL     1       7.942   8.731  17.865  0.00  0.00    +0.000 C 
BRANCH  27  28
ATOM     28  C   UNL     1       8.844   9.704  18.624  0.00  0.00    +0.000 C 
BRANCH  28  29
ATOM     29  N   UNL     1       8.789  11.035  18.055  0.00  0.00    +0.000 N 
ATOM     30  C   UNL     1       9.917  11.788  17.946  0.00  0.00    +0.000 C 
ATOM     31  O   UNL     1      11.029  11.384  18.260  0.00  0.00    +0.000 OA
ATOM     32  H   UNL     1       7.911  11.458  17.786  0.00  0.00    +0.000 HD
BRANCH  30  33
ATOM     33  O   UNL     1       9.630  13.023  17.455  0.00  0.00    +0.000 OA
BRANCH  33  34
ATOM     34  C   UNL     1       9.845  14.173  18.317  0.00  0.00    +0.000 C 
ATOM     35  C   UNL     1       8.811  15.276  18.042  0.00  0.00    +0.000 C 
ATOM     36  C   UNL     1       9.644  13.691  19.763  0.00  0.00    +0.000 C 
ATOM     37  C   UNL     1      11.289  14.684  18.192  0.00  0.00    +0.000 C 
ENDBRANCH  33  34
ENDBRANCH  30  33
ENDBRANCH  28  29
ENDBRANCH  27  28
ENDBRANCH  26  27
ENDBRANCH   3  26
TORSDOF 9
ENDMDL
MODEL 2
REMARK VINA RESULT:      -8.3      1.472      1.908
REMARK  Name = 
REMARK  13 active torsions:
REMARK  status: ('A' for Active; 'I' for Inactive)
REMARK    1  A    between atoms: C_1  and  O_2
REMARK    2  A    between atoms: O_2  and  C_3
REMARK    3  A    between atoms: C_8  and  C_9
REMARK    4  A    between atoms: C_10  and  C_11
REMARK    5  A    between atoms: N_13  and  C_14
REMARK    6  A    between atoms: C_14  and  C_15
REMARK    7  A    between atoms: C_15  and  C_16
REMARK    8  A    between atoms: C_16  and  N_17
REMARK    9  A    between atoms: C_18  and  O_20
REMARK   10  A    between atoms: O_20  and  C_21
REMARK   11  A    between atoms: C_21  and  C_22
REMARK   12  A    between atoms: C_21  and  C_23
REMARK   13  A    between atoms: C_21  and  C_24
REMARK                            x       y       z     vdW  Elec       q    Type
REMARK                         _______ _______ _______ _____ _____    ______ ____
ROOT
ATOM      1  C   UNL     1       4.826   4.280  17.583  0.00  0.00    +0.000 A 
ATOM      2  C   UNL     1       5.595   5.028  18.444  0.00  0.00    +0.000 A 
ATOM      3  N   UNL     1       6.691   5.469  17.751  0.00  0.00    +0.000 N 
ATOM      4  C   UNL     1       6.609   5.065  16.441  0.00  0.00    +0.000 A 
ATOM      5  N   UNL     1       7.513   5.347  15.480  0.00  0.00    +0.000 NA
ATOM      6  C   UNL     1       7.185   4.843  14.271  0.00  0.00    +0.000 A 
ATOM      7  C   UNL     1       6.055   4.089  13.986  0.00  0.00    +0.000 A 
ATOM      8  C   UNL     1       5.158   3.800  15.017  0.00  0.00    +0.000 A 
ATOM      9  C   UNL     1       5.440   4.315  16.298  0.00  0.00    +0.000 A 
ENDROOT
BRANCH   1  11
ATOM     10  C   UNL     1       2.529   4.168  18.526  0.00  0.00    +0.000 C 
ATOM     11  C   UNL     1       3.640   3.632  17.997  0.00  0.00    +0.000 C 
ATOM     12  C   UNL     1       3.382   2.196  17.769  0.00  0.00    +0.000 C 
ATOM     13  O   UNL     1       4.135   1.390  17.258  0.00  0.00    +0.000 OA
ATOM     14  N   UNL     1       2.132   1.947  18.217  0.00  0.00    +0.000 N 
ATOM     15  C   UNL     1       1.551   3.074  18.684  0.00  0.00    +0.000 C 
ATOM     16  O   UNL     1       0.437   3.163  19.167  0.00  0.00    +0.000 OA
ATOM     17  H   UNL     1       1.685   1.047  18.177  0.00  0.00    +0.000 HD
BRANCH  10  23
ATOM     18  C   UNL     1       1.825   5.979  20.123  0.00  0.00    +0.000 A 
ATOM     19  C   UNL     1       1.611   7.341  20.375  0.00  0.00    +0.000 A 
ATOM     20  C   UNL     1       1.803   8.287  19.367  0.00  0.00    +0.000 A 
ATOM     21  C   UNL     1       2.231   7.884  18.107  0.00  0.00    +0.000 A 
ATOM     22  C   UNL     1       2.480   6.536  17.854  0.00  0.00    +0.000 A 
ATOM     23  C   UNL     1       2.288   5.573  18.857  0.00  0.00    +0.000 A 
BRANCH  18  25
ATOM     24  C   UNL     1       2.824   4.382  21.557  0.00  0.00    +0.000 C 
ATOM     25  O   UNL     1       1.635   5.002  21.071  0.00  0.00    +0.000 OA
ENDBRANCH  18  25
ENDBRANCH  10  23
ENDBRANCH   1  11
BRANCH   3  26
ATOM     26  C   UNL     1       7.774   6.232  18.341  0.00  0.00    +0.000 C 
BRANCH  26  27
ATOM     27  C   UNL     1       7.791   7.695  17.894  0.00  0.00    +0.000 C 
BRANCH  27  28
ATOM     28  C   UNL     1       8.631   8.579  18.817  0.00  0.00    +0.000 C 
BRANCH  28  29
ATOM     29  N   UNL     1       8.945   9.849  18.194  0.00  0.00    +0.000 N 
ATOM     30  C   UNL     1       9.292  10.924  18.954  0.00  0.00    +0.000 C 
ATOM     31  O   UNL     1       9.412  10.878  20.171  0.00  0.00    +0.000 OA
ATOM     32  H   UNL     1       8.854   9.985  17.197  0.00  0.00    +0.000 HD
BRANCH  30  33
ATOM     33  O   UNL     1       9.474  12.026  18.178  0.00  0.00    +0.000 OA
BRANCH  33  34
ATOM     34  C   UNL     1      10.754  12.711  18.244  0.00  0.00    +0.000 C 
ATOM     35  C   UNL     1      10.822  13.648  19.458  0.00  0.00    +0.000 C 
ATOM     36  C   UNL     1      11.831  11.627  18.425  0.00  0.00    +0.000 C 
ATOM     37  C   UNL     1      11.048  13.443  16.925  0.00  0.00    +0.000 C 
ENDBRANCH  33  34
ENDBRANCH  30  33
ENDBRANCH  28  29
ENDBRANCH  27  28
ENDBRANCH  26  27
ENDBRANCH   3  26
TORSDOF 9
ENDMDL
MODEL 3
REMARK VINA RESULT:      -8.3      1.099      1.885
REMARK  Name = 
REMARK  13 active torsions:
REMARK  status: ('A' for Active; 'I' for Inactive)
REMARK    1  A    between atoms: C_1  and  O_2
REMARK    2  A    between atoms: O_2  and  C_3
REMARK    3  A    between atoms: C_8  and  C_9
REMARK    4  A    between atoms: C_10  and  C_11
REMARK    5  A    between atoms: N_13  and  C_14
REMARK    6  A    between atoms: C_14  and  C_15
REMARK    7  A    between atoms: C_15  and  C_16
REMARK    8  A    between atoms: C_16  and  N_17
REMARK    9  A    between atoms: C_18  and  O_20
REMARK   10  A    between atoms: O_20  and  C_21
REMARK   11  A    between atoms: C_21  and  C_22
REMARK   12  A    between atoms: C_21  and  C_23
REMARK   13  A    between atoms: C_21  and  C_24
REMARK                            x       y       z     vdW  Elec       q    Type
REMARK                         _______ _______ _______ _____ _____    ______ ____
ROOT
ATOM      1  C   UNL     1       5.293   4.726  18.879  0.00  0.00    +0.000 A 
ATOM      2  C   UNL     1       6.165   5.658  19.391  0.00  0.00    +0.000 A 
ATOM      3  N   UNL     1       7.065   5.975  18.408  0.00  0.00    +0.000 N 
ATOM      4  C   UNL     1       6.750   5.303  17.252  0.00  0.00    +0.000 A 
ATOM      5  N   UNL     1       7.420   5.402  16.086  0.00  0.00    +0.000 NA
ATOM      6  C   UNL     1       6.893   4.647  15.099  0.00  0.00    +0.000 A 
ATOM      7  C   UNL     1       5.785   3.820  15.215  0.00  0.00    +0.000 A 
ATOM      8  C   UNL     1       5.135   3.727  16.449  0.00  0.00    +0.000 A 
ATOM      9  C   UNL     1       5.632   4.508  17.512  0.00  0.00    +0.000 A 
ENDROOT
BRANCH   1  11
ATOM     10  C   UNL     1       3.054   4.644  19.954  0.00  0.00    +0.000 C 
ATOM     11  C   UNL     1       4.264   4.146  19.655  0.00  0.00    +0.000 C 
ATOM     12  C   UNL     1       4.320   2.763  20.170  0.00  0.00    +0.000 C 
ATOM     13  O   UNL     1       5.238   1.975  20.046  0.00  0.00    +0.000 OA
ATOM     14  N   UNL     1       3.143   2.527  20.788  0.00  0.00    +0.000 N 
ATOM     15  C   UNL     1       2.327   3.601  20.704  0.00  0.00    +0.000 C 
ATOM     16  O   UNL     1       1.211   3.695  21.179  0.00  0.00    +0.000 OA
ATOM     17  H   UNL     1       2.898   1.655  21.225  0.00  0.00    +0.000 HD
BRANCH  10  23
ATOM     18  C   UNL     1       2.187   6.290  18.260  0.00  0.00    +0.000 A 
ATOM     19  C   UNL     1       1.677   7.564  17.977  0.00  0.00    +0.000 A 
ATOM     20  C   UNL     1       1.541   8.515  18.989  0.00  0.00    +0.000 A 
ATOM     21  C   UNL     1       1.893   8.195  20.296  0.00  0.00    +0.000 A 
ATOM     22  C   UNL     1       2.370   6.919  20.597  0.00  0.00    +0.000 A 
ATOM     23  C   UNL     1       2.514   5.954  19.588  0.00  0.00    +0.000 A 
BRANCH  18  25
ATOM     24  C   UNL     1       1.391   4.272  17.311  0.00  0.00    +0.000 C 
ATOM     25  O   UNL     1       2.359   5.320  17.302  0.00  0.00    +0.000 OA
ENDBRANCH  18  25
ENDBRANCH  10  23
ENDBRANCH   1  11
BRANCH   3  26
ATOM     26  C   UNL     1       8.188   6.874  18.593  0.00  0.00    +0.000 C 
BRANCH  26  27
ATOM     27  C   UNL     1       7.983   8.235  17.924  0.00  0.00    +0.000 C 
BRANCH  27  28
ATOM     28  C   UNL     1       8.748   9.354  18.629  0.00  0.00    +0.000 C 
BRANCH  28  29
ATOM     29  N   UNL     1       8.439  10.650  18.059  0.00  0.00    +0.000 N 
ATOM     30  C   UNL     1       9.404  11.603  17.945  0.00  0.00    +0.000 C 
ATOM     31  O   UNL     1      10.573  11.418  18.254  0.00  0.00    +0.000 OA
ATOM     32  H   UNL     1       7.496  10.899  17.794  0.00  0.00    +0.000 HD
BRANCH  30  33
ATOM     33  O   UNL     1       8.885  12.760  17.455  0.00  0.00    +0.000 OA
BRANCH  33  34
ATOM     34  C   UNL     1       8.932  13.946  18.294  0.00  0.00    +0.000 C 
ATOM     35  C   UNL     1      10.196  14.773  18.020  0.00  0.00    +0.000 C 
ATOM     36  C   UNL     1       7.714  14.807  17.917  0.00  0.00    +0.000 C 
ATOM     37  C   UNL     1       8.793  13.567  19.778  0.00  0.00    +0.000 C 
ENDBRANCH  33  34
ENDBRANCH  30  33
ENDBRANCH  28  29
ENDBRANCH  27  28
ENDBRANCH  26  27
ENDBRANCH   3  26
TORSDOF 9
ENDMDL
MODEL 4
REMARK VINA RESULT:      -8.1      1.307      2.021
REMARK  Name = 
REMARK  13 active torsions:
REMARK  status: ('A' for Active; 'I' for Inactive)
REMARK    1  A    between atoms: C_1  and  O_2
REMARK    2  A    between atoms: O_2  and  C_3
REMARK    3  A    between atoms: C_8  and  C_9
REMARK    4  A    between atoms: C_10  and  C_11
REMARK    5  A    between atoms: N_13  and  C_14
REMARK    6  A    between atoms: C_14  and  C_15
REMARK    7  A    between atoms: C_15  and  C_16
REMARK    8  A    between atoms: C_16  and  N_17
REMARK    9  A    between atoms: C_18  and  O_20
REMARK   10  A    between atoms: O_20  and  C_21
REMARK   11  A    between atoms: C_21  and  C_22
REMARK   12  A    between atoms: C_21  and  C_23
REMARK   13  A    between atoms: C_21  and  C_24
REMARK                            x       y       z     vdW  Elec       q    Type
REMARK                         _______ _______ _______ _____ _____    ______ ____
ROOT
ATOM      1  C   UNL     1       5.277   4.686  18.921  0.00  0.00    +0.000 A 
ATOM      2  C   UNL     1       6.154   5.609  19.441  0.00  0.00    +0.000 A 
ATOM      3  N   UNL     1       7.061   5.923  18.464  0.00  0.00    +0.000 N 
ATOM      4  C   UNL     1       6.746   5.259  17.303  0.00  0.00    +0.000 A 
ATOM      5  N   UNL     1       7.421   5.359  16.140  0.00  0.00    +0.000 NA
ATOM      6  C   UNL     1       6.892   4.613  15.147  0.00  0.00    +0.000 A 
ATOM      7  C   UNL     1       5.777   3.794  15.255  0.00  0.00    +0.000 A 
ATOM      8  C   UNL     1       5.122   3.701  16.485  0.00  0.00    +0.000 A 
ATOM      9  C   UNL     1       5.621   4.472  17.554  0.00  0.00    +0.000 A 
ENDROOT
BRANCH   1  11
ATOM     10  C   UNL     1       3.034   4.618  19.989  0.00  0.00    +0.000 C 
ATOM     11  C   UNL     1       4.240   4.111  19.690  0.00  0.00    +0.000 C 
ATOM     12  C   UNL     1       4.282   2.723  20.194  0.00  0.00    +0.000 C 
ATOM     13  O   UNL     1       5.192   1.927  20.067  0.00  0.00    +0.000 OA
ATOM     14  N   UNL     1       3.100   2.494  20.807  0.00  0.00    +0.000 N 
ATOM     15  C   UNL     1       2.295   3.576  20.729  0.00  0.00    +0.000 C 
ATOM     16  O   UNL     1       1.178   3.678  21.201  0.00  0.00    +0.000 OA
ATOM     17  H   UNL     1       2.846   1.621  21.237  0.00  0.00    +0.000 HD
BRANCH  10  23
ATOM     18  C   UNL     1       2.189   6.284  18.304  0.00  0.00    +0.000 A 
ATOM     19  C   UNL     1       1.693   7.566  18.029  0.00  0.00    +0.000 A 
ATOM     20  C   UNL     1       1.562   8.510  19.049  0.00  0.00    +0.000 A 
ATOM     21  C   UNL     1       1.906   8.177  20.354  0.00  0.00    +0.000 A 
ATOM     22  C   UNL     1       2.369   6.894  20.647  0.00  0.00    +0.000 A 
ATOM     23  C   UNL     1       2.508   5.935  19.631  0.00  0.00    +0.000 A 
BRANCH  18  25
ATOM     24  C   UNL     1       1.455   4.217  17.415  0.00  0.00    +0.000 C 
ATOM     25  O   UNL     1       2.356   5.320  17.339  0.00  0.00    +0.000 OA
ENDBRANCH  18  25
ENDBRANCH  10  23
ENDBRANCH   1  11
BRANCH   3  26
ATOM     26  C   UNL     1       8.190   6.812  18.657  0.00  0.00    +0.000 C 
BRANCH  26  27
ATOM     27  C   UNL     1       8.106   8.082  17.808  0.00  0.00    +0.000 C 
BRANCH  27  28
ATOM     28  C   UNL     1       8.388   9.347  18.618  0.00  0.00    +0.000 C 
BRANCH  28  29
ATOM     29  N   UNL     1       9.252  10.259  17.896  0.00  0.00    +0.000 N 
ATOM     30  C   UNL     1       9.452  11.527  18.348  0.00  0.00    +0.000 C 
ATOM     31  O   UNL     1       8.974  11.952  19.392  0.00  0.00    +0.000 OA
ATOM     32  H   UNL     1       9.673  10.000  17.015  0.00  0.00    +0.000 HD
BRANCH  30  33
ATOM     33  O   UNL     1      10.234  12.231  17.487  0.00  0.00    +0.000 OA
BRANCH  33  34
ATOM     34  C   UNL     1      11.386  12.937  18.023  0.00  0.00    +0.000 C 
ATOM     35  C   UNL     1      12.317  13.416  16.899  0.00  0.00    +0.000 C 
ATOM     36  C   UNL     1      10.848  14.180  18.751  0.00  0.00    +0.000 C 
ATOM     37  C   UNL     1      12.121  12.071  19.059  0.00  0.00    +0.000 C 
ENDBRANCH  33  34
ENDBRANCH  30  33
ENDBRANCH  28  29
ENDBRANCH  27  28
ENDBRANCH  26  27
ENDBRANCH   3  26
TORSDOF 9
ENDMDL
MODEL 5
REMARK VINA RESULT:      -8.1      0.797      1.083
REMARK  Name = 
REMARK  13 active torsions:
REMARK  status: ('A' for Active; 'I' for Inactive)
REMARK    1  A    between atoms: C_1  and  O_2
REMARK    2  A    between atoms: O_2  and  C_3
REMARK    3  A    between atoms: C_8  and  C_9
REMARK    4  A    between atoms: C_10  and  C_11
REMARK    5  A    between atoms: N_13  and  C_14
REMARK    6  A    between atoms: C_14  and  C_15
REMARK    7  A    between atoms: C_15  and  C_16
REMARK    8  A    between atoms: C_16  and  N_17
REMARK    9  A    between atoms: C_18  and  O_20
REMARK   10  A    between atoms: O_20  and  C_21
REMARK   11  A    between atoms: C_21  and  C_22
REMARK   12  A    between atoms: C_21  and  C_23
REMARK   13  A    between atoms: C_21  and  C_24
REMARK                            x       y       z     vdW  Elec       q    Type
REMARK                         _______ _______ _______ _____ _____    ______ ____
ROOT
ATOM      1  C   UNL     1       5.104   5.342  18.455  0.00  0.00    +0.000 A 
ATOM      2  C   UNL     1       5.985   6.282  18.937  0.00  0.00    +0.000 A 
ATOM      3  N   UNL     1       6.966   6.459  17.998  0.00  0.00    +0.000 N 
ATOM      4  C   UNL     1       6.698   5.689  16.892  0.00  0.00    +0.000 A 
ATOM      5  N   UNL     1       7.451   5.642  15.774  0.00  0.00    +0.000 NA
ATOM      6  C   UNL     1       6.955   4.815  14.829  0.00  0.00    +0.000 A 
ATOM      7  C   UNL     1       5.801   4.053  14.942  0.00  0.00    +0.000 A 
ATOM      8  C   UNL     1       5.064   4.113  16.128  0.00  0.00    +0.000 A 
ATOM      9  C   UNL     1       5.526   4.973  17.145  0.00  0.00    +0.000 A 
ENDROOT
BRANCH   1  11
ATOM     10  C   UNL     1       2.830   5.510  19.443  0.00  0.00    +0.000 C 
ATOM     11  C   UNL     1       3.996   4.889  19.205  0.00  0.00    +0.000 C 
ATOM     12  C   UNL     1       3.898   3.523  19.760  0.00  0.00    +0.000 C 
ATOM     13  O   UNL     1       4.738   2.646  19.694  0.00  0.00    +0.000 OA
ATOM     14  N   UNL     1       2.682   3.421  20.337  0.00  0.00    +0.000 N 
ATOM     15  C   UNL     1       1.978   4.566  20.192  0.00  0.00    +0.000 C 
ATOM     16  O   UNL     1       0.860   4.782  20.619  0.00  0.00    +0.000 OA
ATOM     17  H   UNL     1       2.337   2.591  20.788  0.00  0.00    +0.000 HD
BRANCH  10  23
ATOM     18  C   UNL     1       1.883   7.792  19.913  0.00  0.00    +0.000 A 
ATOM     19  C   UNL     1       1.522   9.062  19.443  0.00  0.00    +0.000 A 
ATOM     20  C   UNL     1       1.655   9.382  18.091  0.00  0.00    +0.000 A 
ATOM     21  C   UNL     1       2.170   8.445  17.202  0.00  0.00    +0.000 A 
ATOM     22  C   UNL     1       2.566   7.190  17.664  0.00  0.00    +0.000 A 
ATOM     23  C   UNL     1       2.434   6.854  19.020  0.00  0.00    +0.000 A 
BRANCH  18  25
ATOM     24  C   UNL     1       1.149   8.379  22.086  0.00  0.00    +0.000 C 
ATOM     25  O   UNL     1       1.757   7.415  21.229  0.00  0.00    +0.000 OA
ENDBRANCH  18  25
ENDBRANCH  10  23
ENDBRANCH   1  11
BRANCH   3  26
ATOM     26  C   UNL     1       8.118   7.322  18.176  0.00  0.00    +0.000 C 
BRANCH  26  27
ATOM     27  C   UNL     1       7.819   8.791  17.872  0.00  0.00    +0.000 C 
BRANCH  27  28
ATOM     28  C   UNL     1       9.057   9.679  18.002  0.00  0.00    +0.000 C 
BRANCH  28  29
ATOM     29  N   UNL     1       8.833  10.771  18.927  0.00  0.00    +0.000 N 
ATOM     30  C   UNL     1       9.252  12.030  18.625  0.00  0.00    +0.000 C 
ATOM     31  O   UNL     1       9.779  12.327  17.561  0.00  0.00    +0.000 OA
ATOM     32  H   UNL     1       8.423  10.615  19.837  0.00  0.00    +0.000 HD
BRANCH  30  33
ATOM     33  O   UNL     1       9.008  12.882  19.656  0.00  0.00    +0.000 OA
BRANCH  33  34
ATOM     34  C   UNL     1      10.124  13.282  20.497  0.00  0.00    +0.000 C 
ATOM     35  C   UNL     1      10.749  14.596  20.004  0.00  0.00    +0.000 C 
ATOM     36  C   UNL     1       9.555  13.530  21.904  0.00  0.00    +0.000 C 
ATOM     37  C   UNL     1      11.157  12.149  20.605  0.00  0.00    +0.000 C 
ENDBRANCH  33  34
ENDBRANCH  30  33
ENDBRANCH  28  29
ENDBRANCH  27  28
ENDBRANCH  26  27
ENDBRANCH   3  26
TORSDOF 9
ENDMDL
MODEL 6
REMARK VINA RESULT:      -8.1      5.210      9.713
REMARK  Name = 
REMARK  13 active torsions:
REMARK  status: ('A' for Active; 'I' for Inactive)
REMARK    1  A    between atoms: C_1  and  O_2
REMARK    2  A    between atoms: O_2  and  C_3
REMARK    3  A    between atoms: C_8  and  C_9
REMARK    4  A    between atoms: C_10  and  C_11
REMARK    5  A    between atoms: N_13  and  C_14
REMARK    6  A    between atoms: C_14  and  C_15
REMARK    7  A    between atoms: C_15  and  C_16
REMARK    8  A    between atoms: C_16  and  N_17
REMARK    9  A    between atoms: C_18  and  O_20
REMARK   10  A    between atoms: O_20  and  C_21
REMARK   11  A    between atoms: C_21  and  C_22
REMARK   12  A    between atoms: C_21  and  C_23
REMARK   13  A    between atoms: C_21  and  C_24
REMARK                            x       y       z     vdW  Elec       q    Type
REMARK                         _______ _______ _______ _____ _____    ______ ____
ROOT
ATOM      1  C   UNL     1      -1.236  11.107  19.757  0.00  0.00    +0.000 A 
ATOM      2  C   UNL     1      -0.418  10.967  18.661  0.00  0.00    +0.000 A 
ATOM      3  N   UNL     1       0.716  10.313  19.066  0.00  0.00    +0.000 N 
ATOM      4  C   UNL     1       0.614   9.979  20.394  0.00  0.00    +0.000 A 
ATOM      5  N   UNL     1       1.546   9.310  21.104  0.00  0.00    +0.000 NA
ATOM      6  C   UNL     1       1.190   9.096  22.388  0.00  0.00    +0.000 A 
ATOM      7  C   UNL     1       0.006   9.511  22.981  0.00  0.00    +0.000 A 
ATOM      8  C   UNL     1      -0.921  10.223  22.216  0.00  0.00    +0.000 A 
ATOM      9  C   UNL     1      -0.610  10.462  20.862  0.00  0.00    +0.000 A 
ENDROOT
BRANCH   1  11
ATOM     10  C   UNL     1      -2.904  12.820  20.437  0.00  0.00    +0.000 C 
ATOM     11  C   UNL     1      -2.473  11.788  19.695  0.00  0.00    +0.000 C 
ATOM     12  C   UNL     1      -3.483  11.536  18.647  0.00  0.00    +0.000 C 
ATOM     13  O   UNL     1      -3.420  10.713  17.754  0.00  0.00    +0.000 OA
ATOM     14  N   UNL     1      -4.487  12.416  18.851  0.00  0.00    +0.000 N 
ATOM     15  C   UNL     1      -4.220  13.221  19.903  0.00  0.00    +0.000 C 
ATOM     16  O   UNL     1      -4.942  14.098  20.339  0.00  0.00    +0.000 OA
ATOM     17  H   UNL     1      -5.310  12.479  18.276  0.00  0.00    +0.000 HD
BRANCH  10  23
ATOM     18  C   UNL     1      -2.566  13.251  22.892  0.00  0.00    +0.000 A 
ATOM     19  C   UNL     1      -1.861  13.908  23.909  0.00  0.00    +0.000 A 
ATOM     20  C   UNL     1      -0.845  14.814  23.597  0.00  0.00    +0.000 A 
ATOM     21  C   UNL     1      -0.512  15.054  22.269  0.00  0.00    +0.000 A 
ATOM     22  C   UNL     1      -1.183  14.381  21.249  0.00  0.00    +0.000 A 
ATOM     23  C   UNL     1      -2.208  13.470  21.548  0.00  0.00    +0.000 A 
BRANCH  18  25
ATOM     24  C   UNL     1      -4.685  12.885  23.884  0.00  0.00    +0.000 C 
ATOM     25  O   UNL     1      -3.586  12.363  23.139  0.00  0.00    +0.000 OA
ENDBRANCH  18  25
ENDBRANCH  10  23
ENDBRANCH   1  11
BRANCH   3  26
ATOM     26  C   UNL     1       1.851  10.044  18.204  0.00  0.00    +0.000 C 
BRANCH  26  27
ATOM     27  C   UNL     1       1.819   8.643  17.590  0.00  0.00    +0.000 C 
BRANCH  27  28
ATOM     28  C   UNL     1       2.955   7.755  18.099  0.00  0.00    +0.000 C 
BRANCH  28  29
ATOM     29  N   UNL     1       2.492   6.826  19.109  0.00  0.00    +0.000 N 
ATOM     30  C   UNL     1       3.299   5.820  19.546  0.00  0.00    +0.000 C 
ATOM     31  O   UNL     1       4.453   5.671  19.167  0.00  0.00    +0.000 OA
ATOM     32  H   UNL     1       1.547   6.861  19.465  0.00  0.00    +0.000 HD
BRANCH  30  33
ATOM     33  O   UNL     1       2.645   5.027  20.436  0.00  0.00    +0.000 OA
BRANCH  33  34
ATOM     34  C   UNL     1       2.232   3.702  20.004  0.00  0.00    +0.000 C 
ATOM     35  C   UNL     1       1.699   3.727  18.564  0.00  0.00    +0.000 C 
ATOM     36  C   UNL     1       3.488   2.815  20.026  0.00  0.00    +0.000 C 
ATOM     37  C   UNL     1       1.219   3.100  20.990  0.00  0.00    +0.000 C 
ENDBRANCH  33  34
ENDBRANCH  30  33
ENDBRANCH  28  29
ENDBRANCH  27  28
ENDBRANCH  26  27
ENDBRANCH   3  26
TORSDOF 9
ENDMDL
MODEL 7
REMARK VINA RESULT:      -8.0      4.665      9.610
REMARK  Name = 
REMARK  13 active torsions:
REMARK  status: ('A' for Active; 'I' for Inactive)
REMARK    1  A    between atoms: C_1  and  O_2
REMARK    2  A    between atoms: O_2  and  C_3
REMARK    3  A    between atoms: C_8  and  C_9
REMARK    4  A    between atoms: C_10  and  C_11
REMARK    5  A    between atoms: N_13  and  C_14
REMARK    6  A    between atoms: C_14  and  C_15
REMARK    7  A    between atoms: C_15  and  C_16
REMARK    8  A    between atoms: C_16  and  N_17
REMARK    9  A    between atoms: C_18  and  O_20
REMARK   10  A    between atoms: O_20  and  C_21
REMARK   11  A    between atoms: C_21  and  C_22
REMARK   12  A    between atoms: C_21  and  C_23
REMARK   13  A    between atoms: C_21  and  C_24
REMARK                            x       y       z     vdW  Elec       q    Type
REMARK                         _______ _______ _______ _____ _____    ______ ____
ROOT
ATOM      1  C   UNL     1       0.439  11.941  19.405  0.00  0.00    +0.000 A 
ATOM      2  C   UNL     1       1.275  10.935  18.982  0.00  0.00    +0.000 A 
ATOM      3  N   UNL     1       0.519  10.020  18.298  0.00  0.00    +0.000 N 
ATOM      4  C   UNL     1      -0.783  10.453  18.224  0.00  0.00    +0.000 A 
ATOM      5  N   UNL     1      -1.786   9.801  17.602  0.00  0.00    +0.000 NA
ATOM      6  C   UNL     1      -2.967  10.452  17.664  0.00  0.00    +0.000 A 
ATOM      7  C   UNL     1      -3.193  11.664  18.301  0.00  0.00    +0.000 A 
ATOM      8  C   UNL     1      -2.130  12.292  18.956  0.00  0.00    +0.000 A 
ATOM      9  C   UNL     1      -0.869  11.666  18.909  0.00  0.00    +0.000 A 
ENDROOT
BRANCH   1  11
ATOM     10  C   UNL     1       0.390  13.506  21.335  0.00  0.00    +0.000 C 
ATOM     11  C   UNL     1       0.896  13.025  20.189  0.00  0.00    +0.000 C 
ATOM     12  C   UNL     1       2.155  13.746  19.915  0.00  0.00    +0.000 C 
ATOM     13  O   UNL     1       2.923  13.552  18.993  0.00  0.00    +0.000 OA
ATOM     14  N   UNL     1       2.309  14.653  20.904  0.00  0.00    +0.000 N 
ATOM     15  C   UNL     1       1.297  14.575  21.796  0.00  0.00    +0.000 C 
ATOM     16  O   UNL     1       1.152  15.273  22.782  0.00  0.00    +0.000 OA
ATOM     17  H   UNL     1       3.091  15.281  20.979  0.00  0.00    +0.000 HD
BRANCH  10  23
ATOM     18  C   UNL     1      -0.882  11.798  22.674  0.00  0.00    +0.000 A 
ATOM     19  C   UNL     1      -2.063  11.423  23.328  0.00  0.00    +0.000 A 
ATOM     20  C   UNL     1      -3.181  12.259  23.309  0.00  0.00    +0.000 A 
ATOM     21  C   UNL     1      -3.121  13.485  22.655  0.00  0.00    +0.000 A 
ATOM     22  C   UNL     1      -1.941  13.885  22.030  0.00  0.00    +0.000 A 
ATOM     23  C   UNL     1      -0.810  13.053  22.039  0.00  0.00    +0.000 A 
BRANCH  18  25
ATOM     24  C   UNL     1       0.036   9.636  22.973  0.00  0.00    +0.000 C 
ATOM     25  O   UNL     1       0.243  11.009  22.644  0.00  0.00    +0.000 OA
ENDBRANCH  18  25
ENDBRANCH  10  23
ENDBRANCH   1  11
BRANCH   3  26
ATOM     26  C   UNL     1       1.036   8.777  17.759  0.00  0.00    +0.000 C 
BRANCH  26  27
ATOM     27  C   UNL     1       2.405   8.400  18.328  0.00  0.00    +0.000 C 
BRANCH  27  28
ATOM     28  C   UNL     1       2.303   7.427  19.502  0.00  0.00    +0.000 C 
BRANCH  28  29
ATOM     29  N   UNL     1       2.941   6.162  19.202  0.00  0.00    +0.000 N 
ATOM     30  C   UNL     1       2.656   5.051  19.935  0.00  0.00    +0.000 C 
ATOM     31  O   UNL     1       1.825   5.034  20.834  0.00  0.00    +0.000 OA
ATOM     32  H   UNL     1       3.654   6.086  18.490  0.00  0.00    +0.000 HD
BRANCH  30  33
ATOM     33  O   UNL     1       3.414   3.997  19.533  0.00  0.00    +0.000 OA
BRANCH  33  34
ATOM     34  C   UNL     1       2.995   3.256  18.355  0.00  0.00    +0.000 C 
ATOM     35  C   UNL     1       3.796   3.681  17.116  0.00  0.00    +0.000 C 
ATOM     36  C   UNL     1       3.302   1.774  18.629  0.00  0.00    +0.000 C 
ATOM     37  C   UNL     1       1.478   3.386  18.143  0.00  0.00    +0.000 C 
ENDBRANCH  33  34
ENDBRANCH  30  33
ENDBRANCH  28  29
ENDBRANCH  27  28
ENDBRANCH  26  27
ENDBRANCH   3  26
TORSDOF 9
ENDMDL
MODEL 8
REMARK VINA RESULT:      -8.0      4.690      9.649
REMARK  Name = 
REMARK  13 active torsions:
REMARK  status: ('A' for Active; 'I' for Inactive)
REMARK    1  A    between atoms: C_1  and  O_2
REMARK    2  A    between atoms: O_2  and  C_3
REMARK    3  A    between atoms: C_8  and  C_9
REMARK    4  A    between atoms: C_10  and  C_11
REMARK    5  A    between atoms: N_13  and  C_14
REMARK    6  A    between atoms: C_14  and  C_15
REMARK    7  A    between atoms: C_15  and  C_16
REMARK    8  A    between atoms: C_16  and  N_17
REMARK    9  A    between atoms: C_18  and  O_20
REMARK   10  A    between atoms: O_20  and  C_21
REMARK   11  A    between atoms: C_21  and  C_22
REMARK   12  A    between atoms: C_21  and  C_23
REMARK   13  A    between atoms: C_21  and  C_24
REMARK                            x       y       z     vdW  Elec       q    Type
REMARK                         _______ _______ _______ _____ _____    ______ ____
ROOT
ATOM      1  C   UNL     1       0.700  11.403  19.802  0.00  0.00    +0.000 A 
ATOM      2  C   UNL     1       1.293  10.420  19.044  0.00  0.00    +0.000 A 
ATOM      3  N   UNL     1       1.272   9.260  19.772  0.00  0.00    +0.000 N 
ATOM      4  C   UNL     1       0.622   9.467  20.964  0.00  0.00    +0.000 A 
ATOM      5  N   UNL     1       0.407   8.528  21.908  0.00  0.00    +0.000 NA
ATOM      6  C   UNL     1      -0.271   8.992  22.980  0.00  0.00    +0.000 A 
ATOM      7  C   UNL     1      -0.714  10.295  23.158  0.00  0.00    +0.000 A 
ATOM      8  C   UNL     1      -0.447  11.242  22.165  0.00  0.00    +0.000 A 
ATOM      9  C   UNL     1       0.244  10.810  21.015  0.00  0.00    +0.000 A 
ENDROOT
BRANCH   1  11
ATOM     10  C   UNL     1      -0.489  13.512  19.244  0.00  0.00    +0.000 C 
ATOM     11  C   UNL     1       0.604  12.742  19.363  0.00  0.00    +0.000 C 
ATOM     12  C   UNL     1       1.782  13.588  19.081  0.00  0.00    +0.000 C 
ATOM     13  O   UNL     1       2.951  13.255  19.139  0.00  0.00    +0.000 OA
ATOM     14  N   UNL     1       1.317  14.816  18.768  0.00  0.00    +0.000 N 
ATOM     15  C   UNL     1      -0.032  14.858  18.842  0.00  0.00    +0.000 C 
ATOM     16  O   UNL     1      -0.737  15.819  18.601  0.00  0.00    +0.000 OA
ATOM     17  H   UNL     1       1.902  15.602  18.540  0.00  0.00    +0.000 HD
BRANCH  10  23
ATOM     18  C   UNL     1      -2.591  12.274  18.633  0.00  0.00    +0.000 A 
ATOM     19  C   UNL     1      -3.922  11.951  18.929  0.00  0.00    +0.000 A 
ATOM     20  C   UNL     1      -4.559  12.512  20.038  0.00  0.00    +0.000 A 
ATOM     21  C   UNL     1      -3.866  13.383  20.871  0.00  0.00    +0.000 A 
ATOM     22  C   UNL     1      -2.531  13.686  20.607  0.00  0.00    +0.000 A 
ATOM     23  C   UNL     1      -1.879  13.131  19.494  0.00  0.00    +0.000 A 
BRANCH  18  25
ATOM     24  C   UNL     1      -2.717  11.027  16.625  0.00  0.00    +0.000 C 
ATOM     25  O   UNL     1      -1.919  11.767  17.548  0.00  0.00    +0.000 OA
ENDBRANCH  18  25
ENDBRANCH  10  23
ENDBRANCH   1  11
BRANCH   3  26
ATOM     26  C   UNL     1       1.872   8.014  19.334  0.00  0.00    +0.000 C 
BRANCH  26  27
ATOM     27  C   UNL     1       2.641   8.148  18.018  0.00  0.00    +0.000 C 
BRANCH  27  28
ATOM     28  C   UNL     1       3.478   6.909  17.700  0.00  0.00    +0.000 C 
BRANCH  28  29
ATOM     29  N   UNL     1       3.511   5.989  18.819  0.00  0.00    +0.000 N 
ATOM     30  C   UNL     1       3.371   4.650  18.618  0.00  0.00    +0.000 C 
ATOM     31  O   UNL     1       3.266   4.144  17.508  0.00  0.00    +0.000 OA
ATOM     32  H   UNL     1       3.574   6.319  19.772  0.00  0.00    +0.000 HD
BRANCH  30  33
ATOM     33  O   UNL     1       3.359   3.981  19.801  0.00  0.00    +0.000 OA
BRANCH  33  34
ATOM     34  C   UNL     1       2.134   3.308  20.200  0.00  0.00    +0.000 C 
ATOM     35  C   UNL     1       1.862   2.080  19.317  0.00  0.00    +0.000 C 
ATOM     36  C   UNL     1       2.346   2.814  21.641  0.00  0.00    +0.000 C 
ATOM     37  C   UNL     1       0.953   4.291  20.213  0.00  0.00    +0.000 C 
ENDBRANCH  33  34
ENDBRANCH  30  33
ENDBRANCH  28  29
ENDBRANCH  27  28
ENDBRANCH  26  27
ENDBRANCH   3  26
TORSDOF 9
ENDMDL
MODEL 9
REMARK VINA RESULT:      -7.9      5.799     10.265
REMARK  Name = 
REMARK  13 active torsions:
REMARK  status: ('A' for Active; 'I' for Inactive)
REMARK    1  A    between atoms: C_1  and  O_2
REMARK    2  A    between atoms: O_2  and  C_3
REMARK    3  A    between atoms: C_8  and  C_9
REMARK    4  A    between atoms: C_10  and  C_11
REMARK    5  A    between atoms: N_13  and  C_14
REMARK    6  A    between atoms: C_14  and  C_15
REMARK    7  A    between atoms: C_15  and  C_16
REMARK    8  A    between atoms: C_16  and  N_17
REMARK    9  A    between atoms: C_18  and  O_20
REMARK   10  A    between atoms: O_20  and  C_21
REMARK   11  A    between atoms: C_21  and  C_22
REMARK   12  A    between atoms: C_21  and  C_23
REMARK   13  A    between atoms: C_21  and  C_24
REMARK                            x       y       z     vdW  Elec       q    Type
REMARK                         _______ _______ _______ _____ _____    ______ ____
ROOT
ATOM      1  C   UNL     1      -1.004  12.426  20.378  0.00  0.00    +0.000 A 
ATOM      2  C   UNL     1      -0.672  11.993  19.115  0.00  0.00    +0.000 A 
ATOM      3  N   UNL     1      -0.209  10.708  19.220  0.00  0.00    +0.000 N 
ATOM      4  C   UNL     1      -0.294  10.286  20.525  0.00  0.00    +0.000 A 
ATOM      5  N   UNL     1       0.059   9.064  20.974  0.00  0.00    +0.000 NA
ATOM      6  C   UNL     1      -0.139   8.903  22.299  0.00  0.00    +0.000 A 
ATOM      7  C   UNL     1      -0.637   9.863  23.168  0.00  0.00    +0.000 A 
ATOM      8  C   UNL     1      -0.966  11.125  22.665  0.00  0.00    +0.000 A 
ATOM      9  C   UNL     1      -0.796  11.345  21.284  0.00  0.00    +0.000 A 
ENDROOT
BRANCH   1  11
ATOM     10  C   UNL     1      -2.728  14.159  20.826  0.00  0.00    +0.000 C 
ATOM     11  C   UNL     1      -1.469  13.736  20.630  0.00  0.00    +0.000 C 
ATOM     12  C   UNL     1      -0.568  14.883  20.865  0.00  0.00    +0.000 C 
ATOM     13  O   UNL     1       0.647  14.876  20.831  0.00  0.00    +0.000 OA
ATOM     14  N   UNL     1      -1.353  15.944  21.152  0.00  0.00    +0.000 N 
ATOM     15  C   UNL     1      -2.659  15.597  21.150  0.00  0.00    +0.000 C 
ATOM     16  O   UNL     1      -3.601  16.339  21.356  0.00  0.00    +0.000 OA
ATOM     17  H   UNL     1      -1.005  16.863  21.367  0.00  0.00    +0.000 HD
BRANCH  10  23
ATOM     18  C   UNL     1      -4.710  13.065  21.924  0.00  0.00    +0.000 A 
ATOM     19  C   UNL     1      -5.873  12.293  21.803  0.00  0.00    +0.000 A 
ATOM     20  C   UNL     1      -6.256  11.774  20.566  0.00  0.00    +0.000 A 
ATOM     21  C   UNL     1      -5.492  12.039  19.434  0.00  0.00    +0.000 A 
ATOM     22  C   UNL     1      -4.351  12.835  19.534  0.00  0.00    +0.000 A 
ATOM     23  C   UNL     1      -3.953  13.361  20.773  0.00  0.00    +0.000 A 
BRANCH  18  25
ATOM     24  C   UNL     1      -3.930  12.627  24.116  0.00  0.00    +0.000 C 
ATOM     25  O   UNL     1      -4.275  13.587  23.118  0.00  0.00    +0.000 OA
ENDBRANCH  18  25
ENDBRANCH  10  23
ENDBRANCH   1  11
BRANCH   3  26
ATOM     26  C   UNL     1       0.306   9.935  18.107  0.00  0.00    +0.000 C 
BRANCH  26  27
ATOM     27  C   UNL     1       1.835   9.901  18.056  0.00  0.00    +0.000 C 
BRANCH  27  28
ATOM     28  C   UNL     1       2.377   8.523  17.679  0.00  0.00    +0.000 C 
BRANCH  28  29
ATOM     29  N   UNL     1       2.100   7.542  18.708  0.00  0.00    +0.000 N 
ATOM     30  C   UNL     1       2.934   6.483  18.898  0.00  0.00    +0.000 C 
ATOM     31  O   UNL     1       3.972   6.324  18.269  0.00  0.00    +0.000 OA
ATOM     32  H   UNL     1       1.255   7.583  19.262  0.00  0.00    +0.000 HD
BRANCH  30  33
ATOM     33  O   UNL     1       2.450   5.652  19.859  0.00  0.00    +0.000 OA
BRANCH  33  34
ATOM     34  C   UNL     1       2.121   4.287  19.486  0.00  0.00    +0.000 C 
ATOM     35  C   UNL     1       3.313   3.345  19.712  0.00  0.00    +0.000 C 
ATOM     36  C   UNL     1       0.981   3.834  20.414  0.00  0.00    +0.000 C 
ATOM     37  C   UNL     1       1.596   4.228  18.042  0.00  0.00    +0.000 C 
ENDBRANCH  33  34
ENDBRANCH  30  33
ENDBRANCH  28  29
ENDBRANCH  27  28
ENDBRANCH  26  27
ENDBRANCH   3  26
TORSDOF 9
ENDMDL
