MODEL 1
REMARK VINA RESULT:      -7.6      0.000      0.000
REMARK  Name = 
REMARK  8 active torsions:
REMARK  status: ('A' for Active; 'I' for Inactive)
REMARK    1  A    between atoms: C_1  and  C_2
REMARK    2  A    between atoms: C_5  and  C_6
REMARK    3  A    between atoms: C_8  and  C_9
REMARK    4  A    between atoms: N_14  and  C_15
REMARK    5  A    between atoms: C_18  and  S_19
REMARK    6  A    between atoms: S_19  and  N_20
REMARK    7  A    between atoms: C_23  and  C_24
REMARK    8  A    between atoms: C_24  and  O_25
REMARK                            x       y       z     vdW  Elec       q    Type
REMARK                         _______ _______ _______ _____ _____    ______ ____
ROOT
ATOM      1  C   UNL     1       6.362   5.286  15.741  0.00  0.00    +0.000 A 
ATOM      2  C   UNL     1       6.682   5.109  14.405  0.00  0.00    +0.000 A 
ATOM      3  C   UNL     1       5.920   4.008  13.951  0.00  0.00    +0.000 A 
ATOM      4  N   UNL     1       5.206   3.482  14.960  0.00  0.00    +0.000 NA
ATOM      5  N   UNL     1       5.353   4.352  15.993  0.00  0.00    +0.000 N 
ENDROOT
BRANCH   1  10
ATOM      6  C   UNL     1       8.895   8.907  19.484  0.00  0.00    +0.000 C 
ATOM      7  C   UNL     1       8.234   7.956  18.537  0.00  0.00    +0.000 A 
ATOM      8  C   UNL     1       8.190   6.582  18.789  0.00  0.00    +0.000 A 
ATOM      9  C   UNL     1       7.575   5.710  17.880  0.00  0.00    +0.000 A 
ATOM     10  C   UNL     1       6.975   6.203  16.716  0.00  0.00    +0.000 A 
ATOM     11  C   UNL     1       6.968   7.593  16.520  0.00  0.00    +0.000 A 
ATOM     12  C   UNL     1       7.632   8.456  17.385  0.00  0.00    +0.000 A 
ENDBRANCH   1  10
BRANCH   5  13
ATOM     13  C   UNL     1       4.507   4.213  17.129  0.00  0.00    +0.000 A 
ATOM     14  C   UNL     1       3.589   5.200  17.472  0.00  0.00    +0.000 A 
ATOM     15  C   UNL     1       2.857   5.082  18.646  0.00  0.00    +0.000 A 
ATOM     16  C   UNL     1       3.005   3.966  19.498  0.00  0.00    +0.000 A 
ATOM     17  C   UNL     1       3.895   2.924  19.155  0.00  0.00    +0.000 A 
ATOM     18  C   UNL     1       4.632   3.082  17.947  0.00  0.00    +0.000 A 
BRANCH  16  19
ATOM     19  S   UNL     1       1.981   4.044  20.945  0.00  0.00    +0.000 S 
ATOM     20  O   UNL     1       2.559   3.254  22.009  0.00  0.00    +0.000 OA
ATOM     21  O   UNL     1       1.568   5.411  21.189  0.00  0.00    +0.000 OA
BRANCH  19  22
ATOM     22  N   UNL     1       0.619   3.205  20.449  0.00  0.00    +0.000 NA
ATOM     23  H   UNL     1       0.025   3.011  21.258  0.00  0.00    +0.000 HD
ATOM     24  H   UNL     1       0.144   3.713  19.704  0.00  0.00    +0.000 HD
ENDBRANCH  19  22
ENDBRANCH  16  19
BRANCH  17  25
ATOM     25  C   UNL     1       4.336   1.706  19.955  0.00  0.00    +0.000 C 
BRANCH  25  26
ATOM     26  O   UNL     1       5.095   1.836  21.135  0.00  0.00    +0.000 OA
ATOM     27  H   UNL     1       5.936   2.296  20.964  0.00  0.00    +0.000 HD
ENDBRANCH  25  26
ENDBRANCH  17  25
ENDBRANCH   5  13
BRANCH   3  28
ATOM     28  C   UNL     1       5.893   3.448  12.555  0.00  0.00    +0.000 C 
ATOM     29  F   UNL     1       6.123   2.104  12.550  0.00  0.00    +0.000 F 
ATOM     30  F   UNL     1       4.699   3.636  11.935  0.00  0.00    +0.000 F 
ATOM     31  F   UNL     1       6.850   3.999  11.763  0.00  0.00    +0.000 F 
ENDBRANCH   3  28
TORSDOF 7
ENDMDL
MODEL 2
REMARK VINA RESULT:      -7.4      0.681      1.131
REMARK  Name = 
REMARK  8 active torsions:
REMARK  status: ('A' for Active; 'I' for Inactive)
REMARK    1  A    between atoms: C_1  and  C_2
REMARK    2  A    between atoms: C_5  and  C_6
REMARK    3  A    between atoms: C_8  and  C_9
REMARK    4  A    between atoms: N_14  and  C_15
REMARK    5  A    between atoms: C_18  and  S_19
REMARK    6  A    between atoms: S_19  and  N_20
REMARK    7  A    between atoms: C_23  and  C_24
REMARK    8  A    between atoms: C_24  and  O_25
REMARK                            x       y       z     vdW  Elec       q    Type
REMARK                         _______ _______ _______ _____ _____    ______ ____
ROOT
ATOM      1  C   UNL     1       6.403   5.271  15.729  0.00  0.00    +0.000 A 
ATOM      2  C   UNL     1       6.745   5.082  14.400  0.00  0.00    +0.000 A 
ATOM      3  C   UNL     1       5.982   3.985  13.939  0.00  0.00    +0.000 A 
ATOM      4  N   UNL     1       5.246   3.472  14.938  0.00  0.00    +0.000 NA
ATOM      5  N   UNL     1       5.382   4.347  15.968  0.00  0.00    +0.000 N 
ENDROOT
BRANCH   1  10
ATOM      6  C   UNL     1       8.900   8.893  19.495  0.00  0.00    +0.000 C 
ATOM      7  C   UNL     1       8.249   7.942  18.541  0.00  0.00    +0.000 A 
ATOM      8  C   UNL     1       8.190   6.569  18.800  0.00  0.00    +0.000 A 
ATOM      9  C   UNL     1       7.584   5.698  17.886  0.00  0.00    +0.000 A 
ATOM     10  C   UNL     1       7.007   6.188  16.709  0.00  0.00    +0.000 A 
ATOM     11  C   UNL     1       7.013   7.577  16.506  0.00  0.00    +0.000 A 
ATOM     12  C   UNL     1       7.669   8.440  17.377  0.00  0.00    +0.000 A 
ENDBRANCH   1  10
BRANCH   5  13
ATOM     13  C   UNL     1       4.515   4.222  17.091  0.00  0.00    +0.000 A 
ATOM     14  C   UNL     1       3.603   5.222  17.413  0.00  0.00    +0.000 A 
ATOM     15  C   UNL     1       2.848   5.117  18.575  0.00  0.00    +0.000 A 
ATOM     16  C   UNL     1       2.968   4.003  19.434  0.00  0.00    +0.000 A 
ATOM     17  C   UNL     1       3.852   2.949  19.111  0.00  0.00    +0.000 A 
ATOM     18  C   UNL     1       4.612   3.093  17.915  0.00  0.00    +0.000 A 
BRANCH  16  19
ATOM     19  S   UNL     1       1.920   4.098  20.862  0.00  0.00    +0.000 S 
ATOM     20  O   UNL     1       0.545   3.859  20.489  0.00  0.00    +0.000 OA
ATOM     21  O   UNL     1       2.517   3.372  21.965  0.00  0.00    +0.000 OA
BRANCH  19  22
ATOM     22  N   UNL     1       2.007   5.726  21.246  0.00  0.00    +0.000 NA
ATOM     23  H   UNL     1       1.828   5.851  22.244  0.00  0.00    +0.000 HD
ATOM     24  H   UNL     1       2.899   6.114  20.938  0.00  0.00    +0.000 HD
ENDBRANCH  19  22
ENDBRANCH  16  19
BRANCH  17  25
ATOM     25  C   UNL     1       4.266   1.730  19.923  0.00  0.00    +0.000 C 
BRANCH  25  26
ATOM     26  O   UNL     1       5.055   1.851  21.084  0.00  0.00    +0.000 OA
ATOM     27  H   UNL     1       5.850   2.387  20.914  0.00  0.00    +0.000 HD
ENDBRANCH  25  26
ENDBRANCH  17  25
ENDBRANCH   5  13
BRANCH   3  28
ATOM     28  C   UNL     1       5.975   3.416  12.547  0.00  0.00    +0.000 C 
ATOM     29  F   UNL     1       6.918   4.006  11.759  0.00  0.00    +0.000 F 
ATOM     30  F   UNL     1       6.234   2.083  12.523  0.00  0.00    +0.000 F 
ATOM     31  F   UNL     1       4.784   3.607  11.920  0.00  0.00    +0.000 F 
ENDBRANCH   3  28
TORSDOF 7
ENDMDL
MODEL 3
REMARK VINA RESULT:      -7.4      4.142      5.480
REMARK  Name = 
REMARK  8 active torsions:
REMARK  status: ('A' for Active; 'I' for Inactive)
REMARK    1  A    between atoms: C_1  and  C_2
REMARK    2  A    between atoms: C_5  and  C_6
REMARK    3  A    between atoms: C_8  and  C_9
REMARK    4  A    between atoms: N_14  and  C_15
REMARK    5  A    between atoms: C_18  and  S_19
REMARK    6  A    between atoms: S_19  and  N_20
REMARK    7  A    between atoms: C_23  and  C_24
REMARK    8  A    between atoms: C_24  and  O_25
REMARK                            x       y       z     vdW  Elec       q    Type
REMARK                         _______ _______ _______ _____ _____    ______ ____
ROOT
ATOM      1  C   UNL     1       4.542   5.040  18.246  0.00  0.00    +0.000 A 
ATOM      2  C   UNL     1       4.551   3.671  18.042  0.00  0.00    +0.000 A 
ATOM      3  C   UNL     1       3.280   3.196  18.438  0.00  0.00    +0.000 A 
ATOM      4  N   UNL     1       2.532   4.201  18.923  0.00  0.00    +0.000 NA
ATOM      5  N   UNL     1       3.238   5.331  18.656  0.00  0.00    +0.000 N 
ENDROOT
BRANCH   1  10
ATOM      6  C   UNL     1       8.891   8.849  17.904  0.00  0.00    +0.000 C 
ATOM      7  C   UNL     1       7.763   7.869  17.968  0.00  0.00    +0.000 A 
ATOM      8  C   UNL     1       6.631   8.001  17.158  0.00  0.00    +0.000 A 
ATOM      9  C   UNL     1       5.582   7.076  17.244  0.00  0.00    +0.000 A 
ATOM     10  C   UNL     1       5.659   5.992  18.126  0.00  0.00    +0.000 A 
ATOM     11  C   UNL     1       6.835   5.840  18.875  0.00  0.00    +0.000 A 
ATOM     12  C   UNL     1       7.852   6.789  18.841  0.00  0.00    +0.000 A 
ENDBRANCH   1  10
BRANCH   5  13
ATOM     13  C   UNL     1       2.595   6.592  18.813  0.00  0.00    +0.000 A 
ATOM     14  C   UNL     1       2.490   7.486  17.753  0.00  0.00    +0.000 A 
ATOM     15  C   UNL     1       1.953   8.749  17.968  0.00  0.00    +0.000 A 
ATOM     16  C   UNL     1       1.487   9.145  19.241  0.00  0.00    +0.000 A 
ATOM     17  C   UNL     1       1.537   8.244  20.328  0.00  0.00    +0.000 A 
ATOM     18  C   UNL     1       2.098   6.960  20.070  0.00  0.00    +0.000 A 
BRANCH  16  19
ATOM     19  S   UNL     1       0.863  10.805  19.277  0.00  0.00    +0.000 S 
ATOM     20  O   UNL     1      -0.518  10.829  18.849  0.00  0.00    +0.000 OA
ATOM     21  O   UNL     1       1.259  11.458  20.509  0.00  0.00    +0.000 OA
BRANCH  19  22
ATOM     22  N   UNL     1       1.732  11.527  18.041  0.00  0.00    +0.000 NA
ATOM     23  H   UNL     1       2.606  11.904  18.414  0.00  0.00    +0.000 HD
ATOM     24  H   UNL     1       1.863  10.871  17.272  0.00  0.00    +0.000 HD
ENDBRANCH  19  22
ENDBRANCH  16  19
BRANCH  17  25
ATOM     25  C   UNL     1       1.239   8.467  21.803  0.00  0.00    +0.000 C 
BRANCH  25  26
ATOM     26  O   UNL     1       2.015   9.343  22.587  0.00  0.00    +0.000 OA
ATOM     27  H   UNL     1       2.099   9.016  23.501  0.00  0.00    +0.000 HD
ENDBRANCH  25  26
ENDBRANCH  17  25
ENDBRANCH   5  13
BRANCH   3  28
ATOM     28  C   UNL     1       2.790   1.775  18.372  0.00  0.00    +0.000 C 
ATOM     29  F   UNL     1       2.178   1.510  17.183  0.00  0.00    +0.000 F 
ATOM     30  F   UNL     1       3.791   0.867  18.501  0.00  0.00    +0.000 F 
ATOM     31  F   UNL     1       1.873   1.504  19.339  0.00  0.00    +0.000 F 
ENDBRANCH   3  28
TORSDOF 7
ENDMDL
MODEL 4
REMARK VINA RESULT:      -7.4      0.891      1.209
REMARK  Name = 
REMARK  8 active torsions:
REMARK  status: ('A' for Active; 'I' for Inactive)
REMARK    1  A    between atoms: C_1  and  C_2
REMARK    2  A    between atoms: C_5  and  C_6
REMARK    3  A    between atoms: C_8  and  C_9
REMARK    4  A    between atoms: N_14  and  C_15
REMARK    5  A    between atoms: C_18  and  S_19
REMARK    6  A    between atoms: S_19  and  N_20
REMARK    7  A    between atoms: C_23  and  C_24
REMARK    8  A    between atoms: C_24  and  O_25
REMARK                            x       y       z     vdW  Elec       q    Type
REMARK                         _______ _______ _______ _____ _____    ______ ____
ROOT
ATOM      1  C   UNL     1       6.431   5.425  15.719  0.00  0.00    +0.000 A 
ATOM      2  C   UNL     1       6.829   5.175  14.416  0.00  0.00    +0.000 A 
ATOM      3  C   UNL     1       6.021   4.115  13.944  0.00  0.00    +0.000 A 
ATOM      4  N   UNL     1       5.202   3.679  14.916  0.00  0.00    +0.000 NA
ATOM      5  N   UNL     1       5.341   4.575  15.928  0.00  0.00    +0.000 N 
ENDROOT
BRANCH   1  10
ATOM      6  C   UNL     1       8.950   9.009  19.507  0.00  0.00    +0.000 C 
ATOM      7  C   UNL     1       8.293   8.067  18.548  0.00  0.00    +0.000 A 
ATOM      8  C   UNL     1       8.260   6.689  18.779  0.00  0.00    +0.000 A 
ATOM      9  C   UNL     1       7.649   5.826  17.860  0.00  0.00    +0.000 A 
ATOM     10  C   UNL     1       7.041   6.332  16.706  0.00  0.00    +0.000 A 
ATOM     11  C   UNL     1       7.022   7.724  16.531  0.00  0.00    +0.000 A 
ATOM     12  C   UNL     1       7.682   8.579  17.407  0.00  0.00    +0.000 A 
ENDBRANCH   1  10
BRANCH   5  13
ATOM     13  C   UNL     1       4.410   4.539  17.005  0.00  0.00    +0.000 A 
ATOM     14  C   UNL     1       4.026   5.701  17.666  0.00  0.00    +0.000 A 
ATOM     15  C   UNL     1       3.200   5.618  18.780  0.00  0.00    +0.000 A 
ATOM     16  C   UNL     1       2.719   4.377  19.251  0.00  0.00    +0.000 A 
ATOM     17  C   UNL     1       3.053   3.183  18.573  0.00  0.00    +0.000 A 
ATOM     18  C   UNL     1       3.905   3.306  17.438  0.00  0.00    +0.000 A 
BRANCH  16  19
ATOM     19  S   UNL     1       1.699   4.518  20.695  0.00  0.00    +0.000 S 
ATOM     20  O   UNL     1       2.265   3.752  21.782  0.00  0.00    +0.000 OA
ATOM     21  O   UNL     1       1.312   5.900  20.896  0.00  0.00    +0.000 OA
BRANCH  19  22
ATOM     22  N   UNL     1       0.322   3.689  20.227  0.00  0.00    +0.000 NA
ATOM     23  H   UNL     1       0.099   2.976  20.925  0.00  0.00    +0.000 HD
ATOM     24  H   UNL     1      -0.441   4.342  20.051  0.00  0.00    +0.000 HD
ENDBRANCH  19  22
ENDBRANCH  16  19
BRANCH  17  25
ATOM     25  C   UNL     1       2.788   1.732  18.951  0.00  0.00    +0.000 C 
BRANCH  25  26
ATOM     26  O   UNL     1       1.479   1.215  19.016  0.00  0.00    +0.000 OA
ATOM     27  H   UNL     1       0.856   1.880  19.359  0.00  0.00    +0.000 HD
ENDBRANCH  25  26
ENDBRANCH  17  25
ENDBRANCH   5  13
BRANCH   3  28
ATOM     28  C   UNL     1       6.050   3.506  12.569  0.00  0.00    +0.000 C 
ATOM     29  F   UNL     1       7.010   4.077  11.788  0.00  0.00    +0.000 F 
ATOM     30  F   UNL     1       6.313   2.173  12.590  0.00  0.00    +0.000 F 
ATOM     31  F   UNL     1       4.874   3.674  11.909  0.00  0.00    +0.000 F 
ENDBRANCH   3  28
TORSDOF 7
ENDMDL
MODEL 5
REMARK VINA RESULT:      -7.2      0.926      1.944
REMARK  Name = 
REMARK  8 active torsions:
REMARK  status: ('A' for Active; 'I' for Inactive)
REMARK    1  A    between atoms: C_1  and  C_2
REMARK    2  A    between atoms: C_5  and  C_6
REMARK    3  A    between atoms: C_8  and  C_9
REMARK    4  A    between atoms: N_14  and  C_15
REMARK    5  A    between atoms: C_18  and  S_19
REMARK    6  A    between atoms: S_19  and  N_20
REMARK    7  A    between atoms: C_23  and  C_24
REMARK    8  A    between atoms: C_24  and  O_25
REMARK                            x       y       z     vdW  Elec       q    Type
REMARK                         _______ _______ _______ _____ _____    ______ ____
ROOT
ATOM      1  C   UNL     1       6.385   5.172  15.629  0.00  0.00    +0.000 A 
ATOM      2  C   UNL     1       6.746   5.005  14.302  0.00  0.00    +0.000 A 
ATOM      3  C   UNL     1       5.986   3.918  13.811  0.00  0.00    +0.000 A 
ATOM      4  N   UNL     1       5.234   3.390  14.791  0.00  0.00    +0.000 NA
ATOM      5  N   UNL     1       5.358   4.247  15.838  0.00  0.00    +0.000 N 
ENDROOT
BRANCH   1  10
ATOM      6  C   UNL     1       8.837   8.723  19.491  0.00  0.00    +0.000 C 
ATOM      7  C   UNL     1       8.197   7.790  18.513  0.00  0.00    +0.000 A 
ATOM      8  C   UNL     1       8.153   6.410  18.735  0.00  0.00    +0.000 A 
ATOM      9  C   UNL     1       7.559   5.556  17.798  0.00  0.00    +0.000 A 
ATOM     10  C   UNL     1       6.977   6.070  16.634  0.00  0.00    +0.000 A 
ATOM     11  C   UNL     1       6.968   7.464  16.466  0.00  0.00    +0.000 A 
ATOM     12  C   UNL     1       7.613   8.311  17.361  0.00  0.00    +0.000 A 
ENDBRANCH   1  10
BRANCH   5  13
ATOM     13  C   UNL     1       4.474   4.107  16.945  0.00  0.00    +0.000 A 
ATOM     14  C   UNL     1       4.078   2.853  17.399  0.00  0.00    +0.000 A 
ATOM     15  C   UNL     1       3.132   2.754  18.411  0.00  0.00    +0.000 A 
ATOM     16  C   UNL     1       2.571   3.902  19.011  0.00  0.00    +0.000 A 
ATOM     17  C   UNL     1       2.985   5.190  18.604  0.00  0.00    +0.000 A 
ATOM     18  C   UNL     1       3.954   5.252  17.561  0.00  0.00    +0.000 A 
BRANCH  16  19
ATOM     19  S   UNL     1       1.372   3.529  20.264  0.00  0.00    +0.000 S 
ATOM     20  O   UNL     1       1.949   2.657  21.262  0.00  0.00    +0.000 OA
ATOM     21  O   UNL     1       0.675   4.736  20.660  0.00  0.00    +0.000 OA
BRANCH  19  22
ATOM     22  N   UNL     1       0.274   2.586  19.422  0.00  0.00    +0.000 NA
ATOM     23  H   UNL     1      -0.596   3.107  19.295  0.00  0.00    +0.000 HD
ATOM     24  H   UNL     1       0.687   2.260  18.548  0.00  0.00    +0.000 HD
ENDBRANCH  19  22
ENDBRANCH  16  19
BRANCH  17  25
ATOM     25  C   UNL     1       2.444   6.562  18.982  0.00  0.00    +0.000 C 
BRANCH  25  26
ATOM     26  O   UNL     1       2.428   7.005  20.319  0.00  0.00    +0.000 OA
ATOM     27  H   UNL     1       2.562   6.263  20.937  0.00  0.00    +0.000 HD
ENDBRANCH  25  26
ENDBRANCH  17  25
ENDBRANCH   5  13
BRANCH   3  28
ATOM     28  C   UNL     1       5.998   3.373  12.410  0.00  0.00    +0.000 C 
ATOM     29  F   UNL     1       6.996   3.927  11.665  0.00  0.00    +0.000 F 
ATOM     30  F   UNL     1       6.189   2.029  12.370  0.00  0.00    +0.000 F 
ATOM     31  F   UNL     1       4.840   3.635  11.748  0.00  0.00    +0.000 F 
ENDBRANCH   3  28
TORSDOF 7
ENDMDL
MODEL 6
REMARK VINA RESULT:      -7.2      0.311      1.197
REMARK  Name = 
REMARK  8 active torsions:
REMARK  status: ('A' for Active; 'I' for Inactive)
REMARK    1  A    between atoms: C_1  and  C_2
REMARK    2  A    between atoms: C_5  and  C_6
REMARK    3  A    between atoms: C_8  and  C_9
REMARK    4  A    between atoms: N_14  and  C_15
REMARK    5  A    between atoms: C_18  and  S_19
REMARK    6  A    between atoms: S_19  and  N_20
REMARK    7  A    between atoms: C_23  and  C_24
REMARK    8  A    between atoms: C_24  and  O_25
REMARK                            x       y       z     vdW  Elec       q    Type
REMARK                         _______ _______ _______ _____ _____    ______ ____
ROOT
ATOM      1  C   UNL     1       6.394   5.258  15.689  0.00  0.00    +0.000 A 
ATOM      2  C   UNL     1       6.730   5.040  14.364  0.00  0.00    +0.000 A 
ATOM      3  C   UNL     1       5.903   3.989  13.906  0.00  0.00    +0.000 A 
ATOM      4  N   UNL     1       5.131   3.529  14.905  0.00  0.00    +0.000 NA
ATOM      5  N   UNL     1       5.316   4.401  15.929  0.00  0.00    +0.000 N 
ENDROOT
BRANCH   1  10
ATOM      6  C   UNL     1       8.840   8.736  19.621  0.00  0.00    +0.000 C 
ATOM      7  C   UNL     1       8.217   7.853  18.587  0.00  0.00    +0.000 A 
ATOM      8  C   UNL     1       7.748   8.363  17.373  0.00  0.00    +0.000 A 
ATOM      9  C   UNL     1       7.157   7.518  16.425  0.00  0.00    +0.000 A 
ATOM     10  C   UNL     1       7.048   6.144  16.667  0.00  0.00    +0.000 A 
ATOM     11  C   UNL     1       7.591   5.643  17.860  0.00  0.00    +0.000 A 
ATOM     12  C   UNL     1       8.120   6.486  18.832  0.00  0.00    +0.000 A 
ENDBRANCH   1  10
BRANCH   5  13
ATOM     13  C   UNL     1       4.437   4.338  17.048  0.00  0.00    +0.000 A 
ATOM     14  C   UNL     1       3.600   5.402  17.369  0.00  0.00    +0.000 A 
ATOM     15  C   UNL     1       2.835   5.349  18.528  0.00  0.00    +0.000 A 
ATOM     16  C   UNL     1       2.868   4.228  19.384  0.00  0.00    +0.000 A 
ATOM     17  C   UNL     1       3.672   3.112  19.061  0.00  0.00    +0.000 A 
ATOM     18  C   UNL     1       4.446   3.202  17.868  0.00  0.00    +0.000 A 
BRANCH  16  19
ATOM     19  S   UNL     1       1.824   4.396  20.808  0.00  0.00    +0.000 S 
ATOM     20  O   UNL     1       2.411   3.718  21.941  0.00  0.00    +0.000 OA
ATOM     21  O   UNL     1       1.368   5.767  20.929  0.00  0.00    +0.000 OA
BRANCH  19  22
ATOM     22  N   UNL     1       0.494   3.477  20.371  0.00  0.00    +0.000 NA
ATOM     23  H   UNL     1       0.101   3.029  21.202  0.00  0.00    +0.000 HD
ATOM     24  H   UNL     1      -0.176   4.048  19.858  0.00  0.00    +0.000 HD
ENDBRANCH  19  22
ENDBRANCH  16  19
BRANCH  17  25
ATOM     25  C   UNL     1       3.990   1.863  19.871  0.00  0.00    +0.000 C 
BRANCH  25  26
ATOM     26  O   UNL     1       5.318   1.473  20.133  0.00  0.00    +0.000 OA
ATOM     27  H   UNL     1       5.410   1.120  21.036  0.00  0.00    +0.000 HD
ENDBRANCH  25  26
ENDBRANCH  17  25
ENDBRANCH   5  13
BRANCH   3  28
ATOM     28  C   UNL     1       5.868   3.411  12.518  0.00  0.00    +0.000 C 
ATOM     29  F   UNL     1       4.664   3.623  11.916  0.00  0.00    +0.000 F 
ATOM     30  F   UNL     1       6.808   3.952  11.699  0.00  0.00    +0.000 F 
ATOM     31  F   UNL     1       6.061   2.066  12.517  0.00  0.00    +0.000 F 
ENDBRANCH   3  28
TORSDOF 7
ENDMDL
MODEL 7
REMARK VINA RESULT:      -7.2      1.014      1.344
REMARK  Name = 
REMARK  8 active torsions:
REMARK  status: ('A' for Active; 'I' for Inactive)
REMARK    1  A    between atoms: C_1  and  C_2
REMARK    2  A    between atoms: C_5  and  C_6
REMARK    3  A    between atoms: C_8  and  C_9
REMARK    4  A    between atoms: N_14  and  C_15
REMARK    5  A    between atoms: C_18  and  S_19
REMARK    6  A    between atoms: S_19  and  N_20
REMARK    7  A    between atoms: C_23  and  C_24
REMARK    8  A    between atoms: C_24  and  O_25
REMARK                            x       y       z     vdW  Elec       q    Type
REMARK                         _______ _______ _______ _____ _____    ______ ____
ROOT
ATOM      1  C   UNL     1       6.524   5.329  15.590  0.00  0.00    +0.000 A 
ATOM      2  C   UNL     1       6.972   5.122  14.296  0.00  0.00    +0.000 A 
ATOM      3  C   UNL     1       6.199   4.061  13.768  0.00  0.00    +0.000 A 
ATOM      4  N   UNL     1       5.355   3.586  14.698  0.00  0.00    +0.000 NA
ATOM      5  N   UNL     1       5.442   4.456  15.738  0.00  0.00    +0.000 N 
ENDROOT
BRANCH   1  10
ATOM      6  C   UNL     1       8.848   8.846  19.561  0.00  0.00    +0.000 C 
ATOM      7  C   UNL     1       8.241   7.922  18.554  0.00  0.00    +0.000 A 
ATOM      8  C   UNL     1       8.185   6.541  18.765  0.00  0.00    +0.000 A 
ATOM      9  C   UNL     1       7.621   5.695  17.802  0.00  0.00    +0.000 A 
ATOM     10  C   UNL     1       7.083   6.219  16.621  0.00  0.00    +0.000 A 
ATOM     11  C   UNL     1       7.084   7.614  16.463  0.00  0.00    +0.000 A 
ATOM     12  C   UNL     1       7.700   8.453  17.386  0.00  0.00    +0.000 A 
ENDBRANCH   1  10
BRANCH   5  13
ATOM     13  C   UNL     1       4.475   4.376  16.780  0.00  0.00    +0.000 A 
ATOM     14  C   UNL     1       3.915   5.522  17.335  0.00  0.00    +0.000 A 
ATOM     15  C   UNL     1       3.056   5.412  18.421  0.00  0.00    +0.000 A 
ATOM     16  C   UNL     1       2.717   4.156  18.969  0.00  0.00    +0.000 A 
ATOM     17  C   UNL     1       3.233   2.970  18.398  0.00  0.00    +0.000 A 
ATOM     18  C   UNL     1       4.113   3.122  17.289  0.00  0.00    +0.000 A 
BRANCH  16  19
ATOM     19  S   UNL     1       1.622   4.265  20.360  0.00  0.00    +0.000 S 
ATOM     20  O   UNL     1       1.447   5.646  20.750  0.00  0.00    +0.000 OA
ATOM     21  O   UNL     1       0.470   3.410  20.154  0.00  0.00    +0.000 OA
BRANCH  19  22
ATOM     22  N   UNL     1       2.537   3.565  21.575  0.00  0.00    +0.000 NA
ATOM     23  H   UNL     1       3.365   3.125  21.167  0.00  0.00    +0.000 HD
ATOM     24  H   UNL     1       2.753   4.254  22.295  0.00  0.00    +0.000 HD
ENDBRANCH  19  22
ENDBRANCH  16  19
BRANCH  17  25
ATOM     25  C   UNL     1       3.139   1.528  18.877  0.00  0.00    +0.000 C 
BRANCH  25  26
ATOM     26  O   UNL     1       4.195   0.617  18.683  0.00  0.00    +0.000 OA
ATOM     27  H   UNL     1       4.691   0.821  17.869  0.00  0.00    +0.000 HD
ENDBRANCH  25  26
ENDBRANCH  17  25
ENDBRANCH   5  13
BRANCH   3  28
ATOM     28  C   UNL     1       6.287   3.490  12.380  0.00  0.00    +0.000 C 
ATOM     29  F   UNL     1       7.174   4.180  11.609  0.00  0.00    +0.000 F 
ATOM     30  F   UNL     1       6.694   2.194  12.369  0.00  0.00    +0.000 F 
ATOM     31  F   UNL     1       5.096   3.543  11.727  0.00  0.00    +0.000 F 
ENDBRANCH   3  28
TORSDOF 7
ENDMDL
MODEL 8
REMARK VINA RESULT:      -7.1      4.162      5.396
REMARK  Name = 
REMARK  8 active torsions:
REMARK  status: ('A' for Active; 'I' for Inactive)
REMARK    1  A    between atoms: C_1  and  C_2
REMARK    2  A    between atoms: C_5  and  C_6
REMARK    3  A    between atoms: C_8  and  C_9
REMARK    4  A    between atoms: N_14  and  C_15
REMARK    5  A    between atoms: C_18  and  S_19
REMARK    6  A    between atoms: S_19  and  N_20
REMARK    7  A    between atoms: C_23  and  C_24
REMARK    8  A    between atoms: C_24  and  O_25
REMARK                            x       y       z     vdW  Elec       q    Type
REMARK                         _______ _______ _______ _____ _____    ______ ____
ROOT
ATOM      1  C   UNL     1       4.500   5.064  18.296  0.00  0.00    +0.000 A 
ATOM      2  C   UNL     1       4.518   3.696  18.076  0.00  0.00    +0.000 A 
ATOM      3  C   UNL     1       3.241   3.213  18.442  0.00  0.00    +0.000 A 
ATOM      4  N   UNL     1       2.480   4.210  18.924  0.00  0.00    +0.000 NA
ATOM      5  N   UNL     1       3.187   5.345  18.684  0.00  0.00    +0.000 N 
ENDROOT
BRANCH   1  10
ATOM      6  C   UNL     1       8.927   8.767  17.820  0.00  0.00    +0.000 C 
ATOM      7  C   UNL     1       7.790   7.806  17.968  0.00  0.00    +0.000 A 
ATOM      8  C   UNL     1       7.860   6.715  18.839  0.00  0.00    +0.000 A 
ATOM      9  C   UNL     1       6.786   5.823  18.951  0.00  0.00    +0.000 A 
ATOM     10  C   UNL     1       5.616   6.021  18.210  0.00  0.00    +0.000 A 
ATOM     11  C   UNL     1       5.540   7.162  17.397  0.00  0.00    +0.000 A 
ATOM     12  C   UNL     1       6.626   8.015  17.233  0.00  0.00    +0.000 A 
ENDBRANCH   1  10
BRANCH   5  13
ATOM     13  C   UNL     1       2.536   6.602  18.843  0.00  0.00    +0.000 A 
ATOM     14  C   UNL     1       2.396   7.482  17.776  0.00  0.00    +0.000 A 
ATOM     15  C   UNL     1       1.852   8.743  17.991  0.00  0.00    +0.000 A 
ATOM     16  C   UNL     1       1.416   9.150  19.270  0.00  0.00    +0.000 A 
ATOM     17  C   UNL     1       1.503   8.262  20.365  0.00  0.00    +0.000 A 
ATOM     18  C   UNL     1       2.069   6.980  20.109  0.00  0.00    +0.000 A 
BRANCH  16  19
ATOM     19  S   UNL     1       0.777  10.805  19.303  0.00  0.00    +0.000 S 
ATOM     20  O   UNL     1      -0.593  10.820  18.845  0.00  0.00    +0.000 OA
ATOM     21  O   UNL     1       1.141  11.452  20.547  0.00  0.00    +0.000 OA
BRANCH  19  22
ATOM     22  N   UNL     1       1.667  11.542  18.091  0.00  0.00    +0.000 NA
ATOM     23  H   UNL     1       1.132  12.322  17.702  0.00  0.00    +0.000 HD
ATOM     24  H   UNL     1       2.586  11.810  18.441  0.00  0.00    +0.000 HD
ENDBRANCH  19  22
ENDBRANCH  16  19
BRANCH  17  25
ATOM     25  C   UNL     1       1.240   8.500  21.846  0.00  0.00    +0.000 C 
BRANCH  25  26
ATOM     26  O   UNL     1       2.056   9.357  22.610  0.00  0.00    +0.000 OA
ATOM     27  H   UNL     1       1.905   9.230  23.564  0.00  0.00    +0.000 HD
ENDBRANCH  25  26
ENDBRANCH  17  25
ENDBRANCH   5  13
BRANCH   3  28
ATOM     28  C   UNL     1       2.757   1.791  18.350  0.00  0.00    +0.000 C 
ATOM     29  F   UNL     1       1.848   1.507  19.325  0.00  0.00    +0.000 F 
ATOM     30  F   UNL     1       2.150   1.518  17.166  0.00  0.00    +0.000 F 
ATOM     31  F   UNL     1       3.768   0.895  18.500  0.00  0.00    +0.000 F 
ENDBRANCH   3  28
TORSDOF 7
ENDMDL
MODEL 9
REMARK VINA RESULT:      -7.1      1.302      2.140
REMARK  Name = 
REMARK  8 active torsions:
REMARK  status: ('A' for Active; 'I' for Inactive)
REMARK    1  A    between atoms: C_1  and  C_2
REMARK    2  A    between atoms: C_5  and  C_6
REMARK    3  A    between atoms: C_8  and  C_9
REMARK    4  A    between atoms: N_14  and  C_15
REMARK    5  A    between atoms: C_18  and  S_19
REMARK    6  A    between atoms: S_19  and  N_20
REMARK    7  A    between atoms: C_23  and  C_24
REMARK    8  A    between atoms: C_24  and  O_25
REMARK                            x       y       z     vdW  Elec       q    Type
REMARK                         _______ _______ _______ _____ _____    ______ ____
ROOT
ATOM      1  C   UNL     1       6.424   5.152  15.586  0.00  0.00    +0.000 A 
ATOM      2  C   UNL     1       6.810   4.981  14.267  0.00  0.00    +0.000 A 
ATOM      3  C   UNL     1       6.052   3.900  13.762  0.00  0.00    +0.000 A 
ATOM      4  N   UNL     1       5.276   3.378  14.726  0.00  0.00    +0.000 NA
ATOM      5  N   UNL     1       5.386   4.235  15.775  0.00  0.00    +0.000 N 
ENDROOT
BRANCH   1  10
ATOM      6  C   UNL     1       8.822   8.691  19.492  0.00  0.00    +0.000 C 
ATOM      7  C   UNL     1       8.196   7.761  18.502  0.00  0.00    +0.000 A 
ATOM      8  C   UNL     1       8.154   6.380  18.717  0.00  0.00    +0.000 A 
ATOM      9  C   UNL     1       7.573   5.529  17.769  0.00  0.00    +0.000 A 
ATOM     10  C   UNL     1       7.002   6.047  16.601  0.00  0.00    +0.000 A 
ATOM     11  C   UNL     1       6.990   7.441  16.441  0.00  0.00    +0.000 A 
ATOM     12  C   UNL     1       7.623   8.286  17.347  0.00  0.00    +0.000 A 
ENDBRANCH   1  10
BRANCH   5  13
ATOM     13  C   UNL     1       4.479   4.102  16.864  0.00  0.00    +0.000 A 
ATOM     14  C   UNL     1       4.076   2.851  17.319  0.00  0.00    +0.000 A 
ATOM     15  C   UNL     1       3.108   2.759  18.312  0.00  0.00    +0.000 A 
ATOM     16  C   UNL     1       2.533   3.911  18.891  0.00  0.00    +0.000 A 
ATOM     17  C   UNL     1       2.955   5.196  18.483  0.00  0.00    +0.000 A 
ATOM     18  C   UNL     1       3.945   5.252  17.461  0.00  0.00    +0.000 A 
BRANCH  16  19
ATOM     19  S   UNL     1       1.309   3.545  20.122  0.00  0.00    +0.000 S 
ATOM     20  O   UNL     1       0.837   4.767  20.734  0.00  0.00    +0.000 OA
ATOM     21  O   UNL     1       0.368   2.569  19.612  0.00  0.00    +0.000 OA
BRANCH  19  22
ATOM     22  N   UNL     1       2.221   2.775  21.297  0.00  0.00    +0.000 NA
ATOM     23  H   UNL     1       2.489   3.449  22.017  0.00  0.00    +0.000 HD
ATOM     24  H   UNL     1       1.718   1.966  21.660  0.00  0.00    +0.000 HD
ENDBRANCH  19  22
ENDBRANCH  16  19
BRANCH  17  25
ATOM     25  C   UNL     1       2.404   6.570  18.840  0.00  0.00    +0.000 C 
BRANCH  25  26
ATOM     26  O   UNL     1       2.457   7.066  20.157  0.00  0.00    +0.000 OA
ATOM     27  H   UNL     1       2.211   6.378  20.802  0.00  0.00    +0.000 HD
ENDBRANCH  25  26
ENDBRANCH  17  25
ENDBRANCH   5  13
BRANCH   3  28
ATOM     28  C   UNL     1       6.088   3.353  12.361  0.00  0.00    +0.000 C 
ATOM     29  F   UNL     1       4.998   3.744  11.642  0.00  0.00    +0.000 F 
ATOM     30  F   UNL     1       7.178   3.765  11.663  0.00  0.00    +0.000 F 
ATOM     31  F   UNL     1       6.087   1.994  12.341  0.00  0.00    +0.000 F 
ENDBRANCH   3  28
TORSDOF 7
ENDMDL
