MODEL 1
REMARK VINA RESULT:      -6.7      0.000      0.000
REMARK  Name = 
REMARK  1 active torsions:
REMARK  status: ('A' for Active; 'I' for Inactive)
REMARK    1  A    between atoms: C_2  and  C_9
REMARK                            x       y       z     vdW  Elec       q    Type
REMARK                         _______ _______ _______ _____ _____    ______ ____
ROOT
ATOM      1  C   UNL     1       4.139   4.571  17.131  0.00  0.00    +0.000 A 
ATOM      2  S   UNL     1       3.828   2.927  17.492  0.00  0.00    +0.000 S 
ATOM      3  C   UNL     1       2.764   3.315  18.787  0.00  0.00    +0.000 A 
ATOM      4  C   UNL     1       2.105   2.409  19.641  0.00  0.00    +0.000 A 
ATOM      5  C   UNL     1       1.275   2.908  20.649  0.00  0.00    +0.000 A 
ATOM      6  C   UNL     1       1.101   4.274  20.804  0.00  0.00    +0.000 A 
ATOM      7  C   UNL     1       1.751   5.167  19.948  0.00  0.00    +0.000 A 
ATOM      8  C   UNL     1       2.610   4.695  18.923  0.00  0.00    +0.000 A 
ATOM      9  C   UNL     1       3.397   5.403  17.951  0.00  0.00    +0.000 A 
ATOM     10 CL   UNL     1       3.384   7.125  17.891  0.00  0.00    +0.000 Cl
ENDROOT
BRANCH   1  12
ATOM     11  O   UNL     1       5.611   6.077  16.093  0.00  0.00    +0.000 OA
ATOM     12  C   UNL     1       5.090   4.964  16.099  0.00  0.00    +0.000 C 
ATOM     13  N   UNL     1       5.312   4.039  15.087  0.00  0.00    +0.000 N 
ATOM     14  C   UNL     1       6.167   4.157  14.032  0.00  0.00    +0.000 C 
ATOM     15  N   UNL     1       5.939   3.495  12.951  0.00  0.00    +0.000 NA
ATOM     16  C   UNL     1       6.970   3.851  11.948  0.00  0.00    +0.000 C 
ATOM     17  C   UNL     1       7.642   5.167  12.314  0.00  0.00    +0.000 C 
ATOM     18  S   UNL     1       7.583   5.149  14.104  0.00  0.00    +0.000 S 
ATOM     19  H   UNL     1       4.646   3.286  14.992  0.00  0.00    +0.000 HD
ENDBRANCH   1  12
TORSDOF 1
ENDMDL
MODEL 2
REMARK VINA RESULT:      -6.4      1.142      1.154
REMARK  Name = 
REMARK  1 active torsions:
REMARK  status: ('A' for Active; 'I' for Inactive)
REMARK    1  A    between atoms: C_2  and  C_9
REMARK                            x       y       z     vdW  Elec       q    Type
REMARK                         _______ _______ _______ _____ _____    ______ ____
ROOT
ATOM      1  C   UNL     1       4.111   4.515  17.347  0.00  0.00    +0.000 A 
ATOM      2  S   UNL     1       2.611   3.758  17.024  0.00  0.00    +0.000 S 
ATOM      3  C   UNL     1       2.238   3.572  18.694  0.00  0.00    +0.000 A 
ATOM      4  C   UNL     1       1.098   2.953  19.243  0.00  0.00    +0.000 A 
ATOM      5  C   UNL     1       0.963   2.889  20.632  0.00  0.00    +0.000 A 
ATOM      6  C   UNL     1       1.935   3.431  21.458  0.00  0.00    +0.000 A 
ATOM      7  C   UNL     1       3.059   4.051  20.907  0.00  0.00    +0.000 A 
ATOM      8  C   UNL     1       3.234   4.122  19.501  0.00  0.00    +0.000 A 
ATOM      9  C   UNL     1       4.298   4.675  18.708  0.00  0.00    +0.000 A 
ATOM     10 CL   UNL     1       5.655   5.427  19.458  0.00  0.00    +0.000 Cl
ENDROOT
BRANCH   1  12
ATOM     11  O   UNL     1       5.541   6.007  16.234  0.00  0.00    +0.000 OA
ATOM     12  C   UNL     1       5.027   4.892  16.278  0.00  0.00    +0.000 C 
ATOM     13  N   UNL     1       5.224   3.948  15.279  0.00  0.00    +0.000 N 
ATOM     14  C   UNL     1       6.045   4.049  14.196  0.00  0.00    +0.000 C 
ATOM     15  N   UNL     1       5.787   3.364  13.135  0.00  0.00    +0.000 NA
ATOM     16  C   UNL     1       6.785   3.705  12.094  0.00  0.00    +0.000 C 
ATOM     17  C   UNL     1       7.460   5.032  12.413  0.00  0.00    +0.000 C 
ATOM     18  S   UNL     1       7.456   5.050  14.204  0.00  0.00    +0.000 S 
ATOM     19  H   UNL     1       4.559   3.189  15.219  0.00  0.00    +0.000 HD
ENDBRANCH   1  12
TORSDOF 1
ENDMDL
MODEL 3
REMARK VINA RESULT:      -6.3      4.531      7.594
REMARK  Name = 
REMARK  1 active torsions:
REMARK  status: ('A' for Active; 'I' for Inactive)
REMARK    1  A    between atoms: C_2  and  C_9
REMARK                            x       y       z     vdW  Elec       q    Type
REMARK                         _______ _______ _______ _____ _____    ______ ____
ROOT
ATOM      1  C   UNL     1       3.009   6.466  18.679  0.00  0.00    +0.000 A 
ATOM      2  S   UNL     1       3.833   7.418  17.521  0.00  0.00    +0.000 S 
ATOM      3  C   UNL     1       4.566   6.049  16.778  0.00  0.00    +0.000 A 
ATOM      4  C   UNL     1       5.475   6.055  15.702  0.00  0.00    +0.000 A 
ATOM      5  C   UNL     1       5.974   4.839  15.229  0.00  0.00    +0.000 A 
ATOM      6  C   UNL     1       5.578   3.643  15.808  0.00  0.00    +0.000 A 
ATOM      7  C   UNL     1       4.670   3.645  16.871  0.00  0.00    +0.000 A 
ATOM      8  C   UNL     1       4.154   4.861  17.384  0.00  0.00    +0.000 A 
ATOM      9  C   UNL     1       3.245   5.120  18.467  0.00  0.00    +0.000 A 
ATOM     10 CL   UNL     1       2.574   3.822  19.382  0.00  0.00    +0.000 Cl
ENDROOT
BRANCH   1  12
ATOM     11  O   UNL     1       1.859   6.429  20.726  0.00  0.00    +0.000 OA
ATOM     12  C   UNL     1       2.203   7.068  19.734  0.00  0.00    +0.000 C 
ATOM     13  N   UNL     1       1.786   8.375  19.516  0.00  0.00    +0.000 N 
ATOM     14  C   UNL     1       1.053   9.159  20.355  0.00  0.00    +0.000 C 
ATOM     15  N   UNL     1       0.343  10.119  19.871  0.00  0.00    +0.000 NA
ATOM     16  C   UNL     1      -0.401  10.767  20.978  0.00  0.00    +0.000 C 
ATOM     17  C   UNL     1      -0.470   9.845  22.188  0.00  0.00    +0.000 C 
ATOM     18  S   UNL     1       1.067   8.932  22.071  0.00  0.00    +0.000 S 
ATOM     19  H   UNL     1       1.850   8.731  18.573  0.00  0.00    +0.000 HD
ENDBRANCH   1  12
TORSDOF 1
ENDMDL
MODEL 4
REMARK VINA RESULT:      -6.3      5.019      6.591
REMARK  Name = 
REMARK  1 active torsions:
REMARK  status: ('A' for Active; 'I' for Inactive)
REMARK    1  A    between atoms: C_2  and  C_9
REMARK                            x       y       z     vdW  Elec       q    Type
REMARK                         _______ _______ _______ _____ _____    ______ ____
ROOT
ATOM      1  C   UNL     1       1.438   8.448  20.037  0.00  0.00    +0.000 A 
ATOM      2  S   UNL     1       0.841   7.999  21.576  0.00  0.00    +0.000 S 
ATOM      3  C   UNL     1       0.093   9.527  21.837  0.00  0.00    +0.000 A 
ATOM      4  C   UNL     1      -0.607   9.942  22.986  0.00  0.00    +0.000 A 
ATOM      5  C   UNL     1      -1.147  11.230  23.024  0.00  0.00    +0.000 A 
ATOM      6  C   UNL     1      -1.000  12.086  21.943  0.00  0.00    +0.000 A 
ATOM      7  C   UNL     1      -0.311  11.665  20.803  0.00  0.00    +0.000 A 
ATOM      8  C   UNL     1       0.261  10.369  20.736  0.00  0.00    +0.000 A 
ATOM      9  C   UNL     1       1.024   9.725  19.703  0.00  0.00    +0.000 A 
ATOM     10 CL   UNL     1       1.371  10.543  18.225  0.00  0.00    +0.000 Cl
ENDROOT
BRANCH   1  12
ATOM     11  O   UNL     1       2.506   7.766  18.061  0.00  0.00    +0.000 OA
ATOM     12  C   UNL     1       2.282   7.557  19.251  0.00  0.00    +0.000 C 
ATOM     13  N   UNL     1       2.755   6.427  19.904  0.00  0.00    +0.000 N 
ATOM     14  C   UNL     1       3.577   5.463  19.401  0.00  0.00    +0.000 C 
ATOM     15  N   UNL     1       3.548   4.276  19.901  0.00  0.00    +0.000 NA
ATOM     16  C   UNL     1       4.480   3.414  19.136  0.00  0.00    +0.000 C 
ATOM     17  C   UNL     1       4.789   4.032  17.779  0.00  0.00    +0.000 C 
ATOM     18  S   UNL     1       4.695   5.788  18.120  0.00  0.00    +0.000 S 
ATOM     19  H   UNL     1       2.302   6.167  20.769  0.00  0.00    +0.000 HD
ENDBRANCH   1  12
TORSDOF 1
ENDMDL
MODEL 5
REMARK VINA RESULT:      -6.2      5.210      7.662
REMARK  Name = 
REMARK  1 active torsions:
REMARK  status: ('A' for Active; 'I' for Inactive)
REMARK    1  A    between atoms: C_2  and  C_9
REMARK                            x       y       z     vdW  Elec       q    Type
REMARK                         _______ _______ _______ _____ _____    ______ ____
ROOT
ATOM      1  C   UNL     1       2.350   7.233  19.127  0.00  0.00    +0.000 A 
ATOM      2  S   UNL     1       3.341   7.623  17.787  0.00  0.00    +0.000 S 
ATOM      3  C   UNL     1       3.825   5.988  17.550  0.00  0.00    +0.000 A 
ATOM      4  C   UNL     1       4.729   5.504  16.585  0.00  0.00    +0.000 A 
ATOM      5  C   UNL     1       5.008   4.136  16.542  0.00  0.00    +0.000 A 
ATOM      6  C   UNL     1       4.400   3.266  17.433  0.00  0.00    +0.000 A 
ATOM      7  C   UNL     1       3.497   3.752  18.383  0.00  0.00    +0.000 A 
ATOM      8  C   UNL     1       3.201   5.136  18.463  0.00  0.00    +0.000 A 
ATOM      9  C   UNL     1       2.343   5.869  19.353  0.00  0.00    +0.000 A 
ATOM     10 CL   UNL     1       1.443   5.055  20.578  0.00  0.00    +0.000 Cl
ENDROOT
BRANCH   1  12
ATOM     11  O   UNL     1       1.589   8.218  21.118  0.00  0.00    +0.000 OA
ATOM     12  C   UNL     1       1.654   8.261  19.891  0.00  0.00    +0.000 C 
ATOM     13  N   UNL     1       1.009   9.244  19.151  0.00  0.00    +0.000 N 
ATOM     14  C   UNL     1       0.319  10.318  19.627  0.00  0.00    +0.000 C 
ATOM     15  N   UNL     1      -0.604  10.853  18.904  0.00  0.00    +0.000 NA
ATOM     16  C   UNL     1      -1.236  11.950  19.676  0.00  0.00    +0.000 C 
ATOM     17  C   UNL     1      -0.953  11.792  21.163  0.00  0.00    +0.000 C 
ATOM     18  S   UNL     1       0.663  11.019  21.172  0.00  0.00    +0.000 S 
ATOM     19  H   UNL     1       0.853   9.059  18.170  0.00  0.00    +0.000 HD
ENDBRANCH   1  12
TORSDOF 1
ENDMDL
MODEL 6
REMARK VINA RESULT:      -6.2      3.493      4.541
REMARK  Name = 
REMARK  1 active torsions:
REMARK  status: ('A' for Active; 'I' for Inactive)
REMARK    1  A    between atoms: C_2  and  C_9
REMARK                            x       y       z     vdW  Elec       q    Type
REMARK                         _______ _______ _______ _____ _____    ______ ____
ROOT
ATOM      1  C   UNL     1       2.679   7.057  18.552  0.00  0.00    +0.000 A 
ATOM      2  S   UNL     1       2.345   8.616  17.932  0.00  0.00    +0.000 S 
ATOM      3  C   UNL     1       1.431   9.074  19.316  0.00  0.00    +0.000 A 
ATOM      4  C   UNL     1       0.761  10.295  19.522  0.00  0.00    +0.000 A 
ATOM      5  C   UNL     1       0.059  10.492  20.714  0.00  0.00    +0.000 A 
ATOM      6  C   UNL     1       0.027   9.501  21.682  0.00  0.00    +0.000 A 
ATOM      7  C   UNL     1       0.701   8.294  21.475  0.00  0.00    +0.000 A 
ATOM      8  C   UNL     1       1.412   8.057  20.271  0.00  0.00    +0.000 A 
ATOM      9  C   UNL     1       2.149   6.908  19.821  0.00  0.00    +0.000 A 
ATOM     10 CL   UNL     1       2.292   5.508  20.816  0.00  0.00    +0.000 Cl
ENDROOT
BRANCH   1  12
ATOM     11  O   UNL     1       3.048   4.890  17.724  0.00  0.00    +0.000 OA
ATOM     12  C   UNL     1       3.413   6.063  17.777  0.00  0.00    +0.000 C 
ATOM     13  N   UNL     1       4.581   6.501  17.168  0.00  0.00    +0.000 N 
ATOM     14  C   UNL     1       5.421   5.779  16.375  0.00  0.00    +0.000 C 
ATOM     15  N   UNL     1       6.659   6.123  16.279  0.00  0.00    +0.000 NA
ATOM     16  C   UNL     1       7.361   5.142  15.417  0.00  0.00    +0.000 C 
ATOM     17  C   UNL     1       6.565   3.848  15.321  0.00  0.00    +0.000 C 
ATOM     18  S   UNL     1       4.873   4.420  15.454  0.00  0.00    +0.000 S 
ATOM     19  H   UNL     1       4.971   7.376  17.488  0.00  0.00    +0.000 HD
ENDBRANCH   1  12
TORSDOF 1
ENDMDL
MODEL 7
REMARK VINA RESULT:      -6.2      5.081      7.739
REMARK  Name = 
REMARK  1 active torsions:
REMARK  status: ('A' for Active; 'I' for Inactive)
REMARK    1  A    between atoms: C_2  and  C_9
REMARK                            x       y       z     vdW  Elec       q    Type
REMARK                         _______ _______ _______ _____ _____    ______ ____
ROOT
ATOM      1  C   UNL     1       2.125   6.680  19.695  0.00  0.00    +0.000 A 
ATOM      2  S   UNL     1       1.787   5.302  20.651  0.00  0.00    +0.000 S 
ATOM      3  C   UNL     1       2.642   4.244  19.597  0.00  0.00    +0.000 A 
ATOM      4  C   UNL     1       2.776   2.847  19.725  0.00  0.00    +0.000 A 
ATOM      5  C   UNL     1       3.508   2.145  18.764  0.00  0.00    +0.000 A 
ATOM      6  C   UNL     1       4.099   2.813  17.704  0.00  0.00    +0.000 A 
ATOM      7  C   UNL     1       3.969   4.200  17.587  0.00  0.00    +0.000 A 
ATOM      8  C   UNL     1       3.222   4.942  18.537  0.00  0.00    +0.000 A 
ATOM      9  C   UNL     1       2.927   6.346  18.618  0.00  0.00    +0.000 A 
ATOM     10 CL   UNL     1       3.531   7.442  17.433  0.00  0.00    +0.000 Cl
ENDROOT
BRANCH   1  12
ATOM     11  O   UNL     1       1.907   8.998  19.391  0.00  0.00    +0.000 OA
ATOM     12  C   UNL     1       1.586   7.994  20.023  0.00  0.00    +0.000 C 
ATOM     13  N   UNL     1       0.752   8.054  21.132  0.00  0.00    +0.000 N 
ATOM     14  C   UNL     1       0.107   9.149  21.623  0.00  0.00    +0.000 C 
ATOM     15  N   UNL     1      -0.218   9.191  22.869  0.00  0.00    +0.000 NA
ATOM     16  C   UNL     1      -0.841  10.506  23.154  0.00  0.00    +0.000 C 
ATOM     17  C   UNL     1      -0.479  11.516  22.074  0.00  0.00    +0.000 C 
ATOM     18  S   UNL     1      -0.326  10.488  20.615  0.00  0.00    +0.000 S 
ATOM     19  H   UNL     1       0.767   7.269  21.767  0.00  0.00    +0.000 HD
ENDBRANCH   1  12
TORSDOF 1
ENDMDL
MODEL 8
REMARK VINA RESULT:      -6.1      8.581     11.205
REMARK  Name = 
REMARK  1 active torsions:
REMARK  status: ('A' for Active; 'I' for Inactive)
REMARK    1  A    between atoms: C_2  and  C_9
REMARK                            x       y       z     vdW  Elec       q    Type
REMARK                         _______ _______ _______ _____ _____    ______ ____
ROOT
ATOM      1  C   UNL     1       0.263  10.941  21.159  0.00  0.00    +0.000 A 
ATOM      2  S   UNL     1       0.801   9.469  21.847  0.00  0.00    +0.000 S 
ATOM      3  C   UNL     1       1.370   8.864  20.339  0.00  0.00    +0.000 A 
ATOM      4  C   UNL     1       1.948   7.603  20.097  0.00  0.00    +0.000 A 
ATOM      5  C   UNL     1       2.351   7.279  18.799  0.00  0.00    +0.000 A 
ATOM      6  C   UNL     1       2.188   8.187  17.765  0.00  0.00    +0.000 A 
ATOM      7  C   UNL     1       1.620   9.440  18.014  0.00  0.00    +0.000 A 
ATOM      8  C   UNL     1       1.189   9.797  19.316  0.00  0.00    +0.000 A 
ATOM      9  C   UNL     1       0.564  10.993  19.810  0.00  0.00    +0.000 A 
ATOM     10 CL   UNL     1       0.232  12.313  18.753  0.00  0.00    +0.000 Cl
ENDROOT
BRANCH   1  12
ATOM     11  O   UNL     1       0.110  13.001  22.276  0.00  0.00    +0.000 OA
ATOM     12  C   UNL     1      -0.434  11.948  21.950  0.00  0.00    +0.000 C 
ATOM     13  N   UNL     1      -1.714  11.617  22.373  0.00  0.00    +0.000 N 
ATOM     14  C   UNL     1      -2.573  12.391  23.094  0.00  0.00    +0.000 C 
ATOM     15  N   UNL     1      -3.483  11.831  23.815  0.00  0.00    +0.000 NA
ATOM     16  C   UNL     1      -4.231  12.885  24.541  0.00  0.00    +0.000 C 
ATOM     17  C   UNL     1      -3.426  14.176  24.588  0.00  0.00    +0.000 C 
ATOM     18  S   UNL     1      -2.507  14.120  23.052  0.00  0.00    +0.000 S 
ATOM     19  H   UNL     1      -1.982  10.643  22.326  0.00  0.00    +0.000 HD
ENDBRANCH   1  12
TORSDOF 1
ENDMDL
MODEL 9
REMARK VINA RESULT:      -6.1      2.371      6.950
REMARK  Name = 
REMARK  1 active torsions:
REMARK  status: ('A' for Active; 'I' for Inactive)
REMARK    1  A    between atoms: C_2  and  C_9
REMARK                            x       y       z     vdW  Elec       q    Type
REMARK                         _______ _______ _______ _____ _____    ______ ____
ROOT
ATOM      1  C   UNL     1       5.406   4.455  16.605  0.00  0.00    +0.000 A 
ATOM      2  S   UNL     1       4.890   3.350  15.405  0.00  0.00    +0.000 S 
ATOM      3  C   UNL     1       6.000   3.955  14.237  0.00  0.00    +0.000 A 
ATOM      4  C   UNL     1       6.139   3.531  12.902  0.00  0.00    +0.000 A 
ATOM      5  C   UNL     1       7.098   4.143  12.091  0.00  0.00    +0.000 A 
ATOM      6  C   UNL     1       7.904   5.152  12.595  0.00  0.00    +0.000 A 
ATOM      7  C   UNL     1       7.766   5.564  13.923  0.00  0.00    +0.000 A 
ATOM      8  C   UNL     1       6.794   4.972  14.770  0.00  0.00    +0.000 A 
ATOM      9  C   UNL     1       6.449   5.236  16.140  0.00  0.00    +0.000 A 
ATOM     10 CL   UNL     1       7.285   6.443  17.042  0.00  0.00    +0.000 Cl
ENDROOT
BRANCH   1  12
ATOM     11  O   UNL     1       5.186   5.264  18.798  0.00  0.00    +0.000 OA
ATOM     12  C   UNL     1       4.767   4.521  17.914  0.00  0.00    +0.000 C 
ATOM     13  N   UNL     1       3.710   3.645  18.124  0.00  0.00    +0.000 N 
ATOM     14  C   UNL     1       2.940   3.532  19.242  0.00  0.00    +0.000 C 
ATOM     15  N   UNL     1       2.350   2.415  19.499  0.00  0.00    +0.000 NA
ATOM     16  C   UNL     1       1.639   2.539  20.794  0.00  0.00    +0.000 C 
ATOM     17  C   UNL     1       2.195   3.704  21.601  0.00  0.00    +0.000 C 
ATOM     18  S   UNL     1       2.694   4.859  20.326  0.00  0.00    +0.000 S 
ATOM     19  H   UNL     1       3.612   2.873  17.480  0.00  0.00    +0.000 HD
ENDBRANCH   1  12
TORSDOF 1
ENDMDL
