MODEL 1
REMARK VINA RESULT:      -7.8      0.000      0.000
REMARK  Name = 
REMARK  7 active torsions:
REMARK  status: ('A' for Active; 'I' for Inactive)
REMARK    1  A    between atoms: C_1  and  C_2
REMARK    2  A    between atoms: C_4  and  C_5
REMARK    3  A    between atoms: N_9  and  C_10
REMARK    4  A    between atoms: C_15  and  C_16
REMARK    5  A    between atoms: N_17  and  C_18
REMARK    6  A    between atoms: C_21  and  S_22
REMARK    7  A    between atoms: S_22  and  N_23
REMARK                            x       y       z     vdW  Elec       q    Type
REMARK                         _______ _______ _______ _____ _____    ______ ____
ROOT
ATOM      1  C   UNL     1       2.596   4.904  20.743  0.00  0.00    +0.000 C 
ATOM      2  C   UNL     1       2.118   6.240  20.280  0.00  0.00    +0.000 A 
ATOM      3  C   UNL     1       1.291   7.083  20.991  0.00  0.00    +0.000 A 
ATOM      4  C   UNL     1       1.225   8.329  20.327  0.00  0.00    +0.000 A 
ATOM      5  C   UNL     1       1.967   8.195  19.154  0.00  0.00    +0.000 A 
ATOM      6  C   UNL     1       2.134   9.209  18.062  0.00  0.00    +0.000 C 
ATOM      7  N   UNL     1       2.521   6.902  19.117  0.00  0.00    +0.000 N 
ENDROOT
BRANCH   4   8
ATOM      8  C   UNL     1       0.522   9.515  20.823  0.00  0.00    +0.000 C 
ATOM      9  N   UNL     1      -0.150   9.420  21.928  0.00  0.00    +0.000 NA
ATOM     10  N   UNL     1      -0.789  10.549  22.466  0.00  0.00    +0.000 NA
ATOM     11  C   UNL     1      -1.232  11.512  21.715  0.00  0.00    +0.000 C 
ATOM     12  N   UNL     1      -1.925  12.612  22.152  0.00  0.00    +0.000 N 
ATOM     13  S   UNL     1      -0.964  11.585  19.983  0.00  0.00    +0.000 S 
ATOM     14  C   UNL     1       0.651  10.796  20.045  0.00  0.00    +0.000 C 
ATOM     15  H   UNL     1      -2.282  13.174  21.389  0.00  0.00    +0.000 HD
BRANCH  12  16
ATOM     16  C   UNL     1      -2.733  12.518  23.366  0.00  0.00    +0.000 C 
ATOM     17  C   UNL     1      -3.213  13.766  24.053  0.00  0.00    +0.000 C 
ATOM     18  C   UNL     1      -4.191  12.884  23.332  0.00  0.00    +0.000 C 
ENDBRANCH  12  16
ENDBRANCH   4   8
BRANCH   7  19
ATOM     19  C   UNL     1       3.356   6.354  18.084  0.00  0.00    +0.000 A 
ATOM     20  C   UNL     1       3.223   5.015  17.686  0.00  0.00    +0.000 A 
ATOM     21  C   UNL     1       4.076   4.463  16.726  0.00  0.00    +0.000 A 
ATOM     22  C   UNL     1       5.037   5.268  16.116  0.00  0.00    +0.000 A 
ATOM     23  C   UNL     1       5.170   6.608  16.477  0.00  0.00    +0.000 A 
ATOM     24  C   UNL     1       4.339   7.143  17.467  0.00  0.00    +0.000 A 
BRANCH  22  25
ATOM     25  S   UNL     1       6.114   4.564  14.908  0.00  0.00    +0.000 S 
ATOM     26  O   UNL     1       5.372   4.309  13.697  0.00  0.00    +0.000 OA
ATOM     27  O   UNL     1       7.367   5.278  14.917  0.00  0.00    +0.000 OA
BRANCH  25  28
ATOM     28  N   UNL     1       6.430   3.061  15.582  0.00  0.00    +0.000 NA
ATOM     29  H   UNL     1       7.263   3.113  16.168  0.00  0.00    +0.000 HD
ATOM     30  H   UNL     1       5.601   2.717  16.065  0.00  0.00    +0.000 HD
ENDBRANCH  25  28
ENDBRANCH  22  25
ENDBRANCH   7  19
TORSDOF 5
ENDMDL
MODEL 2
REMARK VINA RESULT:      -7.8      4.800      9.885
REMARK  Name = 
REMARK  7 active torsions:
REMARK  status: ('A' for Active; 'I' for Inactive)
REMARK    1  A    between atoms: C_1  and  C_2
REMARK    2  A    between atoms: C_4  and  C_5
REMARK    3  A    between atoms: N_9  and  C_10
REMARK    4  A    between atoms: C_15  and  C_16
REMARK    5  A    between atoms: N_17  and  C_18
REMARK    6  A    between atoms: C_21  and  S_22
REMARK    7  A    between atoms: S_22  and  N_23
REMARK                            x       y       z     vdW  Elec       q    Type
REMARK                         _______ _______ _______ _____ _____    ______ ____
ROOT
ATOM      1  C   UNL     1      -0.361   9.110  22.759  0.00  0.00    +0.000 C 
ATOM      2  C   UNL     1       0.510   8.997  21.552  0.00  0.00    +0.000 A 
ATOM      3  C   UNL     1       1.247   7.887  21.200  0.00  0.00    +0.000 A 
ATOM      4  C   UNL     1       1.777   8.079  19.903  0.00  0.00    +0.000 A 
ATOM      5  C   UNL     1       1.410   9.366  19.511  0.00  0.00    +0.000 A 
ATOM      6  C   UNL     1       1.801  10.079  18.250  0.00  0.00    +0.000 C 
ATOM      7  N   UNL     1       0.627   9.942  20.529  0.00  0.00    +0.000 N 
ENDROOT
BRANCH   4   8
ATOM      8  C   UNL     1       2.536   7.083  19.144  0.00  0.00    +0.000 C 
ATOM      9  N   UNL     1       3.370   7.496  18.240  0.00  0.00    +0.000 NA
ATOM     10  N   UNL     1       4.158   6.573  17.532  0.00  0.00    +0.000 NA
ATOM     11  C   UNL     1       3.755   5.361  17.298  0.00  0.00    +0.000 C 
ATOM     12  N   UNL     1       4.430   4.423  16.558  0.00  0.00    +0.000 N 
ATOM     13  S   UNL     1       2.267   4.697  17.946  0.00  0.00    +0.000 S 
ATOM     14  C   UNL     1       2.340   5.630  19.481  0.00  0.00    +0.000 C 
ATOM     15  H   UNL     1       3.881   3.587  16.397  0.00  0.00    +0.000 HD
BRANCH  12  16
ATOM     16  C   UNL     1       5.336   4.859  15.498  0.00  0.00    +0.000 C 
ATOM     17  C   UNL     1       6.821   4.685  15.654  0.00  0.00    +0.000 C 
ATOM     18  C   UNL     1       6.068   3.843  14.666  0.00  0.00    +0.000 C 
ENDBRANCH  12  16
ENDBRANCH   4   8
BRANCH   7  19
ATOM     19  C   UNL     1       0.043  11.255  20.526  0.00  0.00    +0.000 A 
ATOM     20  C   UNL     1       0.743  12.355  21.043  0.00  0.00    +0.000 A 
ATOM     21  C   UNL     1       0.152  13.620  21.098  0.00  0.00    +0.000 A 
ATOM     22  C   UNL     1      -1.130  13.804  20.581  0.00  0.00    +0.000 A 
ATOM     23  C   UNL     1      -1.834  12.730  20.038  0.00  0.00    +0.000 A 
ATOM     24  C   UNL     1      -1.251  11.459  20.023  0.00  0.00    +0.000 A 
BRANCH  22  25
ATOM     25  S   UNL     1      -1.872  15.403  20.658  0.00  0.00    +0.000 S 
ATOM     26  O   UNL     1      -3.307  15.269  20.573  0.00  0.00    +0.000 OA
ATOM     27  O   UNL     1      -1.224  16.179  21.686  0.00  0.00    +0.000 OA
BRANCH  25  28
ATOM     28  N   UNL     1      -1.383  16.066  19.196  0.00  0.00    +0.000 NA
ATOM     29  H   UNL     1      -0.835  16.910  19.366  0.00  0.00    +0.000 HD
ATOM     30  H   UNL     1      -0.901  15.360  18.641  0.00  0.00    +0.000 HD
ENDBRANCH  25  28
ENDBRANCH  22  25
ENDBRANCH   7  19
TORSDOF 5
ENDMDL
MODEL 3
REMARK VINA RESULT:      -7.8      3.033      4.113
REMARK  Name = 
REMARK  7 active torsions:
REMARK  status: ('A' for Active; 'I' for Inactive)
REMARK    1  A    between atoms: C_1  and  C_2
REMARK    2  A    between atoms: C_4  and  C_5
REMARK    3  A    between atoms: N_9  and  C_10
REMARK    4  A    between atoms: C_15  and  C_16
REMARK    5  A    between atoms: N_17  and  C_18
REMARK    6  A    between atoms: C_21  and  S_22
REMARK    7  A    between atoms: S_22  and  N_23
REMARK                            x       y       z     vdW  Elec       q    Type
REMARK                         _______ _______ _______ _____ _____    ______ ____
ROOT
ATOM      1  C   UNL     1       1.905   8.828  17.421  0.00  0.00    +0.000 C 
ATOM      2  C   UNL     1       1.548   9.257  18.805  0.00  0.00    +0.000 A 
ATOM      3  C   UNL     1       1.051  10.494  19.155  0.00  0.00    +0.000 A 
ATOM      4  C   UNL     1       0.645  10.459  20.509  0.00  0.00    +0.000 A 
ATOM      5  C   UNL     1       0.983   9.196  20.994  0.00  0.00    +0.000 A 
ATOM      6  C   UNL     1       0.839   8.693  22.399  0.00  0.00    +0.000 C 
ATOM      7  N   UNL     1       1.546   8.447  19.944  0.00  0.00    +0.000 N 
ENDROOT
BRANCH   4   8
ATOM      8  C   UNL     1      -0.022  11.553  21.219  0.00  0.00    +0.000 C 
ATOM      9  N   UNL     1       0.711  12.451  21.803  0.00  0.00    +0.000 NA
ATOM     10  N   UNL     1       0.108  13.546  22.444  0.00  0.00    +0.000 NA
ATOM     11  C   UNL     1      -1.073  13.466  22.979  0.00  0.00    +0.000 C 
ATOM     12  N   UNL     1      -1.702  14.463  23.680  0.00  0.00    +0.000 N 
ATOM     13  S   UNL     1      -2.098  12.050  22.844  0.00  0.00    +0.000 S 
ATOM     14  C   UNL     1      -1.525  11.602  21.199  0.00  0.00    +0.000 C 
ATOM     15  H   UNL     1      -2.561  14.149  24.116  0.00  0.00    +0.000 HD
BRANCH  12  16
ATOM     16  C   UNL     1      -0.901  15.457  24.391  0.00  0.00    +0.000 C 
ATOM     17  C   UNL     1      -1.478  16.809  24.704  0.00  0.00    +0.000 C 
ATOM     18  C   UNL     1      -1.238  15.824  25.810  0.00  0.00    +0.000 C 
ENDBRANCH  12  16
ENDBRANCH   4   8
BRANCH   7  19
ATOM     19  C   UNL     1       2.026   7.094  20.015  0.00  0.00    +0.000 A 
ATOM     20  C   UNL     1       3.241   6.728  19.416  0.00  0.00    +0.000 A 
ATOM     21  C   UNL     1       3.678   5.401  19.430  0.00  0.00    +0.000 A 
ATOM     22  C   UNL     1       2.923   4.436  20.095  0.00  0.00    +0.000 A 
ATOM     23  C   UNL     1       1.726   4.781  20.720  0.00  0.00    +0.000 A 
ATOM     24  C   UNL     1       1.275   6.104  20.668  0.00  0.00    +0.000 A 
BRANCH  22  25
ATOM     25  S   UNL     1       3.478   2.760  20.105  0.00  0.00    +0.000 S 
ATOM     26  O   UNL     1       3.565   2.294  21.468  0.00  0.00    +0.000 OA
ATOM     27  O   UNL     1       2.788   2.026  19.075  0.00  0.00    +0.000 OA
BRANCH  25  28
ATOM     28  N   UNL     1       5.061   2.932  19.575  0.00  0.00    +0.000 NA
ATOM     29  H   UNL     1       5.089   3.564  18.773  0.00  0.00    +0.000 HD
ATOM     30  H   UNL     1       5.657   3.217  20.351  0.00  0.00    +0.000 HD
ENDBRANCH  25  28
ENDBRANCH  22  25
ENDBRANCH   7  19
TORSDOF 5
ENDMDL
MODEL 4
REMARK VINA RESULT:      -7.7      1.434      1.537
REMARK  Name = 
REMARK  7 active torsions:
REMARK  status: ('A' for Active; 'I' for Inactive)
REMARK    1  A    between atoms: C_1  and  C_2
REMARK    2  A    between atoms: C_4  and  C_5
REMARK    3  A    between atoms: N_9  and  C_10
REMARK    4  A    between atoms: C_15  and  C_16
REMARK    5  A    between atoms: N_17  and  C_18
REMARK    6  A    between atoms: C_21  and  S_22
REMARK    7  A    between atoms: S_22  and  N_23
REMARK                            x       y       z     vdW  Elec       q    Type
REMARK                         _______ _______ _______ _____ _____    ______ ____
ROOT
ATOM      1  C   UNL     1       2.797   4.762  20.743  0.00  0.00    +0.000 C 
ATOM      2  C   UNL     1       2.259   6.079  20.290  0.00  0.00    +0.000 A 
ATOM      3  C   UNL     1       1.421   6.892  21.021  0.00  0.00    +0.000 A 
ATOM      4  C   UNL     1       1.292   8.134  20.356  0.00  0.00    +0.000 A 
ATOM      5  C   UNL     1       2.008   8.024  19.165  0.00  0.00    +0.000 A 
ATOM      6  C   UNL     1       2.109   9.041  18.067  0.00  0.00    +0.000 C 
ATOM      7  N   UNL     1       2.607   6.751  19.115  0.00  0.00    +0.000 N 
ENDROOT
BRANCH   4   8
ATOM      8  C   UNL     1       0.560   9.295  20.868  0.00  0.00    +0.000 C 
ATOM      9  N   UNL     1       0.984  10.481  20.561  0.00  0.00    +0.000 NA
ATOM     10  N   UNL     1       0.275  11.617  20.985  0.00  0.00    +0.000 NA
ATOM     11  C   UNL     1      -0.420  11.624  22.083  0.00  0.00    +0.000 C 
ATOM     12  N   UNL     1      -1.082  12.708  22.602  0.00  0.00    +0.000 N 
ATOM     13  S   UNL     1      -0.669  10.200  23.075  0.00  0.00    +0.000 S 
ATOM     14  C   UNL     1      -0.674   9.049  21.693  0.00  0.00    +0.000 C 
ATOM     15  H   UNL     1      -1.456  12.527  23.526  0.00  0.00    +0.000 HD
BRANCH  12  16
ATOM     16  C   UNL     1      -0.594  14.054  22.315  0.00  0.00    +0.000 C 
ATOM     17  C   UNL     1      -1.566  15.181  22.102  0.00  0.00    +0.000 C 
ATOM     18  C   UNL     1      -0.727  15.141  23.345  0.00  0.00    +0.000 C 
ENDBRANCH  12  16
ENDBRANCH   4   8
BRANCH   7  19
ATOM     19  C   UNL     1       3.435   6.231  18.062  0.00  0.00    +0.000 A 
ATOM     20  C   UNL     1       3.277   4.914  17.606  0.00  0.00    +0.000 A 
ATOM     21  C   UNL     1       4.121   4.387  16.626  0.00  0.00    +0.000 A 
ATOM     22  C   UNL     1       5.100   5.198  16.053  0.00  0.00    +0.000 A 
ATOM     23  C   UNL     1       5.259   6.518  16.472  0.00  0.00    +0.000 A 
ATOM     24  C   UNL     1       4.436   7.026  17.482  0.00  0.00    +0.000 A 
BRANCH  22  25
ATOM     25  S   UNL     1       6.168   4.525  14.819  0.00  0.00    +0.000 S 
ATOM     26  O   UNL     1       5.394   4.197  13.646  0.00  0.00    +0.000 OA
ATOM     27  O   UNL     1       7.377   5.308  14.759  0.00  0.00    +0.000 OA
BRANCH  25  28
ATOM     28  N   UNL     1       6.596   3.059  15.515  0.00  0.00    +0.000 NA
ATOM     29  H   UNL     1       7.376   3.197  16.158  0.00  0.00    +0.000 HD
ATOM     30  H   UNL     1       5.777   2.625  15.939  0.00  0.00    +0.000 HD
ENDBRANCH  25  28
ENDBRANCH  22  25
ENDBRANCH   7  19
TORSDOF 5
ENDMDL
MODEL 5
REMARK VINA RESULT:      -7.6      5.104     10.435
REMARK  Name = 
REMARK  7 active torsions:
REMARK  status: ('A' for Active; 'I' for Inactive)
REMARK    1  A    between atoms: C_1  and  C_2
REMARK    2  A    between atoms: C_4  and  C_5
REMARK    3  A    between atoms: N_9  and  C_10
REMARK    4  A    between atoms: C_15  and  C_16
REMARK    5  A    between atoms: N_17  and  C_18
REMARK    6  A    between atoms: C_21  and  S_22
REMARK    7  A    between atoms: S_22  and  N_23
REMARK                            x       y       z     vdW  Elec       q    Type
REMARK                         _______ _______ _______ _____ _____    ______ ____
ROOT
ATOM      1  C   UNL     1      -1.359  11.791  18.163  0.00  0.00    +0.000 C 
ATOM      2  C   UNL     1      -0.452  10.828  18.854  0.00  0.00    +0.000 A 
ATOM      3  C   UNL     1       0.215   9.784  18.249  0.00  0.00    +0.000 A 
ATOM      4  C   UNL     1       1.128   9.226  19.174  0.00  0.00    +0.000 A 
ATOM      5  C   UNL     1       0.939   9.903  20.378  0.00  0.00    +0.000 A 
ATOM      6  C   UNL     1       1.606   9.625  21.692  0.00  0.00    +0.000 C 
ATOM      7  N   UNL     1      -0.041  10.895  20.188  0.00  0.00    +0.000 N 
ENDROOT
BRANCH   4   8
ATOM      8  C   UNL     1       2.087   8.159  18.875  0.00  0.00    +0.000 C 
ATOM      9  N   UNL     1       2.862   8.294  17.844  0.00  0.00    +0.000 NA
ATOM     10  N   UNL     1       3.833   7.320  17.559  0.00  0.00    +0.000 NA
ATOM     11  C   UNL     1       3.671   6.071  17.880  0.00  0.00    +0.000 C 
ATOM     12  N   UNL     1       4.536   5.050  17.577  0.00  0.00    +0.000 N 
ATOM     13  S   UNL     1       2.309   5.486  18.816  0.00  0.00    +0.000 S 
ATOM     14  C   UNL     1       2.151   6.979  19.806  0.00  0.00    +0.000 C 
ATOM     15  H   UNL     1       4.158   4.140  17.812  0.00  0.00    +0.000 HD
BRANCH  12  16
ATOM     16  C   UNL     1       5.383   5.152  16.392  0.00  0.00    +0.000 C 
ATOM     17  C   UNL     1       6.786   4.612  16.416  0.00  0.00    +0.000 C 
ATOM     18  C   UNL     1       5.731   3.919  15.605  0.00  0.00    +0.000 C 
ENDBRANCH  12  16
ENDBRANCH   4   8
BRANCH   7  19
ATOM     19  C   UNL     1      -0.530  11.820  21.173  0.00  0.00    +0.000 A 
ATOM     20  C   UNL     1       0.059  13.084  21.329  0.00  0.00    +0.000 A 
ATOM     21  C   UNL     1      -0.374  13.960  22.327  0.00  0.00    +0.000 A 
ATOM     22  C   UNL     1      -1.442  13.596  23.146  0.00  0.00    +0.000 A 
ATOM     23  C   UNL     1      -2.060  12.355  22.993  0.00  0.00    +0.000 A 
ATOM     24  C   UNL     1      -1.595  11.468  22.017  0.00  0.00    +0.000 A 
BRANCH  22  25
ATOM     25  S   UNL     1      -1.982  14.705  24.409  0.00  0.00    +0.000 S 
ATOM     26  O   UNL     1      -3.183  14.186  25.019  0.00  0.00    +0.000 OA
ATOM     27  O   UNL     1      -0.842  15.136  25.179  0.00  0.00    +0.000 OA
BRANCH  25  28
ATOM     28  N   UNL     1      -2.461  16.032  23.501  0.00  0.00    +0.000 NA
ATOM     29  H   UNL     1      -1.839  16.145  22.700  0.00  0.00    +0.000 HD
ATOM     30  H   UNL     1      -3.446  15.945  23.255  0.00  0.00    +0.000 HD
ENDBRANCH  25  28
ENDBRANCH  22  25
ENDBRANCH   7  19
TORSDOF 5
ENDMDL
MODEL 6
REMARK VINA RESULT:      -7.6      2.987      3.932
REMARK  Name = 
REMARK  7 active torsions:
REMARK  status: ('A' for Active; 'I' for Inactive)
REMARK    1  A    between atoms: C_1  and  C_2
REMARK    2  A    between atoms: C_4  and  C_5
REMARK    3  A    between atoms: N_9  and  C_10
REMARK    4  A    between atoms: C_15  and  C_16
REMARK    5  A    between atoms: N_17  and  C_18
REMARK    6  A    between atoms: C_21  and  S_22
REMARK    7  A    between atoms: S_22  and  N_23
REMARK                            x       y       z     vdW  Elec       q    Type
REMARK                         _______ _______ _______ _____ _____    ______ ____
ROOT
ATOM      1  C   UNL     1       1.450   8.820  17.363  0.00  0.00    +0.000 C 
ATOM      2  C   UNL     1       1.390   9.304  18.774  0.00  0.00    +0.000 A 
ATOM      3  C   UNL     1       1.038  10.577  19.167  0.00  0.00    +0.000 A 
ATOM      4  C   UNL     1       0.900  10.601  20.574  0.00  0.00    +0.000 A 
ATOM      5  C   UNL     1       1.257   9.333  21.031  0.00  0.00    +0.000 A 
ATOM      6  C   UNL     1       1.359   8.874  22.455  0.00  0.00    +0.000 C 
ATOM      7  N   UNL     1       1.565   8.524  19.921  0.00  0.00    +0.000 N 
ENDROOT
BRANCH   4   8
ATOM      8  C   UNL     1       0.443  11.751  21.358  0.00  0.00    +0.000 C 
ATOM      9  N   UNL     1      -0.358  11.541  22.357  0.00  0.00    +0.000 NA
ATOM     10  N   UNL     1      -0.771  12.611  23.168  0.00  0.00    +0.000 NA
ATOM     11  C   UNL     1      -0.884  13.820  22.706  0.00  0.00    +0.000 C 
ATOM     12  N   UNL     1      -1.346  14.904  23.410  0.00  0.00    +0.000 N 
ATOM     13  S   UNL     1      -0.407  14.281  21.084  0.00  0.00    +0.000 S 
ATOM     14  C   UNL     1       0.959  13.114  20.989  0.00  0.00    +0.000 C 
ATOM     15  H   UNL     1      -1.469  15.721  22.825  0.00  0.00    +0.000 HD
BRANCH  12  16
ATOM     16  C   UNL     1      -2.289  14.701  24.507  0.00  0.00    +0.000 C 
ATOM     17  C   UNL     1      -2.034  15.327  25.849  0.00  0.00    +0.000 C 
ATOM     18  C   UNL     1      -3.148  15.839  24.984  0.00  0.00    +0.000 C 
ENDBRANCH  12  16
ENDBRANCH   4   8
BRANCH   7  19
ATOM     19  C   UNL     1       1.975   7.147  19.947  0.00  0.00    +0.000 A 
ATOM     20  C   UNL     1       1.213   6.182  20.623  0.00  0.00    +0.000 A 
ATOM     21  C   UNL     1       1.642   4.855  20.703  0.00  0.00    +0.000 A 
ATOM     22  C   UNL     1       2.817   4.473  20.057  0.00  0.00    +0.000 A 
ATOM     23  C   UNL     1       3.577   5.409  19.358  0.00  0.00    +0.000 A 
ATOM     24  C   UNL     1       3.161   6.744  19.316  0.00  0.00    +0.000 A 
BRANCH  22  25
ATOM     25  S   UNL     1       3.357   2.795  20.166  0.00  0.00    +0.000 S 
ATOM     26  O   UNL     1       3.421   2.404  21.553  0.00  0.00    +0.000 OA
ATOM     27  O   UNL     1       2.673   2.011  19.167  0.00  0.00    +0.000 OA
BRANCH  25  28
ATOM     28  N   UNL     1       4.947   2.925  19.648  0.00  0.00    +0.000 NA
ATOM     29  H   UNL     1       5.079   2.379  18.796  0.00  0.00    +0.000 HD
ATOM     30  H   UNL     1       5.202   3.908  19.557  0.00  0.00    +0.000 HD
ENDBRANCH  25  28
ENDBRANCH  22  25
ENDBRANCH   7  19
TORSDOF 5
ENDMDL
MODEL 7
REMARK VINA RESULT:      -7.6      1.419      1.488
REMARK  Name = 
REMARK  7 active torsions:
REMARK  status: ('A' for Active; 'I' for Inactive)
REMARK    1  A    between atoms: C_1  and  C_2
REMARK    2  A    between atoms: C_4  and  C_5
REMARK    3  A    between atoms: N_9  and  C_10
REMARK    4  A    between atoms: C_15  and  C_16
REMARK    5  A    between atoms: N_17  and  C_18
REMARK    6  A    between atoms: C_21  and  S_22
REMARK    7  A    between atoms: S_22  and  N_23
REMARK                            x       y       z     vdW  Elec       q    Type
REMARK                         _______ _______ _______ _____ _____    ______ ____
ROOT
ATOM      1  C   UNL     1       2.551   5.087  20.805  0.00  0.00    +0.000 C 
ATOM      2  C   UNL     1       2.092   6.389  20.237  0.00  0.00    +0.000 A 
ATOM      3  C   UNL     1       1.173   7.234  20.821  0.00  0.00    +0.000 A 
ATOM      4  C   UNL     1       1.146   8.451  20.100  0.00  0.00    +0.000 A 
ATOM      5  C   UNL     1       2.011   8.291  19.018  0.00  0.00    +0.000 A 
ATOM      6  C   UNL     1       2.267   9.265  17.906  0.00  0.00    +0.000 C 
ATOM      7  N   UNL     1       2.599   7.014  19.095  0.00  0.00    +0.000 N 
ENDROOT
BRANCH   4   8
ATOM      8  C   UNL     1       0.366   9.634  20.468  0.00  0.00    +0.000 C 
ATOM      9  N   UNL     1      -0.747   9.863  19.842  0.00  0.00    +0.000 NA
ATOM     10  N   UNL     1      -1.551  10.955  20.207  0.00  0.00    +0.000 NA
ATOM     11  C   UNL     1      -1.049  12.043  20.708  0.00  0.00    +0.000 C 
ATOM     12  N   UNL     1      -1.754  13.176  21.025  0.00  0.00    +0.000 N 
ATOM     13  S   UNL     1       0.648  12.223  21.114  0.00  0.00    +0.000 S 
ATOM     14  C   UNL     1       0.875  10.503  21.586  0.00  0.00    +0.000 C 
ATOM     15  H   UNL     1      -1.151  13.948  21.284  0.00  0.00    +0.000 HD
BRANCH  12  16
ATOM     16  C   UNL     1      -2.983  13.486  20.299  0.00  0.00    +0.000 C 
ATOM     17  C   UNL     1      -4.313  13.042  20.840  0.00  0.00    +0.000 C 
ATOM     18  C   UNL     1      -3.950  14.498  20.848  0.00  0.00    +0.000 C 
ENDBRANCH  12  16
ENDBRANCH   4   8
BRANCH   7  19
ATOM     19  C   UNL     1       3.552   6.450  18.179  0.00  0.00    +0.000 A 
ATOM     20  C   UNL     1       3.404   5.138  17.705  0.00  0.00    +0.000 A 
ATOM     21  C   UNL     1       4.363   4.566  16.864  0.00  0.00    +0.000 A 
ATOM     22  C   UNL     1       5.454   5.328  16.447  0.00  0.00    +0.000 A 
ATOM     23  C   UNL     1       5.607   6.643  16.885  0.00  0.00    +0.000 A 
ATOM     24  C   UNL     1       4.664   7.195  17.758  0.00  0.00    +0.000 A 
BRANCH  22  25
ATOM     25  S   UNL     1       6.664   4.599  15.390  0.00  0.00    +0.000 S 
ATOM     26  O   UNL     1       6.090   3.454  14.725  0.00  0.00    +0.000 OA
ATOM     27  O   UNL     1       7.363   5.641  14.679  0.00  0.00    +0.000 OA
BRANCH  25  28
ATOM     28  N   UNL     1       7.754   3.985  16.508  0.00  0.00    +0.000 NA
ATOM     29  H   UNL     1       8.669   3.868  16.070  0.00  0.00    +0.000 HD
ATOM     30  H   UNL     1       7.763   4.573  17.341  0.00  0.00    +0.000 HD
ENDBRANCH  25  28
ENDBRANCH  22  25
ENDBRANCH   7  19
TORSDOF 5
ENDMDL
MODEL 8
REMARK VINA RESULT:      -7.5      4.586      9.862
REMARK  Name = 
REMARK  7 active torsions:
REMARK  status: ('A' for Active; 'I' for Inactive)
REMARK    1  A    between atoms: C_1  and  C_2
REMARK    2  A    between atoms: C_4  and  C_5
REMARK    3  A    between atoms: N_9  and  C_10
REMARK    4  A    between atoms: C_15  and  C_16
REMARK    5  A    between atoms: N_17  and  C_18
REMARK    6  A    between atoms: C_21  and  S_22
REMARK    7  A    between atoms: S_22  and  N_23
REMARK                            x       y       z     vdW  Elec       q    Type
REMARK                         _______ _______ _______ _____ _____    ______ ____
ROOT
ATOM      1  C   UNL     1      -0.367   8.963  22.699  0.00  0.00    +0.000 C 
ATOM      2  C   UNL     1       0.525   8.892  21.505  0.00  0.00    +0.000 A 
ATOM      3  C   UNL     1       1.279   7.799  21.135  0.00  0.00    +0.000 A 
ATOM      4  C   UNL     1       1.829   8.034  19.853  0.00  0.00    +0.000 A 
ATOM      5  C   UNL     1       1.457   9.328  19.491  0.00  0.00    +0.000 A 
ATOM      6  C   UNL     1       1.863  10.080  18.259  0.00  0.00    +0.000 C 
ATOM      7  N   UNL     1       0.652   9.867  20.512  0.00  0.00    +0.000 N 
ENDROOT
BRANCH   4   8
ATOM      8  C   UNL     1       2.611   7.066  19.079  0.00  0.00    +0.000 C 
ATOM      9  N   UNL     1       3.393   7.508  18.144  0.00  0.00    +0.000 NA
ATOM     10  N   UNL     1       4.201   6.616  17.420  0.00  0.00    +0.000 NA
ATOM     11  C   UNL     1       3.850   5.383  17.211  0.00  0.00    +0.000 C 
ATOM     12  N   UNL     1       4.546   4.470  16.459  0.00  0.00    +0.000 N 
ATOM     13  S   UNL     1       2.418   4.656  17.916  0.00  0.00    +0.000 S 
ATOM     14  C   UNL     1       2.496   5.610  19.438  0.00  0.00    +0.000 C 
ATOM     15  H   UNL     1       4.033   3.607  16.325  0.00  0.00    +0.000 HD
BRANCH  12  16
ATOM     16  C   UNL     1       5.394   4.937  15.365  0.00  0.00    +0.000 C 
ATOM     17  C   UNL     1       6.860   4.602  15.349  0.00  0.00    +0.000 C 
ATOM     18  C   UNL     1       5.933   3.959  14.359  0.00  0.00    +0.000 C 
ENDBRANCH  12  16
ENDBRANCH   4   8
BRANCH   7  19
ATOM     19  C   UNL     1       0.055  11.175  20.536  0.00  0.00    +0.000 A 
ATOM     20  C   UNL     1      -1.201  11.403  19.954  0.00  0.00    +0.000 A 
ATOM     21  C   UNL     1      -1.755  12.685  19.921  0.00  0.00    +0.000 A 
ATOM     22  C   UNL     1      -1.075  13.743  20.522  0.00  0.00    +0.000 A 
ATOM     23  C   UNL     1       0.163  13.535  21.130  0.00  0.00    +0.000 A 
ATOM     24  C   UNL     1       0.729  12.256  21.124  0.00  0.00    +0.000 A 
BRANCH  22  25
ATOM     25  S   UNL     1      -1.777  15.362  20.473  0.00  0.00    +0.000 S 
ATOM     26  O   UNL     1      -1.172  16.113  19.399  0.00  0.00    +0.000 OA
ATOM     27  O   UNL     1      -3.204  15.265  20.646  0.00  0.00    +0.000 OA
BRANCH  25  28
ATOM     28  N   UNL     1      -1.179  16.026  21.894  0.00  0.00    +0.000 NA
ATOM     29  H   UNL     1      -0.704  16.906  21.690  0.00  0.00    +0.000 HD
ATOM     30  H   UNL     1      -1.928  16.105  22.581  0.00  0.00    +0.000 HD
ENDBRANCH  25  28
ENDBRANCH  22  25
ENDBRANCH   7  19
TORSDOF 5
ENDMDL
MODEL 9
REMARK VINA RESULT:      -7.5      5.157     10.419
REMARK  Name = 
REMARK  7 active torsions:
REMARK  status: ('A' for Active; 'I' for Inactive)
REMARK    1  A    between atoms: C_1  and  C_2
REMARK    2  A    between atoms: C_4  and  C_5
REMARK    3  A    between atoms: N_9  and  C_10
REMARK    4  A    between atoms: C_15  and  C_16
REMARK    5  A    between atoms: N_17  and  C_18
REMARK    6  A    between atoms: C_21  and  S_22
REMARK    7  A    between atoms: S_22  and  N_23
REMARK                            x       y       z     vdW  Elec       q    Type
REMARK                         _______ _______ _______ _____ _____    ______ ____
ROOT
ATOM      1  C   UNL     1      -1.341  12.014  18.319  0.00  0.00    +0.000 C 
ATOM      2  C   UNL     1      -0.465  11.007  18.989  0.00  0.00    +0.000 A 
ATOM      3  C   UNL     1       0.174   9.961  18.361  0.00  0.00    +0.000 A 
ATOM      4  C   UNL     1       1.066   9.352  19.275  0.00  0.00    +0.000 A 
ATOM      5  C   UNL     1       0.891  10.004  20.495  0.00  0.00    +0.000 A 
ATOM      6  C   UNL     1       1.542   9.673  21.805  0.00  0.00    +0.000 C 
ATOM      7  N   UNL     1      -0.059  11.029  20.326  0.00  0.00    +0.000 N 
ENDROOT
BRANCH   4   8
ATOM      8  C   UNL     1       1.994   8.266  18.954  0.00  0.00    +0.000 C 
ATOM      9  N   UNL     1       2.667   8.333  17.846  0.00  0.00    +0.000 NA
ATOM     10  N   UNL     1       3.609   7.340  17.532  0.00  0.00    +0.000 NA
ATOM     11  C   UNL     1       3.482   6.115  17.944  0.00  0.00    +0.000 C 
ATOM     12  N   UNL     1       4.317   5.074  17.625  0.00  0.00    +0.000 N 
ATOM     13  S   UNL     1       2.218   5.594  19.042  0.00  0.00    +0.000 S 
ATOM     14  C   UNL     1       2.151   7.147  19.946  0.00  0.00    +0.000 C 
ATOM     15  H   UNL     1       3.966   4.182  17.951  0.00  0.00    +0.000 HD
BRANCH  12  16
ATOM     16  C   UNL     1       5.047   5.099  16.360  0.00  0.00    +0.000 C 
ATOM     17  C   UNL     1       6.466   5.593  16.315  0.00  0.00    +0.000 C 
ATOM     18  C   UNL     1       6.174   4.134  16.120  0.00  0.00    +0.000 C 
ENDBRANCH  12  16
ENDBRANCH   4   8
BRANCH   7  19
ATOM     19  C   UNL     1      -0.526  11.942  21.333  0.00  0.00    +0.000 A 
ATOM     20  C   UNL     1      -1.609  11.609  22.161  0.00  0.00    +0.000 A 
ATOM     21  C   UNL     1      -2.104  12.520  23.097  0.00  0.00    +0.000 A 
ATOM     22  C   UNL     1      -1.479  13.757  23.249  0.00  0.00    +0.000 A 
ATOM     23  C   UNL     1      -0.386  14.100  22.456  0.00  0.00    +0.000 A 
ATOM     24  C   UNL     1       0.079  13.198  21.493  0.00  0.00    +0.000 A 
BRANCH  22  25
ATOM     25  S   UNL     1      -2.112  14.906  24.430  0.00  0.00    +0.000 S 
ATOM     26  O   UNL     1      -1.119  15.137  25.452  0.00  0.00    +0.000 OA
ATOM     27  O   UNL     1      -2.779  15.980  23.737  0.00  0.00    +0.000 OA
BRANCH  25  28
ATOM     28  N   UNL     1      -3.322  14.000  25.159  0.00  0.00    +0.000 NA
ATOM     29  H   UNL     1      -3.071  13.805  26.128  0.00  0.00    +0.000 HD
ATOM     30  H   UNL     1      -4.221  14.468  25.046  0.00  0.00    +0.000 HD
ENDBRANCH  25  28
ENDBRANCH  22  25
ENDBRANCH   7  19
TORSDOF 5
ENDMDL
