MODEL 1
REMARK VINA RESULT:      -8.0      0.000      0.000
REMARK  Name = 
REMARK  10 active torsions:
REMARK  status: ('A' for Active; 'I' for Inactive)
REMARK    1  A    between atoms: O_1  and  C_2
REMARK    2  A    between atoms: C_2  and  C_3
REMARK    3  A    between atoms: C_3  and  C_4
REMARK    4  A    between atoms: C_4  and  C_5
REMARK    5  A    between atoms: C_6  and  C_7
REMARK    6  A    between atoms: C_10  and  O_11
REMARK    7  A    between atoms: O_11  and  C_12
REMARK    8  A    between atoms: C_12  and  C_13
REMARK    9  A    between atoms: C_13  and  C_14
REMARK   10  A    between atoms: C_14  and  C_15
REMARK                            x       y       z     vdW  Elec       q    Type
REMARK                         _______ _______ _______ _____ _____    ______ ____
ROOT
ATOM      1  C   UNL     1       4.033   4.496  17.271  0.00  0.00    +0.000 C 
ENDROOT
BRANCH   1   2
ATOM      2  C   UNL     1       3.206   4.545  18.612  0.00  0.00    +0.000 C 
ATOM      3  C   UNL     1       3.525   3.298  19.493  0.00  0.00    +0.000 C 
ATOM      4  C   UNL     1       2.914   1.981  19.008  0.00  0.00    +0.000 C 
ATOM      5  C   UNL     1       1.439   2.164  18.663  0.00  0.00    +0.000 C 
ATOM      6  N   UNL     1       1.228   3.267  17.721  0.00  0.00    +0.000 NA
ATOM      7  C   UNL     1       1.689   4.536  18.292  0.00  0.00    +0.000 C 
ATOM      8  H   UNL     1       0.223   3.340  17.534  0.00  0.00    +0.000 HD
BRANCH   2   9
ATOM      9  C   UNL     1       3.585   5.886  19.369  0.00  0.00    +0.000 C 
BRANCH   9  10
ATOM     10  C   UNL     1       2.638   7.061  19.155  0.00  0.00    +0.000 A 
ATOM     11  C   UNL     1       2.653   7.774  17.949  0.00  0.00    +0.000 A 
ATOM     12  C   UNL     1       2.060   9.037  17.855  0.00  0.00    +0.000 A 
ATOM     13  C   UNL     1       1.361   9.558  18.941  0.00  0.00    +0.000 A 
ATOM     14  C   UNL     1       1.209   8.788  20.088  0.00  0.00    +0.000 A 
ATOM     15 CL   UNL     1       0.290   9.401  21.409  0.00  0.00    +0.000 Cl
ATOM     16  C   UNL     1       1.830   7.539  20.200  0.00  0.00    +0.000 A 
ENDBRANCH   9  10
ENDBRANCH   2   9
ENDBRANCH   1   2
BRANCH   1  17
ATOM     17  O   UNL     1       5.418   4.270  17.585  0.00  0.00    +0.000 OA
BRANCH  17  21
ATOM     18  C   UNL     1       7.770   7.628  17.937  0.00  0.00    +0.000 A 
ATOM     19  C   UNL     1       6.838   7.535  16.913  0.00  0.00    +0.000 A 
ATOM     20  C   UNL     1       6.075   6.368  16.835  0.00  0.00    +0.000 A 
ATOM     21  C   UNL     1       6.279   5.334  17.736  0.00  0.00    +0.000 A 
ATOM     22  C   UNL     1       7.294   5.488  18.674  0.00  0.00    +0.000 A 
ATOM     23  N   UNL     1       8.036   6.624  18.801  0.00  0.00    +0.000 NA
BRANCH  18  25
ATOM     24  C   UNL     1       8.993  10.009  18.497  0.00  0.00    +0.000 C 
ATOM     25  C   UNL     1       8.435   8.869  18.200  0.00  0.00    +0.000 C 
BRANCH  24  26
ATOM     26  C   UNL     1       9.644  11.338  18.841  0.00  0.00    +0.000 C 
BRANCH  26  27
ATOM     27  C   UNL     1       9.141  12.435  17.904  0.00  0.00    +0.000 C 
BRANCH  27  28
ATOM     28  C   UNL     1       9.300  13.806  18.542  0.00  0.00    +0.000 C 
BRANCH  28  29
ATOM     29  O   UNL     1       8.296  13.985  19.532  0.00  0.00    +0.000 OA
ATOM     30  H   UNL     1       8.664  14.571  20.213  0.00  0.00    +0.000 HD
ENDBRANCH  28  29
ENDBRANCH  27  28
ENDBRANCH  26  27
ENDBRANCH  24  26
ENDBRANCH  18  25
ENDBRANCH  17  21
ENDBRANCH   1  17
TORSDOF 10
ENDMDL
MODEL 2
REMARK VINA RESULT:      -8.0      0.917      1.002
REMARK  Name = 
REMARK  10 active torsions:
REMARK  status: ('A' for Active; 'I' for Inactive)
REMARK    1  A    between atoms: O_1  and  C_2
REMARK    2  A    between atoms: C_2  and  C_3
REMARK    3  A    between atoms: C_3  and  C_4
REMARK    4  A    between atoms: C_4  and  C_5
REMARK    5  A    between atoms: C_6  and  C_7
REMARK    6  A    between atoms: C_10  and  O_11
REMARK    7  A    between atoms: O_11  and  C_12
REMARK    8  A    between atoms: C_12  and  C_13
REMARK    9  A    between atoms: C_13  and  C_14
REMARK   10  A    between atoms: C_14  and  C_15
REMARK                            x       y       z     vdW  Elec       q    Type
REMARK                         _______ _______ _______ _____ _____    ______ ____
ROOT
ATOM      1  C   UNL     1       4.294   3.724  19.312  0.00  0.00    +0.000 C 
ENDROOT
BRANCH   1   2
ATOM      2  C   UNL     1       2.985   4.594  19.428  0.00  0.00    +0.000 C 
ATOM      3  C   UNL     1       2.025   3.993  20.500  0.00  0.00    +0.000 C 
ATOM      4  C   UNL     1       1.297   2.712  20.082  0.00  0.00    +0.000 C 
ATOM      5  C   UNL     1       0.692   2.865  18.689  0.00  0.00    +0.000 C 
ATOM      6  N   UNL     1       1.684   3.301  17.702  0.00  0.00    +0.000 NA
ATOM      7  C   UNL     1       2.243   4.607  18.067  0.00  0.00    +0.000 C 
ATOM      8  H   UNL     1       1.216   3.388  16.796  0.00  0.00    +0.000 HD
BRANCH   2   9
ATOM      9  C   UNL     1       3.414   6.071  19.816  0.00  0.00    +0.000 C 
BRANCH   9  10
ATOM     10  C   UNL     1       2.430   7.171  19.435  0.00  0.00    +0.000 A 
ATOM     11  C   UNL     1       2.431   7.706  18.141  0.00  0.00    +0.000 A 
ATOM     12  C   UNL     1       1.797   8.922  17.866  0.00  0.00    +0.000 A 
ATOM     13  C   UNL     1       1.073   9.568  18.866  0.00  0.00    +0.000 A 
ATOM     14  C   UNL     1       0.940   8.964  20.110  0.00  0.00    +0.000 A 
ATOM     15 CL   UNL     1      -0.008   9.727  21.329  0.00  0.00    +0.000 Cl
ATOM     16  C   UNL     1       1.600   7.765  20.400  0.00  0.00    +0.000 A 
ENDBRANCH   9  10
ENDBRANCH   2   9
ENDBRANCH   1   2
BRANCH   1  17
ATOM     17  O   UNL     1       4.962   4.049  18.080  0.00  0.00    +0.000 OA
BRANCH  17  21
ATOM     18  C   UNL     1       7.468   7.305  17.859  0.00  0.00    +0.000 A 
ATOM     19  C   UNL     1       6.410   7.180  16.970  0.00  0.00    +0.000 A 
ATOM     20  C   UNL     1       5.598   6.049  17.084  0.00  0.00    +0.000 A 
ATOM     21  C   UNL     1       5.876   5.078  18.035  0.00  0.00    +0.000 A 
ATOM     22  C   UNL     1       7.008   5.253  18.823  0.00  0.00    +0.000 A 
ATOM     23  N   UNL     1       7.803   6.358  18.763  0.00  0.00    +0.000 NA
BRANCH  18  25
ATOM     24  C   UNL     1       8.863   9.648  18.076  0.00  0.00    +0.000 C 
ATOM     25  C   UNL     1       8.209   8.529  17.935  0.00  0.00    +0.000 C 
BRANCH  24  26
ATOM     26  C   UNL     1       9.625  10.952  18.238  0.00  0.00    +0.000 C 
BRANCH  26  27
ATOM     27  C   UNL     1       8.878  11.889  19.187  0.00  0.00    +0.000 C 
BRANCH  27  28
ATOM     28  C   UNL     1       8.826  13.300  18.624  0.00  0.00    +0.000 C 
BRANCH  28  29
ATOM     29  O   UNL     1       8.775  13.240  17.205  0.00  0.00    +0.000 OA
ATOM     30  H   UNL     1       7.917  12.856  16.964  0.00  0.00    +0.000 HD
ENDBRANCH  28  29
ENDBRANCH  27  28
ENDBRANCH  26  27
ENDBRANCH  24  26
ENDBRANCH  18  25
ENDBRANCH  17  21
ENDBRANCH   1  17
TORSDOF 10
ENDMDL
MODEL 3
REMARK VINA RESULT:      -7.8      4.752      7.927
REMARK  Name = 
REMARK  10 active torsions:
REMARK  status: ('A' for Active; 'I' for Inactive)
REMARK    1  A    between atoms: O_1  and  C_2
REMARK    2  A    between atoms: C_2  and  C_3
REMARK    3  A    between atoms: C_3  and  C_4
REMARK    4  A    between atoms: C_4  and  C_5
REMARK    5  A    between atoms: C_6  and  C_7
REMARK    6  A    between atoms: C_10  and  O_11
REMARK    7  A    between atoms: O_11  and  C_12
REMARK    8  A    between atoms: C_12  and  C_13
REMARK    9  A    between atoms: C_13  and  C_14
REMARK   10  A    between atoms: C_14  and  C_15
REMARK                            x       y       z     vdW  Elec       q    Type
REMARK                         _______ _______ _______ _____ _____    ______ ____
ROOT
ATOM      1  C   UNL     1       2.263   5.577  19.861  0.00  0.00    +0.000 C 
ENDROOT
BRANCH   1   2
ATOM      2  C   UNL     1       2.748   4.786  18.587  0.00  0.00    +0.000 C 
ATOM      3  C   UNL     1       1.539   4.102  17.878  0.00  0.00    +0.000 C 
ATOM      4  C   UNL     1       0.972   2.871  18.592  0.00  0.00    +0.000 C 
ATOM      5  C   UNL     1       2.094   1.924  19.007  0.00  0.00    +0.000 C 
ATOM      6  N   UNL     1       3.129   2.606  19.790  0.00  0.00    +0.000 NA
ATOM      7  C   UNL     1       3.750   3.680  19.008  0.00  0.00    +0.000 C 
ATOM      8  H   UNL     1       3.850   1.921  20.032  0.00  0.00    +0.000 HD
BRANCH   2   9
ATOM      9  C   UNL     1       3.465   5.815  17.617  0.00  0.00    +0.000 C 
BRANCH   9  10
ATOM     10  C   UNL     1       4.815   5.377  17.062  0.00  0.00    +0.000 A 
ATOM     11  C   UNL     1       6.004   5.809  17.664  0.00  0.00    +0.000 A 
ATOM     12  C   UNL     1       7.226   5.712  16.991  0.00  0.00    +0.000 A 
ATOM     13  C   UNL     1       7.284   5.093  15.745  0.00  0.00    +0.000 A 
ATOM     14  C   UNL     1       6.134   4.524  15.211  0.00  0.00    +0.000 A 
ATOM     15 CL   UNL     1       6.214   3.701  13.700  0.00  0.00    +0.000 Cl
ATOM     16  C   UNL     1       4.903   4.649  15.864  0.00  0.00    +0.000 A 
ENDBRANCH   9  10
ENDBRANCH   2   9
ENDBRANCH   1   2
BRANCH   1  17
ATOM     17  O   UNL     1       2.613   6.964  19.709  0.00  0.00    +0.000 OA
BRANCH  17  21
ATOM     18  C   UNL     1       0.070   9.829  21.210  0.00  0.00    +0.000 A 
ATOM     19  C   UNL     1       0.214   8.615  21.866  0.00  0.00    +0.000 A 
ATOM     20  C   UNL     1       1.083   7.675  21.306  0.00  0.00    +0.000 A 
ATOM     21  C   UNL     1       1.742   7.949  20.116  0.00  0.00    +0.000 A 
ATOM     22  C   UNL     1       1.466   9.161  19.492  0.00  0.00    +0.000 A 
ATOM     23  N   UNL     1       0.651  10.114  20.025  0.00  0.00    +0.000 NA
BRANCH  18  25
ATOM     24  C   UNL     1      -1.281  11.850  22.464  0.00  0.00    +0.000 C 
ATOM     25  C   UNL     1      -0.637  10.908  21.834  0.00  0.00    +0.000 C 
BRANCH  24  26
ATOM     26  C   UNL     1      -2.032  12.948  23.198  0.00  0.00    +0.000 C 
BRANCH  26  27
ATOM     27  C   UNL     1      -3.529  12.643  23.222  0.00  0.00    +0.000 C 
BRANCH  27  28
ATOM     28  C   UNL     1      -4.106  12.879  24.609  0.00  0.00    +0.000 C 
BRANCH  28  29
ATOM     29  O   UNL     1      -4.924  11.775  24.974  0.00  0.00    +0.000 OA
ATOM     30  H   UNL     1      -4.332  11.031  25.166  0.00  0.00    +0.000 HD
ENDBRANCH  28  29
ENDBRANCH  27  28
ENDBRANCH  26  27
ENDBRANCH  24  26
ENDBRANCH  18  25
ENDBRANCH  17  21
ENDBRANCH   1  17
TORSDOF 10
ENDMDL
MODEL 4
REMARK VINA RESULT:      -7.7      4.567      7.765
REMARK  Name = 
REMARK  10 active torsions:
REMARK  status: ('A' for Active; 'I' for Inactive)
REMARK    1  A    between atoms: O_1  and  C_2
REMARK    2  A    between atoms: C_2  and  C_3
REMARK    3  A    between atoms: C_3  and  C_4
REMARK    4  A    between atoms: C_4  and  C_5
REMARK    5  A    between atoms: C_6  and  C_7
REMARK    6  A    between atoms: C_10  and  O_11
REMARK    7  A    between atoms: O_11  and  C_12
REMARK    8  A    between atoms: C_12  and  C_13
REMARK    9  A    between atoms: C_13  and  C_14
REMARK   10  A    between atoms: C_14  and  C_15
REMARK                            x       y       z     vdW  Elec       q    Type
REMARK                         _______ _______ _______ _____ _____    ______ ____
ROOT
ATOM      1  C   UNL     1       2.573   5.853  19.912  0.00  0.00    +0.000 C 
ENDROOT
BRANCH   1   2
ATOM      2  C   UNL     1       2.696   4.827  18.722  0.00  0.00    +0.000 C 
ATOM      3  C   UNL     1       1.334   4.105  18.483  0.00  0.00    +0.000 C 
ATOM      4  C   UNL     1       0.960   3.051  19.529  0.00  0.00    +0.000 C 
ATOM      5  C   UNL     1       2.139   2.124  19.808  0.00  0.00    +0.000 C 
ATOM      6  N   UNL     1       3.353   2.867  20.162  0.00  0.00    +0.000 NA
ATOM      7  C   UNL     1       3.760   3.752  19.065  0.00  0.00    +0.000 C 
ATOM      8  H   UNL     1       4.103   2.192  20.331  0.00  0.00    +0.000 HD
BRANCH   2   9
ATOM      9  C   UNL     1       3.146   5.630  17.431  0.00  0.00    +0.000 C 
BRANCH   9  10
ATOM     10  C   UNL     1       4.623   5.532  17.068  0.00  0.00    +0.000 A 
ATOM     11  C   UNL     1       5.079   4.517  16.217  0.00  0.00    +0.000 A 
ATOM     12  C   UNL     1       6.439   4.198  16.144  0.00  0.00    +0.000 A 
ATOM     13  C   UNL     1       7.368   4.956  16.852  0.00  0.00    +0.000 A 
ATOM     14  C   UNL     1       6.937   6.062  17.575  0.00  0.00    +0.000 A 
ATOM     15 CL   UNL     1       8.090   7.041  18.398  0.00  0.00    +0.000 Cl
ATOM     16  C   UNL     1       5.575   6.364  17.679  0.00  0.00    +0.000 A 
ENDBRANCH   9  10
ENDBRANCH   2   9
ENDBRANCH   1   2
BRANCH   1  17
ATOM     17  O   UNL     1       2.569   7.188  19.378  0.00  0.00    +0.000 OA
BRANCH  17  21
ATOM     18  C   UNL     1       0.094   9.948  21.163  0.00  0.00    +0.000 A 
ATOM     19  C   UNL     1       0.384   8.754  21.807  0.00  0.00    +0.000 A 
ATOM     20  C   UNL     1       1.221   7.850  21.150  0.00  0.00    +0.000 A 
ATOM     21  C   UNL     1       1.707   8.136  19.883  0.00  0.00    +0.000 A 
ATOM     22  C   UNL     1       1.291   9.321  19.286  0.00  0.00    +0.000 A 
ATOM     23  N   UNL     1       0.503  10.241  19.909  0.00  0.00    +0.000 NA
BRANCH  18  25
ATOM     24  C   UNL     1      -1.259  11.917  22.495  0.00  0.00    +0.000 C 
ATOM     25  C   UNL     1      -0.582  11.002  21.860  0.00  0.00    +0.000 C 
BRANCH  24  26
ATOM     26  C   UNL     1      -2.047  12.985  23.236  0.00  0.00    +0.000 C 
BRANCH  26  27
ATOM     27  C   UNL     1      -3.524  12.601  23.307  0.00  0.00    +0.000 C 
BRANCH  27  28
ATOM     28  C   UNL     1      -4.120  12.993  24.649  0.00  0.00    +0.000 C 
BRANCH  28  29
ATOM     29  O   UNL     1      -4.919  11.925  25.141  0.00  0.00    +0.000 OA
ATOM     30  H   UNL     1      -4.807  11.178  24.531  0.00  0.00    +0.000 HD
ENDBRANCH  28  29
ENDBRANCH  27  28
ENDBRANCH  26  27
ENDBRANCH  24  26
ENDBRANCH  18  25
ENDBRANCH  17  21
ENDBRANCH   1  17
TORSDOF 10
ENDMDL
MODEL 5
REMARK VINA RESULT:      -7.7      3.858      7.317
REMARK  Name = 
REMARK  10 active torsions:
REMARK  status: ('A' for Active; 'I' for Inactive)
REMARK    1  A    between atoms: O_1  and  C_2
REMARK    2  A    between atoms: C_2  and  C_3
REMARK    3  A    between atoms: C_3  and  C_4
REMARK    4  A    between atoms: C_4  and  C_5
REMARK    5  A    between atoms: C_6  and  C_7
REMARK    6  A    between atoms: C_10  and  O_11
REMARK    7  A    between atoms: O_11  and  C_12
REMARK    8  A    between atoms: C_12  and  C_13
REMARK    9  A    between atoms: C_13  and  C_14
REMARK   10  A    between atoms: C_14  and  C_15
REMARK                            x       y       z     vdW  Elec       q    Type
REMARK                         _______ _______ _______ _____ _____    ______ ____
ROOT
ATOM      1  C   UNL     1       4.181   5.880  18.701  0.00  0.00    +0.000 C 
ENDROOT
BRANCH   1   2
ATOM      2  C   UNL     1       5.104   5.147  17.655  0.00  0.00    +0.000 C 
ATOM      3  C   UNL     1       6.484   4.801  18.296  0.00  0.00    +0.000 C 
ATOM      4  C   UNL     1       7.428   5.989  18.497  0.00  0.00    +0.000 C 
ATOM      5  C   UNL     1       7.502   6.842  17.234  0.00  0.00    +0.000 C 
ATOM      6  N   UNL     1       6.173   7.247  16.766  0.00  0.00    +0.000 NA
ATOM      7  C   UNL     1       5.355   6.075  16.438  0.00  0.00    +0.000 C 
ATOM      8  H   UNL     1       6.290   7.809  15.918  0.00  0.00    +0.000 HD
BRANCH   2   9
ATOM      9  C   UNL     1       4.355   3.833  17.179  0.00  0.00    +0.000 C 
BRANCH   9  10
ATOM     10  C   UNL     1       3.171   3.397  18.035  0.00  0.00    +0.000 A 
ATOM     11  C   UNL     1       1.862   3.521  17.550  0.00  0.00    +0.000 A 
ATOM     12  C   UNL     1       0.767   3.458  18.418  0.00  0.00    +0.000 A 
ATOM     13  C   UNL     1       0.966   3.174  19.766  0.00  0.00    +0.000 A 
ATOM     14  C   UNL     1       2.248   2.896  20.223  0.00  0.00    +0.000 A 
ATOM     15 CL   UNL     1       2.490   2.480  21.877  0.00  0.00    +0.000 Cl
ATOM     16  C   UNL     1       3.351   2.992  19.367  0.00  0.00    +0.000 A 
ENDBRANCH   9  10
ENDBRANCH   2   9
ENDBRANCH   1   2
BRANCH   1  17
ATOM     17  O   UNL     1       3.447   6.918  18.028  0.00  0.00    +0.000 OA
BRANCH  17  21
ATOM     18  C   UNL     1       0.824   9.090  20.337  0.00  0.00    +0.000 A 
ATOM     19  C   UNL     1       1.329   7.885  20.805  0.00  0.00    +0.000 A 
ATOM     20  C   UNL     1       2.207   7.185  19.974  0.00  0.00    +0.000 A 
ATOM     21  C   UNL     1       2.524   7.674  18.715  0.00  0.00    +0.000 A 
ATOM     22  C   UNL     1       1.900   8.846  18.304  0.00  0.00    +0.000 A 
ATOM     23  N   UNL     1       1.065   9.573  19.098  0.00  0.00    +0.000 NA
BRANCH  18  25
ATOM     24  C   UNL     1      -0.515  10.766  22.034  0.00  0.00    +0.000 C 
ATOM     25  C   UNL     1       0.089   9.954  21.211  0.00  0.00    +0.000 C 
BRANCH  24  26
ATOM     26  C   UNL     1      -1.219  11.712  22.993  0.00  0.00    +0.000 C 
BRANCH  26  27
ATOM     27  C   UNL     1      -2.481  12.280  22.346  0.00  0.00    +0.000 C 
BRANCH  27  28
ATOM     28  C   UNL     1      -3.539  12.578  23.397  0.00  0.00    +0.000 C 
BRANCH  28  29
ATOM     29  O   UNL     1      -4.213  13.784  23.060  0.00  0.00    +0.000 OA
ATOM     30  H   UNL     1      -3.533  14.457  22.897  0.00  0.00    +0.000 HD
ENDBRANCH  28  29
ENDBRANCH  27  28
ENDBRANCH  26  27
ENDBRANCH  24  26
ENDBRANCH  18  25
ENDBRANCH  17  21
ENDBRANCH   1  17
TORSDOF 10
ENDMDL
MODEL 6
REMARK VINA RESULT:      -7.6      4.180      6.671
REMARK  Name = 
REMARK  10 active torsions:
REMARK  status: ('A' for Active; 'I' for Inactive)
REMARK    1  A    between atoms: O_1  and  C_2
REMARK    2  A    between atoms: C_2  and  C_3
REMARK    3  A    between atoms: C_3  and  C_4
REMARK    4  A    between atoms: C_4  and  C_5
REMARK    5  A    between atoms: C_6  and  C_7
REMARK    6  A    between atoms: C_10  and  O_11
REMARK    7  A    between atoms: O_11  and  C_12
REMARK    8  A    between atoms: C_12  and  C_13
REMARK    9  A    between atoms: C_13  and  C_14
REMARK   10  A    between atoms: C_14  and  C_15
REMARK                            x       y       z     vdW  Elec       q    Type
REMARK                         _______ _______ _______ _____ _____    ______ ____
ROOT
ATOM      1  C   UNL     1       2.288   4.996  18.026  0.00  0.00    +0.000 C 
ENDROOT
BRANCH   1   2
ATOM      2  C   UNL     1       2.756   3.580  18.536  0.00  0.00    +0.000 C 
ATOM      3  C   UNL     1       1.548   2.594  18.589  0.00  0.00    +0.000 C 
ATOM      4  C   UNL     1       0.562   2.830  19.738  0.00  0.00    +0.000 C 
ATOM      5  C   UNL     1       1.304   3.011  21.059  0.00  0.00    +0.000 C 
ATOM      6  N   UNL     1       2.334   4.051  20.973  0.00  0.00    +0.000 NA
ATOM      7  C   UNL     1       3.342   3.706  19.965  0.00  0.00    +0.000 C 
ATOM      8  H   UNL     1       2.795   4.120  21.885  0.00  0.00    +0.000 HD
BRANCH   2   9
ATOM      9  C   UNL     1       3.875   3.051  17.544  0.00  0.00    +0.000 C 
BRANCH   9  10
ATOM     10  C   UNL     1       4.947   4.060  17.153  0.00  0.00    +0.000 A 
ATOM     11  C   UNL     1       5.153   4.390  15.807  0.00  0.00    +0.000 A 
ATOM     12  C   UNL     1       6.327   5.030  15.396  0.00  0.00    +0.000 A 
ATOM     13  C   UNL     1       7.265   5.432  16.343  0.00  0.00    +0.000 A 
ATOM     14  C   UNL     1       6.995   5.246  17.693  0.00  0.00    +0.000 A 
ATOM     15 CL   UNL     1       8.123   5.801  18.871  0.00  0.00    +0.000 Cl
ATOM     16  C   UNL     1       5.839   4.576  18.107  0.00  0.00    +0.000 A 
ENDBRANCH   9  10
ENDBRANCH   2   9
ENDBRANCH   1   2
BRANCH   1  17
ATOM     17  O   UNL     1       2.967   6.012  18.784  0.00  0.00    +0.000 OA
BRANCH  17  21
ATOM     18  C   UNL     1       1.008   9.592  19.310  0.00  0.00    +0.000 A 
ATOM     19  C   UNL     1       1.582   9.286  18.084  0.00  0.00    +0.000 A 
ATOM     20  C   UNL     1       2.243   8.062  17.966  0.00  0.00    +0.000 A 
ATOM     21  C   UNL     1       2.345   7.210  19.055  0.00  0.00    +0.000 A 
ATOM     22  C   UNL     1       1.811   7.643  20.264  0.00  0.00    +0.000 A 
ATOM     23  N   UNL     1       1.130   8.815  20.408  0.00  0.00    +0.000 NA
BRANCH  18  25
ATOM     24  C   UNL     1      -0.652  11.741  19.634  0.00  0.00    +0.000 C 
ATOM     25  C   UNL     1       0.143  10.726  19.442  0.00  0.00    +0.000 C 
BRANCH  24  26
ATOM     26  C   UNL     1      -1.580  12.923  19.857  0.00  0.00    +0.000 C 
BRANCH  26  27
ATOM     27  C   UNL     1      -1.647  13.273  21.343  0.00  0.00    +0.000 C 
BRANCH  27  28
ATOM     28  C   UNL     1      -1.754  12.015  22.190  0.00  0.00    +0.000 C 
BRANCH  28  29
ATOM     29  O   UNL     1      -0.661  11.963  23.097  0.00  0.00    +0.000 OA
ATOM     30  H   UNL     1      -0.948  11.441  23.863  0.00  0.00    +0.000 HD
ENDBRANCH  28  29
ENDBRANCH  27  28
ENDBRANCH  26  27
ENDBRANCH  24  26
ENDBRANCH  18  25
ENDBRANCH  17  21
ENDBRANCH   1  17
TORSDOF 10
ENDMDL
MODEL 7
REMARK VINA RESULT:      -7.5      5.220      8.481
REMARK  Name = 
REMARK  10 active torsions:
REMARK  status: ('A' for Active; 'I' for Inactive)
REMARK    1  A    between atoms: O_1  and  C_2
REMARK    2  A    between atoms: C_2  and  C_3
REMARK    3  A    between atoms: C_3  and  C_4
REMARK    4  A    between atoms: C_4  and  C_5
REMARK    5  A    between atoms: C_6  and  C_7
REMARK    6  A    between atoms: C_10  and  O_11
REMARK    7  A    between atoms: O_11  and  C_12
REMARK    8  A    between atoms: C_12  and  C_13
REMARK    9  A    between atoms: C_13  and  C_14
REMARK   10  A    between atoms: C_14  and  C_15
REMARK                            x       y       z     vdW  Elec       q    Type
REMARK                         _______ _______ _______ _____ _____    ______ ____
ROOT
ATOM      1  C   UNL     1       1.820   7.145  19.083  0.00  0.00    +0.000 C 
ENDROOT
BRANCH   1   2
ATOM      2  C   UNL     1       2.812   5.997  18.653  0.00  0.00    +0.000 C 
ATOM      3  C   UNL     1       2.044   4.868  17.900  0.00  0.00    +0.000 C 
ATOM      4  C   UNL     1       1.174   3.968  18.781  0.00  0.00    +0.000 C 
ATOM      5  C   UNL     1       1.946   3.509  20.014  0.00  0.00    +0.000 C 
ATOM      6  N   UNL     1       2.526   4.635  20.752  0.00  0.00    +0.000 NA
ATOM      7  C   UNL     1       3.472   5.377  19.912  0.00  0.00    +0.000 C 
ATOM      8  H   UNL     1       3.032   4.261  21.560  0.00  0.00    +0.000 HD
BRANCH   2   9
ATOM      9  C   UNL     1       3.928   6.639  17.727  0.00  0.00    +0.000 C 
BRANCH   9  10
ATOM     10  C   UNL     1       5.036   5.698  17.271  0.00  0.00    +0.000 A 
ATOM     11  C   UNL     1       6.178   5.512  18.061  0.00  0.00    +0.000 A 
ATOM     12  C   UNL     1       7.338   4.942  17.524  0.00  0.00    +0.000 A 
ATOM     13  C   UNL     1       7.334   4.464  16.217  0.00  0.00    +0.000 A 
ATOM     14  C   UNL     1       6.156   4.504  15.479  0.00  0.00    +0.000 A 
ATOM     15 CL   UNL     1       6.130   3.854  13.884  0.00  0.00    +0.000 Cl
ATOM     16  C   UNL     1       5.005   5.104  15.999  0.00  0.00    +0.000 A 
ENDBRANCH   9  10
ENDBRANCH   2   9
ENDBRANCH   1   2
BRANCH   1  17
ATOM     17  O   UNL     1       2.135   7.555  20.425  0.00  0.00    +0.000 OA
BRANCH  17  21
ATOM     18  C   UNL     1      -0.181  10.566  22.005  0.00  0.00    +0.000 A 
ATOM     19  C   UNL     1      -0.194  10.323  20.639  0.00  0.00    +0.000 A 
ATOM     20  C   UNL     1       0.620   9.295  20.157  0.00  0.00    +0.000 A 
ATOM     21  C   UNL     1       1.433   8.577  21.022  0.00  0.00    +0.000 A 
ATOM     22  C   UNL     1       1.438   8.953  22.361  0.00  0.00    +0.000 A 
ATOM     23  N   UNL     1       0.634   9.926  22.872  0.00  0.00    +0.000 NA
BRANCH  18  25
ATOM     24  C   UNL     1      -2.043  12.272  23.056  0.00  0.00    +0.000 C 
ATOM     25  C   UNL     1      -1.138  11.457  22.590  0.00  0.00    +0.000 C 
BRANCH  24  26
ATOM     26  C   UNL     1      -3.096  13.222  23.600  0.00  0.00    +0.000 C 
BRANCH  26  27
ATOM     27  C   UNL     1      -4.174  12.446  24.354  0.00  0.00    +0.000 C 
BRANCH  27  28
ATOM     28  C   UNL     1      -5.562  12.918  23.952  0.00  0.00    +0.000 C 
BRANCH  28  29
ATOM     29  O   UNL     1      -6.500  11.874  24.179  0.00  0.00    +0.000 OA
ATOM     30  H   UNL     1      -7.057  12.145  24.926  0.00  0.00    +0.000 HD
ENDBRANCH  28  29
ENDBRANCH  27  28
ENDBRANCH  26  27
ENDBRANCH  24  26
ENDBRANCH  18  25
ENDBRANCH  17  21
ENDBRANCH   1  17
TORSDOF 10
ENDMDL
MODEL 8
REMARK VINA RESULT:      -7.5      3.474      6.728
REMARK  Name = 
REMARK  10 active torsions:
REMARK  status: ('A' for Active; 'I' for Inactive)
REMARK    1  A    between atoms: O_1  and  C_2
REMARK    2  A    between atoms: C_2  and  C_3
REMARK    3  A    between atoms: C_3  and  C_4
REMARK    4  A    between atoms: C_4  and  C_5
REMARK    5  A    between atoms: C_6  and  C_7
REMARK    6  A    between atoms: C_10  and  O_11
REMARK    7  A    between atoms: O_11  and  C_12
REMARK    8  A    between atoms: C_12  and  C_13
REMARK    9  A    between atoms: C_13  and  C_14
REMARK   10  A    between atoms: C_14  and  C_15
REMARK                            x       y       z     vdW  Elec       q    Type
REMARK                         _______ _______ _______ _____ _____    ______ ____
ROOT
ATOM      1  C   UNL     1       4.257   5.763  18.743  0.00  0.00    +0.000 C 
ENDROOT
BRANCH   1   2
ATOM      2  C   UNL     1       5.239   5.043  17.742  0.00  0.00    +0.000 C 
ATOM      3  C   UNL     1       6.661   4.916  18.371  0.00  0.00    +0.000 C 
ATOM      4  C   UNL     1       7.466   6.217  18.437  0.00  0.00    +0.000 C 
ATOM      5  C   UNL     1       7.418   6.950  17.099  0.00  0.00    +0.000 C 
ATOM      6  N   UNL     1       6.043   7.157  16.634  0.00  0.00    +0.000 NA
ATOM      7  C   UNL     1       5.360   5.875  16.439  0.00  0.00    +0.000 C 
ATOM      8  H   UNL     1       6.080   7.647  15.736  0.00  0.00    +0.000 HD
BRANCH   2   9
ATOM      9  C   UNL     1       4.636   3.615  17.411  0.00  0.00    +0.000 C 
BRANCH   9  10
ATOM     10  C   UNL     1       3.307   3.283  18.078  0.00  0.00    +0.000 A 
ATOM     11  C   UNL     1       2.098   3.578  17.436  0.00  0.00    +0.000 A 
ATOM     12  C   UNL     1       0.894   3.605  18.149  0.00  0.00    +0.000 A 
ATOM     13  C   UNL     1       0.877   3.244  19.493  0.00  0.00    +0.000 A 
ATOM     14  C   UNL     1       2.048   2.800  20.097  0.00  0.00    +0.000 A 
ATOM     15 CL   UNL     1       2.017   2.290  21.741  0.00  0.00    +0.000 Cl
ATOM     16  C   UNL     1       3.259   2.804  19.398  0.00  0.00    +0.000 A 
ENDBRANCH   9  10
ENDBRANCH   2   9
ENDBRANCH   1   2
BRANCH   1  17
ATOM     17  O   UNL     1       3.460   6.712  18.013  0.00  0.00    +0.000 OA
BRANCH  17  21
ATOM     18  C   UNL     1       0.878   9.019  20.236  0.00  0.00    +0.000 A 
ATOM     19  C   UNL     1       1.427   7.867  20.781  0.00  0.00    +0.000 A 
ATOM     20  C   UNL     1       2.288   7.117  19.978  0.00  0.00    +0.000 A 
ATOM     21  C   UNL     1       2.548   7.505  18.671  0.00  0.00    +0.000 A 
ATOM     22  C   UNL     1       1.883   8.628  18.190  0.00  0.00    +0.000 A 
ATOM     23  N   UNL     1       1.063   9.402  18.953  0.00  0.00    +0.000 NA
BRANCH  18  25
ATOM     24  C   UNL     1      -0.500  10.824  21.760  0.00  0.00    +0.000 C 
ATOM     25  C   UNL     1       0.158   9.939  21.064  0.00  0.00    +0.000 C 
BRANCH  24  26
ATOM     26  C   UNL     1      -1.266  11.855  22.572  0.00  0.00    +0.000 C 
BRANCH  26  27
ATOM     27  C   UNL     1      -1.220  13.217  21.881  0.00  0.00    +0.000 C 
BRANCH  27  28
ATOM     28  C   UNL     1       0.192  13.782  21.895  0.00  0.00    +0.000 C 
BRANCH  28  29
ATOM     29  O   UNL     1       0.278  14.811  22.871  0.00  0.00    +0.000 OA
ATOM     30  H   UNL     1      -0.322  14.572  23.595  0.00  0.00    +0.000 HD
ENDBRANCH  28  29
ENDBRANCH  27  28
ENDBRANCH  26  27
ENDBRANCH  24  26
ENDBRANCH  18  25
ENDBRANCH  17  21
ENDBRANCH   1  17
TORSDOF 10
ENDMDL
MODEL 9
REMARK VINA RESULT:      -7.5      3.835      7.262
REMARK  Name = 
REMARK  10 active torsions:
REMARK  status: ('A' for Active; 'I' for Inactive)
REMARK    1  A    between atoms: O_1  and  C_2
REMARK    2  A    between atoms: C_2  and  C_3
REMARK    3  A    between atoms: C_3  and  C_4
REMARK    4  A    between atoms: C_4  and  C_5
REMARK    5  A    between atoms: C_6  and  C_7
REMARK    6  A    between atoms: C_10  and  O_11
REMARK    7  A    between atoms: O_11  and  C_12
REMARK    8  A    between atoms: C_12  and  C_13
REMARK    9  A    between atoms: C_13  and  C_14
REMARK   10  A    between atoms: C_14  and  C_15
REMARK                            x       y       z     vdW  Elec       q    Type
REMARK                         _______ _______ _______ _____ _____    ______ ____
ROOT
ATOM      1  C   UNL     1       4.179   5.761  18.612  0.00  0.00    +0.000 C 
ENDROOT
BRANCH   1   2
ATOM      2  C   UNL     1       5.154   5.022  17.619  0.00  0.00    +0.000 C 
ATOM      3  C   UNL     1       6.537   4.776  18.298  0.00  0.00    +0.000 C 
ATOM      4  C   UNL     1       7.420   6.017  18.452  0.00  0.00    +0.000 C 
ATOM      5  C   UNL     1       7.475   6.807  17.148  0.00  0.00    +0.000 C 
ATOM      6  N   UNL     1       6.137   7.123  16.639  0.00  0.00    +0.000 NA
ATOM      7  C   UNL     1       5.382   5.897  16.360  0.00  0.00    +0.000 C 
ATOM      8  H   UNL     1       6.243   7.647  15.766  0.00  0.00    +0.000 HD
BRANCH   2   9
ATOM      9  C   UNL     1       4.477   3.651  17.201  0.00  0.00    +0.000 C 
BRANCH   9  10
ATOM     10  C   UNL     1       3.281   3.216  18.041  0.00  0.00    +0.000 A 
ATOM     11  C   UNL     1       1.985   3.274  17.513  0.00  0.00    +0.000 A 
ATOM     12  C   UNL     1       0.866   3.216  18.351  0.00  0.00    +0.000 A 
ATOM     13  C   UNL     1       1.032   3.002  19.716  0.00  0.00    +0.000 A 
ATOM     14  C   UNL     1       2.309   2.789  20.223  0.00  0.00    +0.000 A 
ATOM     15 CL   UNL     1       2.513   2.459  21.901  0.00  0.00    +0.000 Cl
ATOM     16  C   UNL     1       3.433   2.880  19.396  0.00  0.00    +0.000 A 
ENDBRANCH   9  10
ENDBRANCH   2   9
ENDBRANCH   1   2
BRANCH   1  17
ATOM     17  O   UNL     1       3.366   6.684  17.866  0.00  0.00    +0.000 OA
BRANCH  17  21
ATOM     18  C   UNL     1       0.951   9.553  19.559  0.00  0.00    +0.000 A 
ATOM     19  C   UNL     1       1.442   9.728  18.273  0.00  0.00    +0.000 A 
ATOM     20  C   UNL     1       2.266   8.727  17.753  0.00  0.00    +0.000 A 
ATOM     21  C   UNL     1       2.600   7.622  18.521  0.00  0.00    +0.000 A 
ATOM     22  C   UNL     1       2.126   7.579  19.828  0.00  0.00    +0.000 A 
ATOM     23  N   UNL     1       1.295   8.520  20.358  0.00  0.00    +0.000 NA
BRANCH  18  25
ATOM     24  C   UNL     1      -0.922  11.271  20.569  0.00  0.00    +0.000 C 
ATOM     25  C   UNL     1      -0.058  10.431  20.073  0.00  0.00    +0.000 C 
BRANCH  24  26
ATOM     26  C   UNL     1      -1.929  12.251  21.149  0.00  0.00    +0.000 C 
BRANCH  26  27
ATOM     27  C   UNL     1      -2.759  12.882  20.032  0.00  0.00    +0.000 C 
BRANCH  27  28
ATOM     28  C   UNL     1      -4.244  12.668  20.275  0.00  0.00    +0.000 C 
BRANCH  28  29
ATOM     29  O   UNL     1      -4.976  13.104  19.137  0.00  0.00    +0.000 OA
ATOM     30  H   UNL     1      -4.356  13.577  18.560  0.00  0.00    +0.000 HD
ENDBRANCH  28  29
ENDBRANCH  27  28
ENDBRANCH  26  27
ENDBRANCH  24  26
ENDBRANCH  18  25
ENDBRANCH  17  21
ENDBRANCH   1  17
TORSDOF 10
ENDMDL
