MODEL 1
REMARK VINA RESULT:      -8.3      0.000      0.000
REMARK  Name = 
REMARK  4 active torsions:
REMARK  status: ('A' for Active; 'I' for Inactive)
REMARK    1  A    between atoms: N_3  and  C_4
REMARK    2  A    between atoms: C_7  and  O_8
REMARK    3  A    between atoms: O_8  and  C_9
REMARK    4  A    between atoms: C_22  and  C_23
REMARK                            x       y       z     vdW  Elec       q    Type
REMARK                         _______ _______ _______ _____ _____    ______ ____
ROOT
ATOM      1  O   UNL     1       2.488   5.934  19.926  0.00  0.00    +0.000 OA
ATOM      2  C   UNL     1       2.489   7.035  19.380  0.00  0.00    +0.000 C 
ATOM      3  N   UNL     1       3.157   7.317  18.213  0.00  0.00    +0.000 N 
ATOM      4  N   UNL     1       1.801   8.101  19.935  0.00  0.00    +0.000 N 
ATOM      5  C   UNL     1       1.629   9.451  19.359  0.00  0.00    +0.000 C 
ATOM      6  C   UNL     1       0.158   9.916  19.407  0.00  0.00    +0.000 C 
ATOM      7  N   UNL     1      -0.315   9.758  20.779  0.00  0.00    +0.000 N 
ATOM      8  C   UNL     1      -0.984  10.783  21.396  0.00  0.00    +0.000 A 
ATOM      9  C   UNL     1      -0.926  10.941  22.772  0.00  0.00    +0.000 A 
ATOM     10  C   UNL     1      -1.544  12.029  23.379  0.00  0.00    +0.000 A 
ATOM     11  C   UNL     1      -2.224  12.947  22.597  0.00  0.00    +0.000 A 
ATOM     12  N   UNL     1      -2.283  12.775  21.260  0.00  0.00    +0.000 NA
ATOM     13  N   UNL     1      -1.647  11.703  20.663  0.00  0.00    +0.000 NA
ATOM     14  C   UNL     1      -0.257   8.399  21.311  0.00  0.00    +0.000 C 
ATOM     15  C   UNL     1       1.196   7.911  21.266  0.00  0.00    +0.000 C 
ATOM     16  H   UNL     1       3.392   8.283  18.060  0.00  0.00    +0.000 HD
ENDROOT
BRANCH   3  17
ATOM     17  C   UNL     1       3.842   6.397  17.395  0.00  0.00    +0.000 A 
ATOM     18  C   UNL     1       3.619   5.022  17.427  0.00  0.00    +0.000 A 
ATOM     19  C   UNL     1       4.374   4.167  16.624  0.00  0.00    +0.000 A 
ATOM     20  C   UNL     1       5.344   4.672  15.757  0.00  0.00    +0.000 A 
ATOM     21  C   UNL     1       5.567   6.046  15.716  0.00  0.00    +0.000 A 
ATOM     22  C   UNL     1       4.802   6.906  16.514  0.00  0.00    +0.000 A 
BRANCH  20  23
ATOM     23  O   UNL     1       6.041   3.727  15.074  0.00  0.00    +0.000 OA
BRANCH  23  24
ATOM     24  C   UNL     1       6.097   3.782  13.657  0.00  0.00    +0.000 C 
ATOM     25  F   UNL     1       6.451   2.623  13.064  0.00  0.00    +0.000 F 
ATOM     26  F   UNL     1       4.889   4.159  13.183  0.00  0.00    +0.000 F 
ATOM     27  F   UNL     1       7.001   4.723  13.302  0.00  0.00    +0.000 F 
ENDBRANCH  23  24
ENDBRANCH  20  23
ENDBRANCH   3  17
BRANCH  11  28
ATOM     28  C   UNL     1      -2.894  14.133  23.148  0.00  0.00    +0.000 A 
ATOM     29  C   UNL     1      -3.851  14.849  22.405  0.00  0.00    +0.000 A 
ATOM     30  C   UNL     1      -4.471  15.988  22.925  0.00  0.00    +0.000 A 
ATOM     31  C   UNL     1      -4.150  16.430  24.205  0.00  0.00    +0.000 A 
ATOM     32  C   UNL     1      -3.216  15.729  24.965  0.00  0.00    +0.000 A 
ATOM     33  C   UNL     1      -2.596  14.596  24.442  0.00  0.00    +0.000 A 
ENDBRANCH  11  28
TORSDOF 4
ENDMDL
MODEL 2
REMARK VINA RESULT:      -8.2      0.259      1.104
REMARK  Name = 
REMARK  4 active torsions:
REMARK  status: ('A' for Active; 'I' for Inactive)
REMARK    1  A    between atoms: N_3  and  C_4
REMARK    2  A    between atoms: C_7  and  O_8
REMARK    3  A    between atoms: O_8  and  C_9
REMARK    4  A    between atoms: C_22  and  C_23
REMARK                            x       y       z     vdW  Elec       q    Type
REMARK                         _______ _______ _______ _____ _____    ______ ____
ROOT
ATOM      1  O   UNL     1       2.436   6.137  20.090  0.00  0.00    +0.000 OA
ATOM      2  C   UNL     1       2.409   7.219  19.507  0.00  0.00    +0.000 C 
ATOM      3  N   UNL     1       3.054   7.473  18.320  0.00  0.00    +0.000 N 
ATOM      4  N   UNL     1       1.709   8.291  20.035  0.00  0.00    +0.000 N 
ATOM      5  C   UNL     1       1.504   9.618  19.416  0.00  0.00    +0.000 C 
ATOM      6  C   UNL     1       0.026  10.057  19.470  0.00  0.00    +0.000 C 
ATOM      7  N   UNL     1      -0.424   9.939  20.854  0.00  0.00    +0.000 N 
ATOM      8  C   UNL     1      -1.103  10.972  21.446  0.00  0.00    +0.000 A 
ATOM      9  C   UNL     1      -1.027  11.179  22.815  0.00  0.00    +0.000 A 
ATOM     10  C   UNL     1      -1.656  12.275  23.394  0.00  0.00    +0.000 A 
ATOM     11  C   UNL     1      -2.364  13.153  22.591  0.00  0.00    +0.000 A 
ATOM     12  N   UNL     1      -2.440  12.934  21.262  0.00  0.00    +0.000 NA
ATOM     13  N   UNL     1      -1.793  11.853  20.693  0.00  0.00    +0.000 NA
ATOM     14  C   UNL     1      -0.333   8.600  21.432  0.00  0.00    +0.000 C 
ATOM     15  C   UNL     1       1.128   8.137  21.381  0.00  0.00    +0.000 C 
ATOM     16  H   UNL     1       3.268   8.436  18.130  0.00  0.00    +0.000 HD
ENDROOT
BRANCH   3  17
ATOM     17  C   UNL     1       3.743   6.537  17.524  0.00  0.00    +0.000 A 
ATOM     18  C   UNL     1       3.461   5.173  17.519  0.00  0.00    +0.000 A 
ATOM     19  C   UNL     1       4.223   4.299  16.742  0.00  0.00    +0.000 A 
ATOM     20  C   UNL     1       5.259   4.776  15.938  0.00  0.00    +0.000 A 
ATOM     21  C   UNL     1       5.542   6.139  15.935  0.00  0.00    +0.000 A 
ATOM     22  C   UNL     1       4.771   7.019  16.706  0.00  0.00    +0.000 A 
BRANCH  20  23
ATOM     23  O   UNL     1       5.953   3.812  15.277  0.00  0.00    +0.000 OA
BRANCH  23  24
ATOM     24  C   UNL     1       6.084   3.884  13.866  0.00  0.00    +0.000 C 
ATOM     25  F   UNL     1       7.016   4.758  13.433  0.00  0.00    +0.000 F 
ATOM     26  F   UNL     1       6.387   2.657  13.389  0.00  0.00    +0.000 F 
ATOM     27  F   UNL     1       4.893   4.256  13.344  0.00  0.00    +0.000 F 
ENDBRANCH  23  24
ENDBRANCH  20  23
ENDBRANCH   3  17
BRANCH  11  28
ATOM     28  C   UNL     1      -3.048  14.346  23.112  0.00  0.00    +0.000 A 
ATOM     29  C   UNL     1      -2.947  14.720  24.464  0.00  0.00    +0.000 A 
ATOM     30  C   UNL     1      -3.615  15.843  24.959  0.00  0.00    +0.000 A 
ATOM     31  C   UNL     1      -4.395  16.619  24.107  0.00  0.00    +0.000 A 
ATOM     32  C   UNL     1      -4.499  16.276  22.760  0.00  0.00    +0.000 A 
ATOM     33  C   UNL     1      -3.834  15.153  22.270  0.00  0.00    +0.000 A 
ENDBRANCH  11  28
TORSDOF 4
ENDMDL
MODEL 3
REMARK VINA RESULT:      -8.2      0.326      1.120
REMARK  Name = 
REMARK  4 active torsions:
REMARK  status: ('A' for Active; 'I' for Inactive)
REMARK    1  A    between atoms: N_3  and  C_4
REMARK    2  A    between atoms: C_7  and  O_8
REMARK    3  A    between atoms: O_8  and  C_9
REMARK    4  A    between atoms: C_22  and  C_23
REMARK                            x       y       z     vdW  Elec       q    Type
REMARK                         _______ _______ _______ _____ _____    ______ ____
ROOT
ATOM      1  O   UNL     1       2.610   6.000  20.016  0.00  0.00    +0.000 OA
ATOM      2  C   UNL     1       2.600   7.077  19.424  0.00  0.00    +0.000 C 
ATOM      3  N   UNL     1       3.289   7.325  18.261  0.00  0.00    +0.000 N 
ATOM      4  N   UNL     1       1.877   8.150  19.917  0.00  0.00    +0.000 N 
ATOM      5  C   UNL     1       1.689   9.471  19.281  0.00  0.00    +0.000 C 
ATOM      6  C   UNL     1       0.208   9.903  19.276  0.00  0.00    +0.000 C 
ATOM      7  N   UNL     1      -0.294   9.793  20.643  0.00  0.00    +0.000 N 
ATOM      8  C   UNL     1      -0.999  10.828  21.200  0.00  0.00    +0.000 A 
ATOM      9  C   UNL     1      -0.976  11.045  22.569  0.00  0.00    +0.000 A 
ATOM     10  C   UNL     1      -1.631  12.143  23.116  0.00  0.00    +0.000 A 
ATOM     11  C   UNL     1      -2.312  13.012  22.280  0.00  0.00    +0.000 A 
ATOM     12  N   UNL     1      -2.337  12.782  20.951  0.00  0.00    +0.000 NA
ATOM     13  N   UNL     1      -1.664  11.700  20.415  0.00  0.00    +0.000 NA
ATOM     14  C   UNL     1      -0.218   8.460  21.234  0.00  0.00    +0.000 C 
ATOM     15  C   UNL     1       1.246   8.003  21.242  0.00  0.00    +0.000 C 
ATOM     16  H   UNL     1       3.506   8.288  18.072  0.00  0.00    +0.000 HD
ENDROOT
BRANCH   3  17
ATOM     17  C   UNL     1       4.012   6.387  17.499  0.00  0.00    +0.000 A 
ATOM     18  C   UNL     1       5.150   6.704  16.761  0.00  0.00    +0.000 A 
ATOM     19  C   UNL     1       5.782   5.730  15.987  0.00  0.00    +0.000 A 
ATOM     20  C   UNL     1       5.305   4.419  15.958  0.00  0.00    +0.000 A 
ATOM     21  C   UNL     1       4.171   4.095  16.698  0.00  0.00    +0.000 A 
ATOM     22  C   UNL     1       3.542   5.068  17.484  0.00  0.00    +0.000 A 
BRANCH  20  23
ATOM     23  O   UNL     1       5.982   3.588  15.123  0.00  0.00    +0.000 OA
BRANCH  23  24
ATOM     24  C   UNL     1       6.027   3.874  13.733  0.00  0.00    +0.000 C 
ATOM     25  F   UNL     1       6.919   4.824  13.384  0.00  0.00    +0.000 F 
ATOM     26  F   UNL     1       6.318   2.739  13.060  0.00  0.00    +0.000 F 
ATOM     27  F   UNL     1       4.801   4.291  13.343  0.00  0.00    +0.000 F 
ENDBRANCH  23  24
ENDBRANCH  20  23
ENDBRANCH   3  17
BRANCH  11  28
ATOM     28  C   UNL     1      -3.021  14.205  22.765  0.00  0.00    +0.000 A 
ATOM     29  C   UNL     1      -3.660  15.092  21.879  0.00  0.00    +0.000 A 
ATOM     30  C   UNL     1      -4.315  16.235  22.343  0.00  0.00    +0.000 A 
ATOM     31  C   UNL     1      -4.350  16.511  23.707  0.00  0.00    +0.000 A 
ATOM     32  C   UNL     1      -3.736  15.640  24.604  0.00  0.00    +0.000 A 
ATOM     33  C   UNL     1      -3.081  14.502  24.138  0.00  0.00    +0.000 A 
ENDBRANCH  11  28
TORSDOF 4
ENDMDL
MODEL 4
REMARK VINA RESULT:      -8.2      0.358      1.229
REMARK  Name = 
REMARK  4 active torsions:
REMARK  status: ('A' for Active; 'I' for Inactive)
REMARK    1  A    between atoms: N_3  and  C_4
REMARK    2  A    between atoms: C_7  and  O_8
REMARK    3  A    between atoms: O_8  and  C_9
REMARK    4  A    between atoms: C_22  and  C_23
REMARK                            x       y       z     vdW  Elec       q    Type
REMARK                         _______ _______ _______ _____ _____    ______ ____
ROOT
ATOM      1  O   UNL     1       2.612   6.023  20.055  0.00  0.00    +0.000 OA
ATOM      2  C   UNL     1       2.595   7.095  19.454  0.00  0.00    +0.000 C 
ATOM      3  N   UNL     1       3.279   7.336  18.287  0.00  0.00    +0.000 N 
ATOM      4  N   UNL     1       1.867   8.168  19.940  0.00  0.00    +0.000 N 
ATOM      5  C   UNL     1       1.671   9.482  19.292  0.00  0.00    +0.000 C 
ATOM      6  C   UNL     1       0.187   9.907  19.288  0.00  0.00    +0.000 C 
ATOM      7  N   UNL     1      -0.310   9.806  20.657  0.00  0.00    +0.000 N 
ATOM      8  C   UNL     1      -1.019  10.842  21.207  0.00  0.00    +0.000 A 
ATOM      9  C   UNL     1      -0.993  11.071  22.574  0.00  0.00    +0.000 A 
ATOM     10  C   UNL     1      -1.653  12.171  23.113  0.00  0.00    +0.000 A 
ATOM     11  C   UNL     1      -2.341  13.028  22.272  0.00  0.00    +0.000 A 
ATOM     12  N   UNL     1      -2.368  12.787  20.945  0.00  0.00    +0.000 NA
ATOM     13  N   UNL     1      -1.691  11.704  20.416  0.00  0.00    +0.000 NA
ATOM     14  C   UNL     1      -0.226   8.478  21.260  0.00  0.00    +0.000 C 
ATOM     15  C   UNL     1       1.241   8.029  21.267  0.00  0.00    +0.000 C 
ATOM     16  H   UNL     1       3.491   8.299  18.089  0.00  0.00    +0.000 HD
ENDROOT
BRANCH   3  17
ATOM     17  C   UNL     1       4.005   6.395  17.530  0.00  0.00    +0.000 A 
ATOM     18  C   UNL     1       5.182   6.695  16.848  0.00  0.00    +0.000 A 
ATOM     19  C   UNL     1       5.816   5.722  16.075  0.00  0.00    +0.000 A 
ATOM     20  C   UNL     1       5.301   4.427  15.993  0.00  0.00    +0.000 A 
ATOM     21  C   UNL     1       4.129   4.120  16.677  0.00  0.00    +0.000 A 
ATOM     22  C   UNL     1       3.497   5.092  17.463  0.00  0.00    +0.000 A 
BRANCH  20  23
ATOM     23  O   UNL     1       5.987   3.597  15.165  0.00  0.00    +0.000 OA
BRANCH  23  24
ATOM     24  C   UNL     1       6.009   3.856  13.770  0.00  0.00    +0.000 C 
ATOM     25  F   UNL     1       6.310   2.787  13.005  0.00  0.00    +0.000 F 
ATOM     26  F   UNL     1       4.803   4.333  13.392  0.00  0.00    +0.000 F 
ATOM     27  F   UNL     1       6.934   4.813  13.528  0.00  0.00    +0.000 F 
ENDBRANCH  23  24
ENDBRANCH  20  23
ENDBRANCH   3  17
BRANCH  11  28
ATOM     28  C   UNL     1      -3.054  14.222  22.749  0.00  0.00    +0.000 A 
ATOM     29  C   UNL     1      -3.124  14.539  24.118  0.00  0.00    +0.000 A 
ATOM     30  C   UNL     1      -3.821  15.663  24.568  0.00  0.00    +0.000 A 
ATOM     31  C   UNL     1      -4.457  16.499  23.655  0.00  0.00    +0.000 A 
ATOM     32  C   UNL     1      -4.390  16.212  22.293  0.00  0.00    +0.000 A 
ATOM     33  C   UNL     1      -3.697  15.088  21.847  0.00  0.00    +0.000 A 
ENDBRANCH  11  28
TORSDOF 4
ENDMDL
MODEL 5
REMARK VINA RESULT:      -8.1      2.491      3.402
REMARK  Name = 
REMARK  4 active torsions:
REMARK  status: ('A' for Active; 'I' for Inactive)
REMARK    1  A    between atoms: N_3  and  C_4
REMARK    2  A    between atoms: C_7  and  O_8
REMARK    3  A    between atoms: O_8  and  C_9
REMARK    4  A    between atoms: C_22  and  C_23
REMARK                            x       y       z     vdW  Elec       q    Type
REMARK                         _______ _______ _______ _____ _____    ______ ____
ROOT
ATOM      1  O   UNL     1       1.943   9.421  17.421  0.00  0.00    +0.000 OA
ATOM      2  C   UNL     1       1.436   8.970  18.446  0.00  0.00    +0.000 C 
ATOM      3  N   UNL     1       1.854   7.820  19.071  0.00  0.00    +0.000 N 
ATOM      4  N   UNL     1       0.366   9.609  19.048  0.00  0.00    +0.000 N 
ATOM      5  C   UNL     1      -0.290   9.249  20.322  0.00  0.00    +0.000 C 
ATOM      6  C   UNL     1      -0.472  10.473  21.244  0.00  0.00    +0.000 C 
ATOM      7  N   UNL     1      -1.141  11.516  20.472  0.00  0.00    +0.000 N 
ATOM      8  C   UNL     1      -2.221  12.175  21.000  0.00  0.00    +0.000 A 
ATOM      9  C   UNL     1      -3.210  12.691  20.176  0.00  0.00    +0.000 A 
ATOM     10  C   UNL     1      -4.339  13.288  20.724  0.00  0.00    +0.000 A 
ATOM     11  C   UNL     1      -4.463  13.368  22.101  0.00  0.00    +0.000 A 
ATOM     12  N   UNL     1      -3.488  12.872  22.892  0.00  0.00    +0.000 NA
ATOM     13  N   UNL     1      -2.380  12.261  22.337  0.00  0.00    +0.000 NA
ATOM     14  C   UNL     1      -0.436  11.960  19.272  0.00  0.00    +0.000 C 
ATOM     15  C   UNL     1      -0.234  10.756  18.343  0.00  0.00    +0.000 C 
ATOM     16  H   UNL     1       1.174   7.360  19.652  0.00  0.00    +0.000 HD
ENDROOT
BRANCH   3  17
ATOM     17  C   UNL     1       2.977   7.041  18.731  0.00  0.00    +0.000 A 
ATOM     18  C   UNL     1       3.690   7.192  17.544  0.00  0.00    +0.000 A 
ATOM     19  C   UNL     1       4.761   6.347  17.252  0.00  0.00    +0.000 A 
ATOM     20  C   UNL     1       5.154   5.355  18.152  0.00  0.00    +0.000 A 
ATOM     21  C   UNL     1       4.449   5.202  19.342  0.00  0.00    +0.000 A 
ATOM     22  C   UNL     1       3.381   6.058  19.641  0.00  0.00    +0.000 A 
BRANCH  20  23
ATOM     23  O   UNL     1       6.175   4.570  17.718  0.00  0.00    +0.000 OA
BRANCH  23  24
ATOM     24  C   UNL     1       7.472   5.125  17.567  0.00  0.00    +0.000 C 
ATOM     25  F   UNL     1       7.814   6.020  18.516  0.00  0.00    +0.000 F 
ATOM     26  F   UNL     1       8.381   4.125  17.567  0.00  0.00    +0.000 F 
ATOM     27  F   UNL     1       7.533   5.747  16.368  0.00  0.00    +0.000 F 
ENDBRANCH  23  24
ENDBRANCH  20  23
ENDBRANCH   3  17
BRANCH  11  28
ATOM     28  C   UNL     1      -5.626  13.968  22.771  0.00  0.00    +0.000 A 
ATOM     29  C   UNL     1      -6.499  13.196  23.559  0.00  0.00    +0.000 A 
ATOM     30  C   UNL     1      -7.615  13.766  24.177  0.00  0.00    +0.000 A 
ATOM     31  C   UNL     1      -7.876  15.125  24.023  0.00  0.00    +0.000 A 
ATOM     32  C   UNL     1      -7.018  15.911  23.258  0.00  0.00    +0.000 A 
ATOM     33  C   UNL     1      -5.908  15.339  22.640  0.00  0.00    +0.000 A 
ENDBRANCH  11  28
TORSDOF 4
ENDMDL
MODEL 6
REMARK VINA RESULT:      -8.0      1.785      2.548
REMARK  Name = 
REMARK  4 active torsions:
REMARK  status: ('A' for Active; 'I' for Inactive)
REMARK    1  A    between atoms: N_3  and  C_4
REMARK    2  A    between atoms: C_7  and  O_8
REMARK    3  A    between atoms: O_8  and  C_9
REMARK    4  A    between atoms: C_22  and  C_23
REMARK                            x       y       z     vdW  Elec       q    Type
REMARK                         _______ _______ _______ _____ _____    ______ ____
ROOT
ATOM      1  O   UNL     1       2.264   9.245  17.128  0.00  0.00    +0.000 OA
ATOM      2  C   UNL     1       1.855   8.921  18.240  0.00  0.00    +0.000 C 
ATOM      3  N   UNL     1       2.116   7.711  18.837  0.00  0.00    +0.000 N 
ATOM      4  N   UNL     1       1.066   9.783  18.983  0.00  0.00    +0.000 N 
ATOM      5  C   UNL     1       0.576   9.581  20.363  0.00  0.00    +0.000 C 
ATOM      6  C   UNL     1       0.820  10.821  21.249  0.00  0.00    +0.000 C 
ATOM      7  N   UNL     1       0.269  11.981  20.555  0.00  0.00    +0.000 N 
ATOM      8  C   UNL     1      -0.538  12.863  21.226  0.00  0.00    +0.000 A 
ATOM      9  C   UNL     1      -1.518  13.579  20.556  0.00  0.00    +0.000 A 
ATOM     10  C   UNL     1      -2.382  14.411  21.258  0.00  0.00    +0.000 A 
ATOM     11  C   UNL     1      -2.248  14.523  22.632  0.00  0.00    +0.000 A 
ATOM     12  N   UNL     1      -1.283  13.831  23.271  0.00  0.00    +0.000 NA
ATOM     13  N   UNL     1      -0.443  12.989  22.566  0.00  0.00    +0.000 NA
ATOM     14  C   UNL     1       0.837  12.253  19.237  0.00  0.00    +0.000 C 
ATOM     15  C   UNL     1       0.614  11.030  18.340  0.00  0.00    +0.000 C 
ATOM     16  H   UNL     1       1.464   7.415  19.541  0.00  0.00    +0.000 HD
ENDROOT
BRANCH   3  17
ATOM     17  C   UNL     1       2.971   6.703  18.348  0.00  0.00    +0.000 A 
ATOM     18  C   UNL     1       4.343   6.870  18.179  0.00  0.00    +0.000 A 
ATOM     19  C   UNL     1       5.118   5.842  17.639  0.00  0.00    +0.000 A 
ATOM     20  C   UNL     1       4.538   4.623  17.285  0.00  0.00    +0.000 A 
ATOM     21  C   UNL     1       3.168   4.448  17.456  0.00  0.00    +0.000 A 
ATOM     22  C   UNL     1       2.392   5.475  18.009  0.00  0.00    +0.000 A 
BRANCH  20  23
ATOM     23  O   UNL     1       5.396   3.731  16.722  0.00  0.00    +0.000 OA
BRANCH  23  24
ATOM     24  C   UNL     1       6.057   4.061  15.510  0.00  0.00    +0.000 C 
ATOM     25  F   UNL     1       6.149   3.046  14.627  0.00  0.00    +0.000 F 
ATOM     26  F   UNL     1       5.408   5.089  14.921  0.00  0.00    +0.000 F 
ATOM     27  F   UNL     1       7.312   4.470  15.805  0.00  0.00    +0.000 F 
ENDBRANCH  23  24
ENDBRANCH  20  23
ENDBRANCH   3  17
BRANCH  11  28
ATOM     28  C   UNL     1      -3.124  15.367  23.459  0.00  0.00    +0.000 A 
ATOM     29  C   UNL     1      -2.598  16.309  24.362  0.00  0.00    +0.000 A 
ATOM     30  C   UNL     1      -3.433  17.094  25.160  0.00  0.00    +0.000 A 
ATOM     31  C   UNL     1      -4.815  16.957  25.066  0.00  0.00    +0.000 A 
ATOM     32  C   UNL     1      -5.359  16.040  24.169  0.00  0.00    +0.000 A 
ATOM     33  C   UNL     1      -4.523  15.256  23.376  0.00  0.00    +0.000 A 
ENDBRANCH  11  28
TORSDOF 4
ENDMDL
MODEL 7
REMARK VINA RESULT:      -8.0      2.080      2.884
REMARK  Name = 
REMARK  4 active torsions:
REMARK  status: ('A' for Active; 'I' for Inactive)
REMARK    1  A    between atoms: N_3  and  C_4
REMARK    2  A    between atoms: C_7  and  O_8
REMARK    3  A    between atoms: O_8  and  C_9
REMARK    4  A    between atoms: C_22  and  C_23
REMARK                            x       y       z     vdW  Elec       q    Type
REMARK                         _______ _______ _______ _____ _____    ______ ____
ROOT
ATOM      1  O   UNL     1       2.424   9.852  17.423  0.00  0.00    +0.000 OA
ATOM      2  C   UNL     1       1.733   9.204  18.206  0.00  0.00    +0.000 C 
ATOM      3  N   UNL     1       1.947   7.882  18.512  0.00  0.00    +0.000 N 
ATOM      4  N   UNL     1       0.649   9.786  18.843  0.00  0.00    +0.000 N 
ATOM      5  C   UNL     1      -0.216   9.175  19.873  0.00  0.00    +0.000 C 
ATOM      6  C   UNL     1      -0.418  10.109  21.085  0.00  0.00    +0.000 C 
ATOM      7  N   UNL     1      -0.868  11.403  20.581  0.00  0.00    +0.000 N 
ATOM      8  C   UNL     1      -1.949  12.024  21.151  0.00  0.00    +0.000 A 
ATOM      9  C   UNL     1      -2.754  12.872  20.407  0.00  0.00    +0.000 A 
ATOM     10  C   UNL     1      -3.892  13.436  20.974  0.00  0.00    +0.000 A 
ATOM     11  C   UNL     1      -4.208  13.146  22.290  0.00  0.00    +0.000 A 
ATOM     12  N   UNL     1      -3.409  12.328  23.007  0.00  0.00    +0.000 NA
ATOM     13  N   UNL     1      -2.293  11.756  22.428  0.00  0.00    +0.000 NA
ATOM     14  C   UNL     1       0.043  12.066  19.651  0.00  0.00    +0.000 C 
ATOM     15  C   UNL     1       0.267  11.151  18.440  0.00  0.00    +0.000 C 
ATOM     16  H   UNL     1       1.150   7.372  18.852  0.00  0.00    +0.000 HD
ENDROOT
BRANCH   3  17
ATOM     17  C   UNL     1       3.031   7.089  18.089  0.00  0.00    +0.000 A 
ATOM     18  C   UNL     1       4.266   7.609  17.707  0.00  0.00    +0.000 A 
ATOM     19  C   UNL     1       5.276   6.763  17.248  0.00  0.00    +0.000 A 
ATOM     20  C   UNL     1       5.080   5.383  17.189  0.00  0.00    +0.000 A 
ATOM     21  C   UNL     1       3.850   4.856  17.575  0.00  0.00    +0.000 A 
ATOM     22  C   UNL     1       2.839   5.703  18.047  0.00  0.00    +0.000 A 
BRANCH  20  23
ATOM     23  O   UNL     1       6.125   4.684  16.674  0.00  0.00    +0.000 OA
BRANCH  23  24
ATOM     24  C   UNL     1       6.230   4.511  15.269  0.00  0.00    +0.000 C 
ATOM     25  F   UNL     1       5.288   5.157  14.552  0.00  0.00    +0.000 F 
ATOM     26  F   UNL     1       7.448   4.933  14.863  0.00  0.00    +0.000 F 
ATOM     27  F   UNL     1       6.129   3.191  14.993  0.00  0.00    +0.000 F 
ENDBRANCH  23  24
ENDBRANCH  20  23
ENDBRANCH   3  17
BRANCH  11  28
ATOM     28  C   UNL     1      -5.396  13.683  22.969  0.00  0.00    +0.000 A 
ATOM     29  C   UNL     1      -6.338  12.836  23.583  0.00  0.00    +0.000 A 
ATOM     30  C   UNL     1      -7.476  13.350  24.209  0.00  0.00    +0.000 A 
ATOM     31  C   UNL     1      -7.693  14.725  24.239  0.00  0.00    +0.000 A 
ATOM     32  C   UNL     1      -6.767  15.583  23.650  0.00  0.00    +0.000 A 
ATOM     33  C   UNL     1      -5.634  15.068  23.023  0.00  0.00    +0.000 A 
ENDBRANCH  11  28
TORSDOF 4
ENDMDL
MODEL 8
REMARK VINA RESULT:      -8.0      2.585      3.365
REMARK  Name = 
REMARK  4 active torsions:
REMARK  status: ('A' for Active; 'I' for Inactive)
REMARK    1  A    between atoms: N_3  and  C_4
REMARK    2  A    between atoms: C_7  and  O_8
REMARK    3  A    between atoms: O_8  and  C_9
REMARK    4  A    between atoms: C_22  and  C_23
REMARK                            x       y       z     vdW  Elec       q    Type
REMARK                         _______ _______ _______ _____ _____    ______ ____
ROOT
ATOM      1  O   UNL     1       2.256   9.576  17.714  0.00  0.00    +0.000 OA
ATOM      2  C   UNL     1       1.596   9.051  18.608  0.00  0.00    +0.000 C 
ATOM      3  N   UNL     1       1.840   7.796  19.112  0.00  0.00    +0.000 N 
ATOM      4  N   UNL     1       0.520   9.713  19.176  0.00  0.00    +0.000 N 
ATOM      5  C   UNL     1      -0.309   9.261  20.313  0.00  0.00    +0.000 C 
ATOM      6  C   UNL     1      -0.495  10.372  21.368  0.00  0.00    +0.000 C 
ATOM      7  N   UNL     1      -0.978  11.565  20.680  0.00  0.00    +0.000 N 
ATOM      8  C   UNL     1      -2.054  12.255  21.175  0.00  0.00    +0.000 A 
ATOM      9  C   UNL     1      -2.891  12.966  20.330  0.00  0.00    +0.000 A 
ATOM     10  C   UNL     1      -4.023  13.598  20.832  0.00  0.00    +0.000 A 
ATOM     11  C   UNL     1      -4.300  13.516  22.187  0.00  0.00    +0.000 A 
ATOM     12  N   UNL     1      -3.471  12.831  23.001  0.00  0.00    +0.000 NA
ATOM     13  N   UNL     1      -2.360  12.188  22.487  0.00  0.00    +0.000 NA
ATOM     14  C   UNL     1      -0.102  12.084  19.632  0.00  0.00    +0.000 C 
ATOM     15  C   UNL     1       0.105  10.993  18.574  0.00  0.00    +0.000 C 
ATOM     16  H   UNL     1       1.060   7.337  19.551  0.00  0.00    +0.000 HD
ENDROOT
BRANCH   3  17
ATOM     17  C   UNL     1       2.926   6.959  18.789  0.00  0.00    +0.000 A 
ATOM     18  C   UNL     1       3.332   5.885  19.576  0.00  0.00    +0.000 A 
ATOM     19  C   UNL     1       4.452   5.132  19.218  0.00  0.00    +0.000 A 
ATOM     20  C   UNL     1       5.166   5.424  18.055  0.00  0.00    +0.000 A 
ATOM     21  C   UNL     1       4.761   6.494  17.261  0.00  0.00    +0.000 A 
ATOM     22  C   UNL     1       3.631   7.242  17.614  0.00  0.00    +0.000 A 
BRANCH  20  23
ATOM     23  O   UNL     1       6.263   4.648  17.855  0.00  0.00    +0.000 OA
BRANCH  23  24
ATOM     24  C   UNL     1       7.551   5.161  18.158  0.00  0.00    +0.000 C 
ATOM     25  F   UNL     1       7.889   6.272  17.471  0.00  0.00    +0.000 F 
ATOM     26  F   UNL     1       7.617   5.433  19.480  0.00  0.00    +0.000 F 
ATOM     27  F   UNL     1       8.468   4.206  17.879  0.00  0.00    +0.000 F 
ENDBRANCH  23  24
ENDBRANCH  20  23
ENDBRANCH   3  17
BRANCH  11  28
ATOM     28  C   UNL     1      -5.480  14.139  22.805  0.00  0.00    +0.000 A 
ATOM     29  C   UNL     1      -5.695  15.528  22.745  0.00  0.00    +0.000 A 
ATOM     30  C   UNL     1      -6.806  16.118  23.351  0.00  0.00    +0.000 A 
ATOM     31  C   UNL     1      -7.731  15.327  24.027  0.00  0.00    +0.000 A 
ATOM     32  C   UNL     1      -7.546  13.947  24.088  0.00  0.00    +0.000 A 
ATOM     33  C   UNL     1      -6.435  13.362  23.485  0.00  0.00    +0.000 A 
ENDBRANCH  11  28
TORSDOF 4
ENDMDL
MODEL 9
REMARK VINA RESULT:      -7.8      2.118      2.830
REMARK  Name = 
REMARK  4 active torsions:
REMARK  status: ('A' for Active; 'I' for Inactive)
REMARK    1  A    between atoms: N_3  and  C_4
REMARK    2  A    between atoms: C_7  and  O_8
REMARK    3  A    between atoms: O_8  and  C_9
REMARK    4  A    between atoms: C_22  and  C_23
REMARK                            x       y       z     vdW  Elec       q    Type
REMARK                         _______ _______ _______ _____ _____    ______ ____
ROOT
ATOM      1  O   UNL     1       2.344   9.838  17.374  0.00  0.00    +0.000 OA
ATOM      2  C   UNL     1       1.691   9.207  18.203  0.00  0.00    +0.000 C 
ATOM      3  N   UNL     1       1.954   7.908  18.565  0.00  0.00    +0.000 N 
ATOM      4  N   UNL     1       0.603   9.784  18.837  0.00  0.00    +0.000 N 
ATOM      5  C   UNL     1      -0.220   9.195  19.914  0.00  0.00    +0.000 C 
ATOM      6  C   UNL     1      -0.425  10.178  21.085  0.00  0.00    +0.000 C 
ATOM      7  N   UNL     1      -0.927  11.433  20.532  0.00  0.00    +0.000 N 
ATOM      8  C   UNL     1      -2.014  12.046  21.098  0.00  0.00    +0.000 A 
ATOM      9  C   UNL     1      -2.862  12.833  20.334  0.00  0.00    +0.000 A 
ATOM     10  C   UNL     1      -4.005  13.387  20.901  0.00  0.00    +0.000 A 
ATOM     11  C   UNL     1      -4.283  13.150  22.236  0.00  0.00    +0.000 A 
ATOM     12  N   UNL     1      -3.443  12.392  22.972  0.00  0.00    +0.000 NA
ATOM     13  N   UNL     1      -2.322  11.828  22.394  0.00  0.00    +0.000 NA
ATOM     14  C   UNL     1      -0.059  12.079  19.552  0.00  0.00    +0.000 C 
ATOM     15  C   UNL     1       0.169  11.116  18.380  0.00  0.00    +0.000 C 
ATOM     16  H   UNL     1       1.182   7.390  18.946  0.00  0.00    +0.000 HD
ENDROOT
BRANCH   3  17
ATOM     17  C   UNL     1       3.054   7.129  18.154  0.00  0.00    +0.000 A 
ATOM     18  C   UNL     1       4.249   7.670  17.685  0.00  0.00    +0.000 A 
ATOM     19  C   UNL     1       5.276   6.833  17.245  0.00  0.00    +0.000 A 
ATOM     20  C   UNL     1       5.137   5.445  17.292  0.00  0.00    +0.000 A 
ATOM     21  C   UNL     1       3.946   4.900  17.764  0.00  0.00    +0.000 A 
ATOM     22  C   UNL     1       2.919   5.738  18.216  0.00  0.00    +0.000 A 
BRANCH  20  23
ATOM     23  O   UNL     1       6.190   4.753  16.784  0.00  0.00    +0.000 OA
BRANCH  23  24
ATOM     24  C   UNL     1       6.236   4.463  15.395  0.00  0.00    +0.000 C 
ATOM     25  F   UNL     1       6.088   3.157  15.090  0.00  0.00    +0.000 F 
ATOM     26  F   UNL     1       5.269   5.167  14.766  0.00  0.00    +0.000 F 
ATOM     27  F   UNL     1       7.432   4.869  14.913  0.00  0.00    +0.000 F 
ENDBRANCH  23  24
ENDBRANCH  20  23
ENDBRANCH   3  17
BRANCH  11  28
ATOM     28  C   UNL     1      -5.473  13.681  22.917  0.00  0.00    +0.000 A 
ATOM     29  C   UNL     1      -5.726  15.063  22.985  0.00  0.00    +0.000 A 
ATOM     30  C   UNL     1      -6.848  15.564  23.650  0.00  0.00    +0.000 A 
ATOM     31  C   UNL     1      -7.745  14.690  24.256  0.00  0.00    +0.000 A 
ATOM     32  C   UNL     1      -7.522  13.316  24.190  0.00  0.00    +0.000 A 
ATOM     33  C   UNL     1      -6.401  12.819  23.529  0.00  0.00    +0.000 A 
ENDBRANCH  11  28
TORSDOF 4
ENDMDL
