MODEL 1
REMARK VINA RESULT:      -9.1      0.000      0.000
REMARK  Name = 
REMARK  5 active torsions:
REMARK  status: ('A' for Active; 'I' for Inactive)
REMARK    1  A    between atoms: O_1  and  C_2
REMARK    2  A    between atoms: C_7  and  C_8
REMARK    3  A    between atoms: C_16  and  N_17
REMARK    4  A    between atoms: N_17  and  C_18
REMARK    5  A    between atoms: C_22  and  C_23
REMARK                            x       y       z     vdW  Elec       q    Type
REMARK                         _______ _______ _______ _____ _____    ______ ____
ROOT
ATOM      1  C   UNL     1       4.532   4.979  18.568  0.00  0.00    +0.000 A 
ATOM      2  N   UNL     1       4.448   3.678  18.104  0.00  0.00    +0.000 NA
ATOM      3  C   UNL     1       3.289   3.208  18.515  0.00  0.00    +0.000 A 
ATOM      4  N   UNL     1       2.777   1.949  18.356  0.00  0.00    +0.000 NA
ATOM      5  C   UNL     1       1.607   1.736  18.874  0.00  0.00    +0.000 A 
ATOM      6  C   UNL     1       0.770   2.721  19.608  0.00  0.00    +0.000 A 
ATOM      7  C   UNL     1       1.323   3.931  19.752  0.00  0.00    +0.000 A 
ATOM      8  N   UNL     1       2.577   4.193  19.201  0.00  0.00    +0.000 N 
ATOM      9  C   UNL     1       3.363   5.332  19.228  0.00  0.00    +0.000 A 
ENDROOT
BRANCH   1  15
ATOM     10  C   UNL     1       6.893   5.854  19.031  0.00  0.00    +0.000 A 
ATOM     11  C   UNL     1       7.942   6.721  18.693  0.00  0.00    +0.000 A 
ATOM     12  C   UNL     1       7.827   7.566  17.594  0.00  0.00    +0.000 A 
ATOM     13  C   UNL     1       6.672   7.537  16.821  0.00  0.00    +0.000 A 
ATOM     14  C   UNL     1       5.626   6.669  17.158  0.00  0.00    +0.000 A 
ATOM     15  C   UNL     1       5.703   5.818  18.278  0.00  0.00    +0.000 A 
BRANCH  10  16
ATOM     16  O   UNL     1       7.087   5.040  20.120  0.00  0.00    +0.000 OA
ATOM     17  H   UNL     1       6.534   5.368  20.851  0.00  0.00    +0.000 HD
ENDBRANCH  10  16
ENDBRANCH   1  15
BRANCH   9  18
ATOM     18  N   UNL     1       3.041   6.449  19.930  0.00  0.00    +0.000 N 
ATOM     19  H   UNL     1       3.769   6.741  20.594  0.00  0.00    +0.000 HD
BRANCH  18  20
ATOM     20  C   UNL     1       2.260   7.563  19.558  0.00  0.00    +0.000 A 
ATOM     21  C   UNL     1       2.372   8.000  18.230  0.00  0.00    +0.000 A 
ATOM     22  C   UNL     1       1.701   9.138  17.787  0.00  0.00    +0.000 A 
ATOM     23  C   UNL     1       0.906   9.858  18.673  0.00  0.00    +0.000 A 
ATOM     24  C   UNL     1       0.766   9.439  20.002  0.00  0.00    +0.000 A 
ATOM     25  C   UNL     1       1.454   8.285  20.434  0.00  0.00    +0.000 A 
BRANCH  24  26
ATOM     26  C   UNL     1      -0.092  10.209  20.974  0.00  0.00    +0.000 C 
ATOM     27  F   UNL     1       0.579  11.208  21.616  0.00  0.00    +0.000 F 
ATOM     28  F   UNL     1      -1.161  10.801  20.377  0.00  0.00    +0.000 F 
ATOM     29  F   UNL     1      -0.600   9.414  21.957  0.00  0.00    +0.000 F 
ENDBRANCH  24  26
ENDBRANCH  18  20
ENDBRANCH   9  18
TORSDOF 5
ENDMDL
MODEL 2
REMARK VINA RESULT:      -9.0      0.941      1.313
REMARK  Name = 
REMARK  5 active torsions:
REMARK  status: ('A' for Active; 'I' for Inactive)
REMARK    1  A    between atoms: O_1  and  C_2
REMARK    2  A    between atoms: C_7  and  C_8
REMARK    3  A    between atoms: C_16  and  N_17
REMARK    4  A    between atoms: N_17  and  C_18
REMARK    5  A    between atoms: C_22  and  C_23
REMARK                            x       y       z     vdW  Elec       q    Type
REMARK                         _______ _______ _______ _____ _____    ______ ____
ROOT
ATOM      1  C   UNL     1       4.478   4.876  18.620  0.00  0.00    +0.000 A 
ATOM      2  N   UNL     1       4.382   3.594  18.108  0.00  0.00    +0.000 NA
ATOM      3  C   UNL     1       3.198   3.138  18.458  0.00  0.00    +0.000 A 
ATOM      4  N   UNL     1       2.664   1.898  18.236  0.00  0.00    +0.000 NA
ATOM      5  C   UNL     1       1.470   1.695  18.702  0.00  0.00    +0.000 A 
ATOM      6  C   UNL     1       0.628   2.675  19.438  0.00  0.00    +0.000 A 
ATOM      7  C   UNL     1       1.203   3.865  19.645  0.00  0.00    +0.000 A 
ATOM      8  N   UNL     1       2.482   4.116  19.151  0.00  0.00    +0.000 N 
ATOM      9  C   UNL     1       3.292   5.234  19.248  0.00  0.00    +0.000 A 
ENDROOT
BRANCH   1  15
ATOM     10  C   UNL     1       5.863   6.622  17.360  0.00  0.00    +0.000 A 
ATOM     11  C   UNL     1       7.065   7.330  17.219  0.00  0.00    +0.000 A 
ATOM     12  C   UNL     1       8.105   7.132  18.122  0.00  0.00    +0.000 A 
ATOM     13  C   UNL     1       7.942   6.239  19.175  0.00  0.00    +0.000 A 
ATOM     14  C   UNL     1       6.741   5.535  19.316  0.00  0.00    +0.000 A 
ATOM     15  C   UNL     1       5.678   5.696  18.405  0.00  0.00    +0.000 A 
BRANCH  10  16
ATOM     16  O   UNL     1       4.877   6.882  16.439  0.00  0.00    +0.000 OA
ATOM     17  H   UNL     1       5.075   6.382  15.628  0.00  0.00    +0.000 HD
ENDBRANCH  10  16
ENDBRANCH   1  15
BRANCH   9  18
ATOM     18  N   UNL     1       2.970   6.333  19.977  0.00  0.00    +0.000 N 
ATOM     19  H   UNL     1       3.683   6.592  20.669  0.00  0.00    +0.000 HD
BRANCH  18  20
ATOM     20  C   UNL     1       2.217   7.471  19.620  0.00  0.00    +0.000 A 
ATOM     21  C   UNL     1       2.346   7.929  18.300  0.00  0.00    +0.000 A 
ATOM     22  C   UNL     1       1.704   9.090  17.873  0.00  0.00    +0.000 A 
ATOM     23  C   UNL     1       0.921   9.812  18.767  0.00  0.00    +0.000 A 
ATOM     24  C   UNL     1       0.764   9.374  20.089  0.00  0.00    +0.000 A 
ATOM     25  C   UNL     1       1.422   8.197  20.504  0.00  0.00    +0.000 A 
BRANCH  24  26
ATOM     26  C   UNL     1      -0.082  10.146  21.069  0.00  0.00    +0.000 C 
ATOM     27  F   UNL     1       0.609  11.116  21.735  0.00  0.00    +0.000 F 
ATOM     28  F   UNL     1      -1.130  10.777  20.476  0.00  0.00    +0.000 F 
ATOM     29  F   UNL     1      -0.618   9.346  22.032  0.00  0.00    +0.000 F 
ENDBRANCH  24  26
ENDBRANCH  18  20
ENDBRANCH   9  18
TORSDOF 5
ENDMDL
MODEL 3
REMARK VINA RESULT:      -8.8      1.816      4.732
REMARK  Name = 
REMARK  5 active torsions:
REMARK  status: ('A' for Active; 'I' for Inactive)
REMARK    1  A    between atoms: O_1  and  C_2
REMARK    2  A    between atoms: C_7  and  C_8
REMARK    3  A    between atoms: C_16  and  N_17
REMARK    4  A    between atoms: N_17  and  C_18
REMARK    5  A    between atoms: C_22  and  C_23
REMARK                            x       y       z     vdW  Elec       q    Type
REMARK                         _______ _______ _______ _____ _____    ______ ____
ROOT
ATOM      1  C   UNL     1       4.036   4.677  18.955  0.00  0.00    +0.000 A 
ATOM      2  N   UNL     1       5.291   4.197  19.285  0.00  0.00    +0.000 NA
ATOM      3  C   UNL     1       6.159   5.082  18.841  0.00  0.00    +0.000 A 
ATOM      4  N   UNL     1       7.526   5.026  18.877  0.00  0.00    +0.000 NA
ATOM      5  C   UNL     1       8.156   6.031  18.352  0.00  0.00    +0.000 A 
ATOM      6  C   UNL     1       7.543   7.235  17.731  0.00  0.00    +0.000 A 
ATOM      7  C   UNL     1       6.205   7.233  17.704  0.00  0.00    +0.000 A 
ATOM      8  N   UNL     1       5.499   6.169  18.266  0.00  0.00    +0.000 N 
ATOM      9  C   UNL     1       4.140   5.921  18.346  0.00  0.00    +0.000 A 
ENDROOT
BRANCH   1  15
ATOM     10  C   UNL     1       1.966   3.270  18.414  0.00  0.00    +0.000 A 
ATOM     11  C   UNL     1       0.802   2.625  18.854  0.00  0.00    +0.000 A 
ATOM     12  C   UNL     1       0.468   2.627  20.205  0.00  0.00    +0.000 A 
ATOM     13  C   UNL     1       1.301   3.261  21.119  0.00  0.00    +0.000 A 
ATOM     14  C   UNL     1       2.464   3.903  20.678  0.00  0.00    +0.000 A 
ATOM     15  C   UNL     1       2.818   3.938  19.315  0.00  0.00    +0.000 A 
BRANCH  10  16
ATOM     16  O   UNL     1       2.237   3.212  17.068  0.00  0.00    +0.000 OA
ATOM     17  H   UNL     1       3.199   3.123  16.951  0.00  0.00    +0.000 HD
ENDBRANCH  10  16
ENDBRANCH   1  15
BRANCH   9  18
ATOM     18  N   UNL     1       3.198   6.706  17.763  0.00  0.00    +0.000 N 
ATOM     19  H   UNL     1       2.672   6.234  17.018  0.00  0.00    +0.000 HD
BRANCH  18  20
ATOM     20  C   UNL     1       2.420   7.748  18.309  0.00  0.00    +0.000 A 
ATOM     21  C   UNL     1       2.258   8.898  17.523  0.00  0.00    +0.000 A 
ATOM     22  C   UNL     1       1.573  10.011  18.006  0.00  0.00    +0.000 A 
ATOM     23  C   UNL     1       1.037   9.988  19.290  0.00  0.00    +0.000 A 
ATOM     24  C   UNL     1       1.173   8.849  20.094  0.00  0.00    +0.000 A 
ATOM     25  C   UNL     1       1.871   7.731  19.589  0.00  0.00    +0.000 A 
BRANCH  24  26
ATOM     26  C   UNL     1       0.598   8.807  21.487  0.00  0.00    +0.000 C 
ATOM     27  F   UNL     1      -0.430   7.921  21.624  0.00  0.00    +0.000 F 
ATOM     28  F   UNL     1       1.519   8.458  22.425  0.00  0.00    +0.000 F 
ATOM     29  F   UNL     1       0.101  10.014  21.878  0.00  0.00    +0.000 F 
ENDBRANCH  24  26
ENDBRANCH  18  20
ENDBRANCH   9  18
TORSDOF 5
ENDMDL
MODEL 4
REMARK VINA RESULT:      -8.7      1.652      4.620
REMARK  Name = 
REMARK  5 active torsions:
REMARK  status: ('A' for Active; 'I' for Inactive)
REMARK    1  A    between atoms: O_1  and  C_2
REMARK    2  A    between atoms: C_7  and  C_8
REMARK    3  A    between atoms: C_16  and  N_17
REMARK    4  A    between atoms: N_17  and  C_18
REMARK    5  A    between atoms: C_22  and  C_23
REMARK                            x       y       z     vdW  Elec       q    Type
REMARK                         _______ _______ _______ _____ _____    ______ ____
ROOT
ATOM      1  C   UNL     1       4.065   4.745  18.933  0.00  0.00    +0.000 A 
ATOM      2  N   UNL     1       5.314   4.258  19.276  0.00  0.00    +0.000 NA
ATOM      3  C   UNL     1       6.191   5.141  18.848  0.00  0.00    +0.000 A 
ATOM      4  N   UNL     1       7.558   5.078  18.902  0.00  0.00    +0.000 NA
ATOM      5  C   UNL     1       8.199   6.084  18.391  0.00  0.00    +0.000 A 
ATOM      6  C   UNL     1       7.599   7.294  17.769  0.00  0.00    +0.000 A 
ATOM      7  C   UNL     1       6.262   7.298  17.725  0.00  0.00    +0.000 A 
ATOM      8  N   UNL     1       5.544   6.235  18.271  0.00  0.00    +0.000 N 
ATOM      9  C   UNL     1       4.183   5.992  18.333  0.00  0.00    +0.000 A 
ENDROOT
BRANCH   1  15
ATOM     10  C   UNL     1       2.131   4.112  20.486  0.00  0.00    +0.000 A 
ATOM     11  C   UNL     1       0.990   3.335  20.730  0.00  0.00    +0.000 A 
ATOM     12  C   UNL     1       0.528   2.446  19.765  0.00  0.00    +0.000 A 
ATOM     13  C   UNL     1       1.195   2.340  18.551  0.00  0.00    +0.000 A 
ATOM     14  C   UNL     1       2.334   3.117  18.307  0.00  0.00    +0.000 A 
ATOM     15  C   UNL     1       2.839   4.010  19.273  0.00  0.00    +0.000 A 
BRANCH  10  16
ATOM     16  O   UNL     1       2.517   4.978  21.480  0.00  0.00    +0.000 OA
ATOM     17  H   UNL     1       2.364   4.547  22.340  0.00  0.00    +0.000 HD
ENDBRANCH  10  16
ENDBRANCH   1  15
BRANCH   9  18
ATOM     18  N   UNL     1       3.252   6.785  17.743  0.00  0.00    +0.000 N 
ATOM     19  H   UNL     1       2.750   6.327  16.972  0.00  0.00    +0.000 HD
BRANCH  18  20
ATOM     20  C   UNL     1       2.451   7.808  18.291  0.00  0.00    +0.000 A 
ATOM     21  C   UNL     1       2.278   8.964  17.515  0.00  0.00    +0.000 A 
ATOM     22  C   UNL     1       1.569  10.060  18.002  0.00  0.00    +0.000 A 
ATOM     23  C   UNL     1       1.023  10.015  19.280  0.00  0.00    +0.000 A 
ATOM     24  C   UNL     1       1.169   8.871  20.075  0.00  0.00    +0.000 A 
ATOM     25  C   UNL     1       1.891   7.770  19.566  0.00  0.00    +0.000 A 
BRANCH  24  26
ATOM     26  C   UNL     1       0.583   8.806  21.462  0.00  0.00    +0.000 C 
ATOM     27  F   UNL     1      -0.400   7.870  21.592  0.00  0.00    +0.000 F 
ATOM     28  F   UNL     1       1.510   8.508  22.411  0.00  0.00    +0.000 F 
ATOM     29  F   UNL     1       0.021   9.988  21.841  0.00  0.00    +0.000 F 
ENDBRANCH  24  26
ENDBRANCH  18  20
ENDBRANCH   9  18
TORSDOF 5
ENDMDL
MODEL 5
REMARK VINA RESULT:      -8.7      4.032      5.784
REMARK  Name = 
REMARK  5 active torsions:
REMARK  status: ('A' for Active; 'I' for Inactive)
REMARK    1  A    between atoms: O_1  and  C_2
REMARK    2  A    between atoms: C_7  and  C_8
REMARK    3  A    between atoms: C_16  and  N_17
REMARK    4  A    between atoms: N_17  and  C_18
REMARK    5  A    between atoms: C_22  and  C_23
REMARK                            x       y       z     vdW  Elec       q    Type
REMARK                         _______ _______ _______ _____ _____    ______ ____
ROOT
ATOM      1  C   UNL     1       7.045   5.172  15.554  0.00  0.00    +0.000 A 
ATOM      2  N   UNL     1       7.665   5.468  14.352  0.00  0.00    +0.000 NA
ATOM      3  C   UNL     1       7.083   4.721  13.437  0.00  0.00    +0.000 A 
ATOM      4  N   UNL     1       7.386   4.616  12.107  0.00  0.00    +0.000 NA
ATOM      5  C   UNL     1       6.663   3.788  11.417  0.00  0.00    +0.000 A 
ATOM      6  C   UNL     1       5.539   2.958  11.925  0.00  0.00    +0.000 A 
ATOM      7  C   UNL     1       5.296   3.084  13.235  0.00  0.00    +0.000 A 
ATOM      8  N   UNL     1       6.051   3.970  14.002  0.00  0.00    +0.000 N 
ATOM      9  C   UNL     1       6.015   4.263  15.354  0.00  0.00    +0.000 A 
ENDROOT
BRANCH   1  15
ATOM     10  C   UNL     1       7.701   5.202  18.028  0.00  0.00    +0.000 A 
ATOM     11  C   UNL     1       8.034   5.936  19.175  0.00  0.00    +0.000 A 
ATOM     12  C   UNL     1       8.121   7.324  19.118  0.00  0.00    +0.000 A 
ATOM     13  C   UNL     1       7.890   7.979  17.915  0.00  0.00    +0.000 A 
ATOM     14  C   UNL     1       7.559   7.245  16.770  0.00  0.00    +0.000 A 
ATOM     15  C   UNL     1       7.440   5.841  16.801  0.00  0.00    +0.000 A 
BRANCH  10  16
ATOM     16  O   UNL     1       7.649   3.836  18.160  0.00  0.00    +0.000 OA
ATOM     17  H   UNL     1       7.010   3.488  17.513  0.00  0.00    +0.000 HD
ENDBRANCH  10  16
ENDBRANCH   1  15
BRANCH   9  18
ATOM     18  N   UNL     1       5.219   3.613  16.241  0.00  0.00    +0.000 N 
ATOM     19  H   UNL     1       5.696   2.852  16.740  0.00  0.00    +0.000 HD
BRANCH  18  20
ATOM     20  C   UNL     1       4.144   4.091  17.018  0.00  0.00    +0.000 A 
ATOM     21  C   UNL     1       4.041   5.482  17.170  0.00  0.00    +0.000 A 
ATOM     22  C   UNL     1       3.060   6.048  17.982  0.00  0.00    +0.000 A 
ATOM     23  C   UNL     1       2.164   5.224  18.656  0.00  0.00    +0.000 A 
ATOM     24  C   UNL     1       2.235   3.832  18.515  0.00  0.00    +0.000 A 
ATOM     25  C   UNL     1       3.236   3.276  17.690  0.00  0.00    +0.000 A 
BRANCH  24  26
ATOM     26  C   UNL     1       1.272   2.927  19.239  0.00  0.00    +0.000 C 
ATOM     27  F   UNL     1       0.310   2.399  18.428  0.00  0.00    +0.000 F 
ATOM     28  F   UNL     1       1.888   1.866  19.826  0.00  0.00    +0.000 F 
ATOM     29  F   UNL     1       0.602   3.573  20.234  0.00  0.00    +0.000 F 
ENDBRANCH  24  26
ENDBRANCH  18  20
ENDBRANCH   9  18
TORSDOF 5
ENDMDL
MODEL 6
REMARK VINA RESULT:      -8.6      1.644      1.887
REMARK  Name = 
REMARK  5 active torsions:
REMARK  status: ('A' for Active; 'I' for Inactive)
REMARK    1  A    between atoms: O_1  and  C_2
REMARK    2  A    between atoms: C_7  and  C_8
REMARK    3  A    between atoms: C_16  and  N_17
REMARK    4  A    between atoms: N_17  and  C_18
REMARK    5  A    between atoms: C_22  and  C_23
REMARK                            x       y       z     vdW  Elec       q    Type
REMARK                         _______ _______ _______ _____ _____    ______ ____
ROOT
ATOM      1  C   UNL     1       4.173   4.010  17.707  0.00  0.00    +0.000 A 
ATOM      2  N   UNL     1       3.668   2.730  17.848  0.00  0.00    +0.000 NA
ATOM      3  C   UNL     1       2.736   2.794  18.776  0.00  0.00    +0.000 A 
ATOM      4  N   UNL     1       1.991   1.776  19.305  0.00  0.00    +0.000 NA
ATOM      5  C   UNL     1       1.141   2.107  20.228  0.00  0.00    +0.000 A 
ATOM      6  C   UNL     1       0.892   3.475  20.755  0.00  0.00    +0.000 A 
ATOM      7  C   UNL     1       1.659   4.431  20.217  0.00  0.00    +0.000 A 
ATOM      8  N   UNL     1       2.577   4.108  19.219  0.00  0.00    +0.000 N 
ATOM      9  C   UNL     1       3.486   4.892  18.530  0.00  0.00    +0.000 A 
ENDROOT
BRANCH   1  15
ATOM     10  C   UNL     1       6.601   4.461  17.034  0.00  0.00    +0.000 A 
ATOM     11  C   UNL     1       7.532   4.786  16.037  0.00  0.00    +0.000 A 
ATOM     12  C   UNL     1       7.118   4.960  14.721  0.00  0.00    +0.000 A 
ATOM     13  C   UNL     1       5.777   4.796  14.394  0.00  0.00    +0.000 A 
ATOM     14  C   UNL     1       4.848   4.470  15.390  0.00  0.00    +0.000 A 
ATOM     15  C   UNL     1       5.233   4.310  16.735  0.00  0.00    +0.000 A 
BRANCH  10  16
ATOM     16  O   UNL     1       7.089   4.291  18.307  0.00  0.00    +0.000 OA
ATOM     17  H   UNL     1       8.034   4.524  18.308  0.00  0.00    +0.000 HD
ENDBRANCH  10  16
ENDBRANCH   1  15
BRANCH   9  18
ATOM     18  N   UNL     1       3.703   6.205  18.804  0.00  0.00    +0.000 N 
ATOM     19  H   UNL     1       4.616   6.547  18.481  0.00  0.00    +0.000 HD
BRANCH  18  20
ATOM     20  C   UNL     1       2.793   7.279  18.882  0.00  0.00    +0.000 A 
ATOM     21  C   UNL     1       2.701   8.116  17.760  0.00  0.00    +0.000 A 
ATOM     22  C   UNL     1       1.889   9.249  17.769  0.00  0.00    +0.000 A 
ATOM     23  C   UNL     1       1.154   9.559  18.908  0.00  0.00    +0.000 A 
ATOM     24  C   UNL     1       1.215   8.736  20.040  0.00  0.00    +0.000 A 
ATOM     25  C   UNL     1       2.044   7.594  20.014  0.00  0.00    +0.000 A 
BRANCH  24  26
ATOM     26  C   UNL     1       0.424   9.059  21.282  0.00  0.00    +0.000 C 
ATOM     27  F   UNL     1      -0.287  10.219  21.185  0.00  0.00    +0.000 F 
ATOM     28  F   UNL     1      -0.481   8.093  21.595  0.00  0.00    +0.000 F 
ATOM     29  F   UNL     1       1.218   9.202  22.379  0.00  0.00    +0.000 F 
ENDBRANCH  24  26
ENDBRANCH  18  20
ENDBRANCH   9  18
TORSDOF 5
ENDMDL
MODEL 7
REMARK VINA RESULT:      -8.5      3.601      5.250
REMARK  Name = 
REMARK  5 active torsions:
REMARK  status: ('A' for Active; 'I' for Inactive)
REMARK    1  A    between atoms: O_1  and  C_2
REMARK    2  A    between atoms: C_7  and  C_8
REMARK    3  A    between atoms: C_16  and  N_17
REMARK    4  A    between atoms: N_17  and  C_18
REMARK    5  A    between atoms: C_22  and  C_23
REMARK                            x       y       z     vdW  Elec       q    Type
REMARK                         _______ _______ _______ _____ _____    ______ ____
ROOT
ATOM      1  C   UNL     1       7.041   5.158  15.523  0.00  0.00    +0.000 A 
ATOM      2  N   UNL     1       7.687   5.431  14.330  0.00  0.00    +0.000 NA
ATOM      3  C   UNL     1       7.108   4.688  13.412  0.00  0.00    +0.000 A 
ATOM      4  N   UNL     1       7.432   4.565  12.088  0.00  0.00    +0.000 NA
ATOM      5  C   UNL     1       6.705   3.745  11.393  0.00  0.00    +0.000 A 
ATOM      6  C   UNL     1       5.556   2.942  11.887  0.00  0.00    +0.000 A 
ATOM      7  C   UNL     1       5.292   3.084  13.191  0.00  0.00    +0.000 A 
ATOM      8  N   UNL     1       6.051   3.962  13.964  0.00  0.00    +0.000 N 
ATOM      9  C   UNL     1       5.997   4.268  15.313  0.00  0.00    +0.000 A 
ENDROOT
BRANCH   1  15
ATOM     10  C   UNL     1       7.680   5.194  18.002  0.00  0.00    +0.000 A 
ATOM     11  C   UNL     1       8.005   5.931  19.150  0.00  0.00    +0.000 A 
ATOM     12  C   UNL     1       8.091   7.319  19.091  0.00  0.00    +0.000 A 
ATOM     13  C   UNL     1       7.867   7.971  17.884  0.00  0.00    +0.000 A 
ATOM     14  C   UNL     1       7.544   7.234  16.739  0.00  0.00    +0.000 A 
ATOM     15  C   UNL     1       7.427   5.830  16.772  0.00  0.00    +0.000 A 
BRANCH  10  16
ATOM     16  O   UNL     1       7.629   3.828  18.136  0.00  0.00    +0.000 OA
ATOM     17  H   UNL     1       8.388   3.543  18.674  0.00  0.00    +0.000 HD
ENDBRANCH  10  16
ENDBRANCH   1  15
BRANCH   9  18
ATOM     18  N   UNL     1       5.173   3.640  16.192  0.00  0.00    +0.000 N 
ATOM     19  H   UNL     1       5.629   2.881  16.712  0.00  0.00    +0.000 HD
BRANCH  18  20
ATOM     20  C   UNL     1       4.087   4.143  16.936  0.00  0.00    +0.000 A 
ATOM     21  C   UNL     1       3.079   3.232  17.284  0.00  0.00    +0.000 A 
ATOM     22  C   UNL     1       1.929   3.648  17.951  0.00  0.00    +0.000 A 
ATOM     23  C   UNL     1       1.771   4.990  18.281  0.00  0.00    +0.000 A 
ATOM     24  C   UNL     1       2.766   5.922  17.958  0.00  0.00    +0.000 A 
ATOM     25  C   UNL     1       3.924   5.483  17.280  0.00  0.00    +0.000 A 
BRANCH  24  26
ATOM     26  C   UNL     1       2.610   7.380  18.309  0.00  0.00    +0.000 C 
ATOM     27  F   UNL     1       2.418   7.600  19.641  0.00  0.00    +0.000 F 
ATOM     28  F   UNL     1       3.695   8.123  17.962  0.00  0.00    +0.000 F 
ATOM     29  F   UNL     1       1.545   7.952  17.681  0.00  0.00    +0.000 F 
ENDBRANCH  24  26
ENDBRANCH  18  20
ENDBRANCH   9  18
TORSDOF 5
ENDMDL
MODEL 8
REMARK VINA RESULT:      -8.4      3.612      5.178
REMARK  Name = 
REMARK  5 active torsions:
REMARK  status: ('A' for Active; 'I' for Inactive)
REMARK    1  A    between atoms: O_1  and  C_2
REMARK    2  A    between atoms: C_7  and  C_8
REMARK    3  A    between atoms: C_16  and  N_17
REMARK    4  A    between atoms: N_17  and  C_18
REMARK    5  A    between atoms: C_22  and  C_23
REMARK                            x       y       z     vdW  Elec       q    Type
REMARK                         _______ _______ _______ _____ _____    ______ ____
ROOT
ATOM      1  C   UNL     1       6.902   5.259  15.620  0.00  0.00    +0.000 A 
ATOM      2  N   UNL     1       7.652   5.324  14.458  0.00  0.00    +0.000 NA
ATOM      3  C   UNL     1       6.984   4.654  13.544  0.00  0.00    +0.000 A 
ATOM      4  N   UNL     1       7.346   4.386  12.251  0.00  0.00    +0.000 NA
ATOM      5  C   UNL     1       6.506   3.685  11.553  0.00  0.00    +0.000 A 
ATOM      6  C   UNL     1       5.194   3.158  12.014  0.00  0.00    +0.000 A 
ATOM      7  C   UNL     1       4.896   3.431  13.289  0.00  0.00    +0.000 A 
ATOM      8  N   UNL     1       5.775   4.188  14.063  0.00  0.00    +0.000 N 
ATOM      9  C   UNL     1       5.713   4.582  15.388  0.00  0.00    +0.000 A 
ENDROOT
BRANCH   1  15
ATOM     10  C   UNL     1       7.509   5.295  18.107  0.00  0.00    +0.000 A 
ATOM     11  C   UNL     1       7.905   6.023  19.238  0.00  0.00    +0.000 A 
ATOM     12  C   UNL     1       8.157   7.387  19.140  0.00  0.00    +0.000 A 
ATOM     13  C   UNL     1       8.028   8.025  17.912  0.00  0.00    +0.000 A 
ATOM     14  C   UNL     1       7.634   7.297  16.783  0.00  0.00    +0.000 A 
ATOM     15  C   UNL     1       7.350   5.919  16.854  0.00  0.00    +0.000 A 
BRANCH  10  16
ATOM     16  O   UNL     1       7.293   3.949  18.279  0.00  0.00    +0.000 OA
ATOM     17  H   UNL     1       6.334   3.785  18.247  0.00  0.00    +0.000 HD
ENDBRANCH  10  16
ENDBRANCH   1  15
BRANCH   9  18
ATOM     18  N   UNL     1       4.735   4.187  16.244  0.00  0.00    +0.000 N 
ATOM     19  H   UNL     1       4.859   3.230  16.597  0.00  0.00    +0.000 HD
BRANCH  18  20
ATOM     20  C   UNL     1       3.972   4.938  17.161  0.00  0.00    +0.000 A 
ATOM     21  C   UNL     1       4.037   6.335  17.046  0.00  0.00    +0.000 A 
ATOM     22  C   UNL     1       3.382   7.165  17.954  0.00  0.00    +0.000 A 
ATOM     23  C   UNL     1       2.650   6.604  18.996  0.00  0.00    +0.000 A 
ATOM     24  C   UNL     1       2.558   5.213  19.130  0.00  0.00    +0.000 A 
ATOM     25  C   UNL     1       3.229   4.387  18.202  0.00  0.00    +0.000 A 
BRANCH  24  26
ATOM     26  C   UNL     1       1.768   4.590  20.253  0.00  0.00    +0.000 C 
ATOM     27  F   UNL     1       1.061   3.487  19.873  0.00  0.00    +0.000 F 
ATOM     28  F   UNL     1       2.554   4.190  21.289  0.00  0.00    +0.000 F 
ATOM     29  F   UNL     1       0.855   5.451  20.783  0.00  0.00    +0.000 F 
ENDBRANCH  24  26
ENDBRANCH  18  20
ENDBRANCH   9  18
TORSDOF 5
ENDMDL
MODEL 9
REMARK VINA RESULT:      -8.4      1.772      4.308
REMARK  Name = 
REMARK  5 active torsions:
REMARK  status: ('A' for Active; 'I' for Inactive)
REMARK    1  A    between atoms: O_1  and  C_2
REMARK    2  A    between atoms: C_7  and  C_8
REMARK    3  A    between atoms: C_16  and  N_17
REMARK    4  A    between atoms: N_17  and  C_18
REMARK    5  A    between atoms: C_22  and  C_23
REMARK                            x       y       z     vdW  Elec       q    Type
REMARK                         _______ _______ _______ _____ _____    ______ ____
ROOT
ATOM      1  C   UNL     1       3.712   4.101  18.355  0.00  0.00    +0.000 A 
ATOM      2  N   UNL     1       4.064   3.275  17.301  0.00  0.00    +0.000 NA
ATOM      3  C   UNL     1       4.723   4.025  16.443  0.00  0.00    +0.000 A 
ATOM      4  N   UNL     1       5.224   3.675  15.218  0.00  0.00    +0.000 NA
ATOM      5  C   UNL     1       5.825   4.614  14.555  0.00  0.00    +0.000 A 
ATOM      6  C   UNL     1       6.031   6.019  14.997  0.00  0.00    +0.000 A 
ATOM      7  C   UNL     1       5.507   6.314  16.192  0.00  0.00    +0.000 A 
ATOM      8  N   UNL     1       4.860   5.324  16.932  0.00  0.00    +0.000 N 
ATOM      9  C   UNL     1       4.225   5.376  18.160  0.00  0.00    +0.000 A 
ENDROOT
BRANCH   1  15
ATOM     10  C   UNL     1       3.472   2.694  20.480  0.00  0.00    +0.000 A 
ATOM     11  C   UNL     1       2.667   2.229  21.530  0.00  0.00    +0.000 A 
ATOM     12  C   UNL     1       1.345   2.649  21.639  0.00  0.00    +0.000 A 
ATOM     13  C   UNL     1       0.828   3.544  20.710  0.00  0.00    +0.000 A 
ATOM     14  C   UNL     1       1.634   4.010  19.663  0.00  0.00    +0.000 A 
ATOM     15  C   UNL     1       2.969   3.585  19.513  0.00  0.00    +0.000 A 
BRANCH  10  16
ATOM     16  O   UNL     1       4.770   2.246  20.448  0.00  0.00    +0.000 OA
ATOM     17  H   UNL     1       5.141   2.315  21.346  0.00  0.00    +0.000 HD
ENDBRANCH  10  16
ENDBRANCH   1  15
BRANCH   9  18
ATOM     18  N   UNL     1       4.044   6.523  18.864  0.00  0.00    +0.000 N 
ATOM     19  H   UNL     1       4.910   7.055  19.014  0.00  0.00    +0.000 HD
BRANCH  18  20
ATOM     20  C   UNL     1       2.936   7.394  18.912  0.00  0.00    +0.000 A 
ATOM     21  C   UNL     1       2.661   8.136  17.754  0.00  0.00    +0.000 A 
ATOM     22  C   UNL     1       1.636   9.080  17.728  0.00  0.00    +0.000 A 
ATOM     23  C   UNL     1       0.869   9.295  18.868  0.00  0.00    +0.000 A 
ATOM     24  C   UNL     1       1.113   8.562  20.036  0.00  0.00    +0.000 A 
ATOM     25  C   UNL     1       2.156   7.611  20.045  0.00  0.00    +0.000 A 
BRANCH  24  26
ATOM     26  C   UNL     1       0.290   8.784  21.280  0.00  0.00    +0.000 C 
ATOM     27  F   UNL     1      -0.604   7.783  21.524  0.00  0.00    +0.000 F 
ATOM     28  F   UNL     1       1.052   8.885  22.402  0.00  0.00    +0.000 F 
ATOM     29  F   UNL     1      -0.444   9.929  21.217  0.00  0.00    +0.000 F 
ENDBRANCH  24  26
ENDBRANCH  18  20
ENDBRANCH   9  18
TORSDOF 5
ENDMDL
