MODEL 1
REMARK VINA RESULT:      -7.3      0.000      0.000
REMARK  Name = 
REMARK  5 active torsions:
REMARK  status: ('A' for Active; 'I' for Inactive)
REMARK    1  A    between atoms: C_4  and  C_5
REMARK    2  A    between atoms: C_16  and  N_17
REMARK    3  A    between atoms: N_17  and  C_18
REMARK    4  A    between atoms: C_18  and  C_19
REMARK    5  A    between atoms: C_19  and  O_20
REMARK                            x       y       z     vdW  Elec       q    Type
REMARK                         _______ _______ _______ _____ _____    ______ ____
ROOT
ATOM      1  O   UNL     1       5.475   6.621  15.681  0.00  0.00    +0.000 OA
ATOM      2  C   UNL     1       4.702   6.304  16.582  0.00  0.00    +0.000 C 
ATOM      3  C   UNL     1       4.013   7.327  17.444  0.00  0.00    +0.000 C 
ATOM      4  C   UNL     1       2.583   6.905  17.811  0.00  0.00    +0.000 C 
ATOM      5  C   UNL     1       2.491   5.487  18.395  0.00  0.00    +0.000 C 
ATOM      6  C   UNL     1       3.205   4.464  17.543  0.00  0.00    +0.000 C 
ATOM      7  O   UNL     1       2.795   3.315  17.420  0.00  0.00    +0.000 OA
ATOM      8  C   UNL     1       4.508   4.894  16.987  0.00  0.00    +0.000 C 
ATOM      9  C   UNL     1       5.579   4.114  17.200  0.00  0.00    +0.000 C 
ENDROOT
BRANCH   4  10
ATOM     10  C   UNL     1       1.980   7.915  18.774  0.00  0.00    +0.000 A 
ATOM     11  C   UNL     1       1.878   7.614  20.141  0.00  0.00    +0.000 A 
ATOM     12  C   UNL     1       1.306   8.530  21.028  0.00  0.00    +0.000 A 
ATOM     13  C   UNL     1       0.831   9.752  20.560  0.00  0.00    +0.000 A 
ATOM     14 CL   UNL     1       0.121  10.874  21.652  0.00  0.00    +0.000 Cl
ATOM     15  C   UNL     1       0.929  10.070  19.209  0.00  0.00    +0.000 A 
ATOM     16  C   UNL     1       1.502   9.159  18.322  0.00  0.00    +0.000 A 
ENDBRANCH   4  10
BRANCH   9  17
ATOM     17  N   UNL     1       6.904   4.449  17.015  0.00  0.00    +0.000 N 
ATOM     18  H   UNL     1       7.267   4.218  16.082  0.00  0.00    +0.000 HD
BRANCH  17  19
ATOM     19  C   UNL     1       7.895   4.592  18.076  0.00  0.00    +0.000 C 
BRANCH  19  20
ATOM     20  C   UNL     1       7.495   5.752  18.995  0.00  0.00    +0.000 C 
BRANCH  20  21
ATOM     21  O   UNL     1       7.846   5.466  20.348  0.00  0.00    +0.000 OA
ATOM     22  H   UNL     1       8.552   6.101  20.569  0.00  0.00    +0.000 HD
ENDBRANCH  20  21
ENDBRANCH  19  20
ENDBRANCH  17  19
ENDBRANCH   9  17
TORSDOF 5
ENDMDL
MODEL 2
REMARK VINA RESULT:      -7.1      0.870      1.387
REMARK  Name = 
REMARK  5 active torsions:
REMARK  status: ('A' for Active; 'I' for Inactive)
REMARK    1  A    between atoms: C_4  and  C_5
REMARK    2  A    between atoms: C_16  and  N_17
REMARK    3  A    between atoms: N_17  and  C_18
REMARK    4  A    between atoms: C_18  and  C_19
REMARK    5  A    between atoms: C_19  and  O_20
REMARK                            x       y       z     vdW  Elec       q    Type
REMARK                         _______ _______ _______ _____ _____    ______ ____
ROOT
ATOM      1  O   UNL     1       5.327   6.669  15.716  0.00  0.00    +0.000 OA
ATOM      2  C   UNL     1       4.562   6.333  16.618  0.00  0.00    +0.000 C 
ATOM      3  C   UNL     1       3.888   7.338  17.512  0.00  0.00    +0.000 C 
ATOM      4  C   UNL     1       2.459   6.916  17.883  0.00  0.00    +0.000 C 
ATOM      5  C   UNL     1       2.366   5.484  18.433  0.00  0.00    +0.000 C 
ATOM      6  C   UNL     1       3.065   4.478  17.549  0.00  0.00    +0.000 C 
ATOM      7  O   UNL     1       2.647   3.335  17.402  0.00  0.00    +0.000 OA
ATOM      8  C   UNL     1       4.364   4.915  16.990  0.00  0.00    +0.000 C 
ATOM      9  C   UNL     1       5.433   4.124  17.173  0.00  0.00    +0.000 C 
ENDROOT
BRANCH   4  10
ATOM     10  C   UNL     1       1.872   7.904  18.877  0.00  0.00    +0.000 A 
ATOM     11  C   UNL     1       1.405   9.153  18.440  0.00  0.00    +0.000 A 
ATOM     12  C   UNL     1       0.882  10.074  19.353  0.00  0.00    +0.000 A 
ATOM     13  C   UNL     1       0.822   9.757  20.707  0.00  0.00    +0.000 A 
ATOM     14 CL   UNL     1       0.187  10.894  21.828  0.00  0.00    +0.000 Cl
ATOM     15  C   UNL     1       1.276   8.521  21.159  0.00  0.00    +0.000 A 
ATOM     16  C   UNL     1       1.795   7.599  20.250  0.00  0.00    +0.000 A 
ENDBRANCH   4  10
BRANCH   9  17
ATOM     17  N   UNL     1       6.758   4.456  16.982  0.00  0.00    +0.000 N 
ATOM     18  H   UNL     1       7.159   4.091  16.109  0.00  0.00    +0.000 HD
BRANCH  17  19
ATOM     19  C   UNL     1       7.707   4.786  18.040  0.00  0.00    +0.000 C 
BRANCH  19  20
ATOM     20  C   UNL     1       7.753   6.307  18.228  0.00  0.00    +0.000 C 
BRANCH  20  21
ATOM     21  O   UNL     1       7.817   6.968  16.964  0.00  0.00    +0.000 OA
ATOM     22  H   UNL     1       8.056   6.273  16.323  0.00  0.00    +0.000 HD
ENDBRANCH  20  21
ENDBRANCH  19  20
ENDBRANCH  17  19
ENDBRANCH   9  17
TORSDOF 5
ENDMDL
MODEL 3
REMARK VINA RESULT:      -7.0      1.388      1.805
REMARK  Name = 
REMARK  5 active torsions:
REMARK  status: ('A' for Active; 'I' for Inactive)
REMARK    1  A    between atoms: C_4  and  C_5
REMARK    2  A    between atoms: C_16  and  N_17
REMARK    3  A    between atoms: N_17  and  C_18
REMARK    4  A    between atoms: C_18  and  C_19
REMARK    5  A    between atoms: C_19  and  O_20
REMARK                            x       y       z     vdW  Elec       q    Type
REMARK                         _______ _______ _______ _____ _____    ______ ____
ROOT
ATOM      1  O   UNL     1       4.906   5.732  16.200  0.00  0.00    +0.000 OA
ATOM      2  C   UNL     1       4.314   5.850  17.270  0.00  0.00    +0.000 C 
ATOM      3  C   UNL     1       3.663   7.141  17.688  0.00  0.00    +0.000 C 
ATOM      4  C   UNL     1       2.355   6.906  18.457  0.00  0.00    +0.000 C 
ATOM      5  C   UNL     1       2.499   5.916  19.623  0.00  0.00    +0.000 C 
ATOM      6  C   UNL     1       3.177   4.631  19.211  0.00  0.00    +0.000 C 
ATOM      7  O   UNL     1       2.873   3.546  19.696  0.00  0.00    +0.000 OA
ATOM      8  C   UNL     1       4.330   4.783  18.295  0.00  0.00    +0.000 C 
ATOM      9  C   UNL     1       5.495   4.213  18.639  0.00  0.00    +0.000 C 
ENDROOT
BRANCH   4  10
ATOM     10  C   UNL     1       1.805   8.233  18.954  0.00  0.00    +0.000 A 
ATOM     11  C   UNL     1       1.699   9.325  18.080  0.00  0.00    +0.000 A 
ATOM     12  C   UNL     1       1.212  10.554  18.535  0.00  0.00    +0.000 A 
ATOM     13  C   UNL     1       0.828  10.702  19.865  0.00  0.00    +0.000 A 
ATOM     14 CL   UNL     1       0.236  12.216  20.425  0.00  0.00    +0.000 Cl
ATOM     15  C   UNL     1       0.920   9.628  20.745  0.00  0.00    +0.000 A 
ATOM     16  C   UNL     1       1.403   8.401  20.293  0.00  0.00    +0.000 A 
ENDBRANCH   4  10
BRANCH   9  17
ATOM     17  N   UNL     1       6.735   4.453  18.086  0.00  0.00    +0.000 N 
ATOM     18  H   UNL     1       7.058   3.715  17.448  0.00  0.00    +0.000 HD
BRANCH  17  19
ATOM     19  C   UNL     1       7.769   5.301  18.668  0.00  0.00    +0.000 C 
BRANCH  19  20
ATOM     20  C   UNL     1       7.718   6.688  18.017  0.00  0.00    +0.000 C 
BRANCH  20  21
ATOM     21  O   UNL     1       7.624   6.574  16.598  0.00  0.00    +0.000 OA
ATOM     22  H   UNL     1       8.368   6.000  16.337  0.00  0.00    +0.000 HD
ENDBRANCH  20  21
ENDBRANCH  19  20
ENDBRANCH  17  19
ENDBRANCH   9  17
TORSDOF 5
ENDMDL
MODEL 4
REMARK VINA RESULT:      -7.0      2.710      3.017
REMARK  Name = 
REMARK  5 active torsions:
REMARK  status: ('A' for Active; 'I' for Inactive)
REMARK    1  A    between atoms: C_4  and  C_5
REMARK    2  A    between atoms: C_16  and  N_17
REMARK    3  A    between atoms: N_17  and  C_18
REMARK    4  A    between atoms: C_18  and  C_19
REMARK    5  A    between atoms: C_19  and  O_20
REMARK                            x       y       z     vdW  Elec       q    Type
REMARK                         _______ _______ _______ _____ _____    ______ ____
ROOT
ATOM      1  O   UNL     1       6.208   4.243  19.077  0.00  0.00    +0.000 OA
ATOM      2  C   UNL     1       4.998   4.405  18.935  0.00  0.00    +0.000 C 
ATOM      3  C   UNL     1       4.323   5.716  19.236  0.00  0.00    +0.000 C 
ATOM      4  C   UNL     1       3.181   6.017  18.255  0.00  0.00    +0.000 C 
ATOM      5  C   UNL     1       2.180   4.861  18.106  0.00  0.00    +0.000 C 
ATOM      6  C   UNL     1       2.858   3.540  17.830  0.00  0.00    +0.000 C 
ATOM      7  O   UNL     1       2.357   2.687  17.105  0.00  0.00    +0.000 OA
ATOM      8  C   UNL     1       4.091   3.282  18.606  0.00  0.00    +0.000 C 
ATOM      9  C   UNL     1       4.178   2.137  19.300  0.00  0.00    +0.000 C 
ENDROOT
BRANCH   4  10
ATOM     10  C   UNL     1       2.463   7.289  18.676  0.00  0.00    +0.000 A 
ATOM     11  C   UNL     1       2.030   7.451  20.000  0.00  0.00    +0.000 A 
ATOM     12  C   UNL     1       1.351   8.610  20.388  0.00  0.00    +0.000 A 
ATOM     13  C   UNL     1       1.100   9.615  19.458  0.00  0.00    +0.000 A 
ATOM     14 CL   UNL     1       0.259  11.036  19.935  0.00  0.00    +0.000 Cl
ATOM     15  C   UNL     1       1.527   9.475  18.141  0.00  0.00    +0.000 A 
ATOM     16  C   UNL     1       2.207   8.321  17.752  0.00  0.00    +0.000 A 
ENDBRANCH   4  10
BRANCH   9  17
ATOM     17  N   UNL     1       5.094   1.825  20.283  0.00  0.00    +0.000 N 
ATOM     18  H   UNL     1       6.065   1.788  19.952  0.00  0.00    +0.000 HD
BRANCH  17  19
ATOM     19  C   UNL     1       4.800   1.090  21.508  0.00  0.00    +0.000 C 
BRANCH  19  20
ATOM     20  C   UNL     1       6.034   0.283  21.928  0.00  0.00    +0.000 C 
BRANCH  20  21
ATOM     21  O   UNL     1       6.898   1.074  22.744  0.00  0.00    +0.000 OA
ATOM     22  H   UNL     1       6.807   0.708  23.643  0.00  0.00    +0.000 HD
ENDBRANCH  20  21
ENDBRANCH  19  20
ENDBRANCH  17  19
ENDBRANCH   9  17
TORSDOF 5
ENDMDL
MODEL 5
REMARK VINA RESULT:      -6.9      1.602      1.765
REMARK  Name = 
REMARK  5 active torsions:
REMARK  status: ('A' for Active; 'I' for Inactive)
REMARK    1  A    between atoms: C_4  and  C_5
REMARK    2  A    between atoms: C_16  and  N_17
REMARK    3  A    between atoms: N_17  and  C_18
REMARK    4  A    between atoms: C_18  and  C_19
REMARK    5  A    between atoms: C_19  and  O_20
REMARK                            x       y       z     vdW  Elec       q    Type
REMARK                         _______ _______ _______ _____ _____    ______ ____
ROOT
ATOM      1  O   UNL     1       4.651   5.363  16.301  0.00  0.00    +0.000 OA
ATOM      2  C   UNL     1       4.174   5.681  17.388  0.00  0.00    +0.000 C 
ATOM      3  C   UNL     1       3.581   7.041  17.636  0.00  0.00    +0.000 C 
ATOM      4  C   UNL     1       2.357   6.979  18.561  0.00  0.00    +0.000 C 
ATOM      5  C   UNL     1       2.610   6.202  19.862  0.00  0.00    +0.000 C 
ATOM      6  C   UNL     1       3.230   4.847  19.616  0.00  0.00    +0.000 C 
ATOM      7  O   UNL     1       2.966   3.871  20.311  0.00  0.00    +0.000 OA
ATOM      8  C   UNL     1       4.284   4.807  18.577  0.00  0.00    +0.000 C 
ATOM      9  C   UNL     1       5.473   4.273  18.898  0.00  0.00    +0.000 C 
ENDROOT
BRANCH   4  10
ATOM     10  C   UNL     1       1.873   8.387  18.870  0.00  0.00    +0.000 A 
ATOM     11  C   UNL     1       1.162   8.646  20.051  0.00  0.00    +0.000 A 
ATOM     12  C   UNL     1       0.697   9.934  20.331  0.00  0.00    +0.000 A 
ATOM     13  C   UNL     1       0.937  10.973  19.435  0.00  0.00    +0.000 A 
ATOM     14 CL   UNL     1       0.358  12.554  19.777  0.00  0.00    +0.000 Cl
ATOM     15  C   UNL     1       1.646  10.736  18.261  0.00  0.00    +0.000 A 
ATOM     16  C   UNL     1       2.114   9.452  17.981  0.00  0.00    +0.000 A 
ENDBRANCH   4  10
BRANCH   9  17
ATOM     17  N   UNL     1       6.652   4.379  18.191  0.00  0.00    +0.000 N 
ATOM     18  H   UNL     1       6.875   3.552  17.624  0.00  0.00    +0.000 HD
BRANCH  17  19
ATOM     19  C   UNL     1       7.774   5.241  18.546  0.00  0.00    +0.000 C 
BRANCH  19  20
ATOM     20  C   UNL     1       7.545   6.641  17.965  0.00  0.00    +0.000 C 
BRANCH  20  21
ATOM     21  O   UNL     1       7.575   6.606  16.539  0.00  0.00    +0.000 OA
ATOM     22  H   UNL     1       7.629   7.539  16.261  0.00  0.00    +0.000 HD
ENDBRANCH  20  21
ENDBRANCH  19  20
ENDBRANCH  17  19
ENDBRANCH   9  17
TORSDOF 5
ENDMDL
MODEL 6
REMARK VINA RESULT:      -6.9      4.667      7.464
REMARK  Name = 
REMARK  5 active torsions:
REMARK  status: ('A' for Active; 'I' for Inactive)
REMARK    1  A    between atoms: C_4  and  C_5
REMARK    2  A    between atoms: C_16  and  N_17
REMARK    3  A    between atoms: N_17  and  C_18
REMARK    4  A    between atoms: C_18  and  C_19
REMARK    5  A    between atoms: C_19  and  O_20
REMARK                            x       y       z     vdW  Elec       q    Type
REMARK                         _______ _______ _______ _____ _____    ______ ____
ROOT
ATOM      1  O   UNL     1       2.034  10.138  17.378  0.00  0.00    +0.000 OA
ATOM      2  C   UNL     1       1.807   9.253  18.201  0.00  0.00    +0.000 C 
ATOM      3  C   UNL     1       2.196   7.819  17.964  0.00  0.00    +0.000 C 
ATOM      4  C   UNL     1       2.658   7.125  19.253  0.00  0.00    +0.000 C 
ATOM      5  C   UNL     1       1.672   7.281  20.421  0.00  0.00    +0.000 C 
ATOM      6  C   UNL     1       1.260   8.718  20.642  0.00  0.00    +0.000 C 
ATOM      7  O   UNL     1       1.039   9.169  21.761  0.00  0.00    +0.000 OA
ATOM      8  C   UNL     1       0.999   9.502  19.415  0.00  0.00    +0.000 C 
ATOM      9  C   UNL     1      -0.175  10.144  19.308  0.00  0.00    +0.000 C 
ENDROOT
BRANCH   4  10
ATOM     10  C   UNL     1       2.925   5.654  18.978  0.00  0.00    +0.000 A 
ATOM     11  C   UNL     1       2.117   4.946  18.077  0.00  0.00    +0.000 A 
ATOM     12  C   UNL     1       2.346   3.588  17.835  0.00  0.00    +0.000 A 
ATOM     13  C   UNL     1       3.381   2.927  18.491  0.00  0.00    +0.000 A 
ATOM     14 CL   UNL     1       3.655   1.256  18.199  0.00  0.00    +0.000 Cl
ATOM     15  C   UNL     1       4.196   3.615  19.385  0.00  0.00    +0.000 A 
ATOM     16  C   UNL     1       3.973   4.970  19.625  0.00  0.00    +0.000 A 
ENDBRANCH   4  10
BRANCH   9  17
ATOM     17  N   UNL     1      -0.725  10.692  18.168  0.00  0.00    +0.000 N 
ATOM     18  H   UNL     1      -0.164  10.543  17.321  0.00  0.00    +0.000 HD
BRANCH  17  19
ATOM     19  C   UNL     1      -1.659  11.811  18.136  0.00  0.00    +0.000 C 
BRANCH  19  20
ATOM     20  C   UNL     1      -2.858  11.451  17.251  0.00  0.00    +0.000 C 
BRANCH  20  21
ATOM     21  O   UNL     1      -2.484  11.456  15.873  0.00  0.00    +0.000 OA
ATOM     22  H   UNL     1      -3.203  11.930  15.415  0.00  0.00    +0.000 HD
ENDBRANCH  20  21
ENDBRANCH  19  20
ENDBRANCH  17  19
ENDBRANCH   9  17
TORSDOF 5
ENDMDL
MODEL 7
REMARK VINA RESULT:      -6.8      2.937      3.394
REMARK  Name = 
REMARK  5 active torsions:
REMARK  status: ('A' for Active; 'I' for Inactive)
REMARK    1  A    between atoms: C_4  and  C_5
REMARK    2  A    between atoms: C_16  and  N_17
REMARK    3  A    between atoms: N_17  and  C_18
REMARK    4  A    between atoms: C_18  and  C_19
REMARK    5  A    between atoms: C_19  and  O_20
REMARK                            x       y       z     vdW  Elec       q    Type
REMARK                         _______ _______ _______ _____ _____    ______ ____
ROOT
ATOM      1  O   UNL     1       6.151   4.150  19.215  0.00  0.00    +0.000 OA
ATOM      2  C   UNL     1       4.940   4.306  19.074  0.00  0.00    +0.000 C 
ATOM      3  C   UNL     1       4.263   5.620  19.356  0.00  0.00    +0.000 C 
ATOM      4  C   UNL     1       3.117   5.902  18.375  0.00  0.00    +0.000 C 
ATOM      5  C   UNL     1       2.118   4.743  18.247  0.00  0.00    +0.000 C 
ATOM      6  C   UNL     1       2.799   3.418  17.990  0.00  0.00    +0.000 C 
ATOM      7  O   UNL     1       2.298   2.553  17.281  0.00  0.00    +0.000 OA
ATOM      8  C   UNL     1       4.036   3.176  18.766  0.00  0.00    +0.000 C 
ATOM      9  C   UNL     1       4.128   2.042  19.478  0.00  0.00    +0.000 C 
ENDROOT
BRANCH   4  10
ATOM     10  C   UNL     1       2.398   7.179  18.778  0.00  0.00    +0.000 A 
ATOM     11  C   UNL     1       2.144   8.178  17.826  0.00  0.00    +0.000 A 
ATOM     12  C   UNL     1       1.501   9.363  18.194  0.00  0.00    +0.000 A 
ATOM     13  C   UNL     1       1.106   9.561  19.515  0.00  0.00    +0.000 A 
ATOM     14 CL   UNL     1       0.322  11.022  19.968  0.00  0.00    +0.000 Cl
ATOM     15  C   UNL     1       1.344   8.579  20.472  0.00  0.00    +0.000 A 
ATOM     16  C   UNL     1       1.983   7.395  20.106  0.00  0.00    +0.000 A 
ENDBRANCH   4  10
BRANCH   9  17
ATOM     17  N   UNL     1       5.048   1.749  20.463  0.00  0.00    +0.000 N 
ATOM     18  H   UNL     1       5.696   2.517  20.671  0.00  0.00    +0.000 HD
BRANCH  17  19
ATOM     19  C   UNL     1       5.495   0.409  20.828  0.00  0.00    +0.000 C 
BRANCH  19  20
ATOM     20  C   UNL     1       6.112   0.441  22.231  0.00  0.00    +0.000 C 
BRANCH  20  21
ATOM     21  O   UNL     1       6.361  -0.883  22.702  0.00  0.00    +0.000 OA
ATOM     22  H   UNL     1       7.328  -0.997  22.644  0.00  0.00    +0.000 HD
ENDBRANCH  20  21
ENDBRANCH  19  20
ENDBRANCH  17  19
ENDBRANCH   9  17
TORSDOF 5
ENDMDL
MODEL 8
REMARK VINA RESULT:      -6.7      3.574      5.248
REMARK  Name = 
REMARK  5 active torsions:
REMARK  status: ('A' for Active; 'I' for Inactive)
REMARK    1  A    between atoms: C_4  and  C_5
REMARK    2  A    between atoms: C_16  and  N_17
REMARK    3  A    between atoms: N_17  and  C_18
REMARK    4  A    between atoms: C_18  and  C_19
REMARK    5  A    between atoms: C_19  and  O_20
REMARK                            x       y       z     vdW  Elec       q    Type
REMARK                         _______ _______ _______ _____ _____    ______ ____
ROOT
ATOM      1  O   UNL     1       7.997   4.175  16.476  0.00  0.00    +0.000 OA
ATOM      2  C   UNL     1       6.829   4.533  16.613  0.00  0.00    +0.000 C 
ATOM      3  C   UNL     1       5.953   4.005  17.716  0.00  0.00    +0.000 C 
ATOM      4  C   UNL     1       5.003   5.078  18.265  0.00  0.00    +0.000 C 
ATOM      5  C   UNL     1       4.200   5.802  17.173  0.00  0.00    +0.000 C 
ATOM      6  C   UNL     1       5.076   6.310  16.052  0.00  0.00    +0.000 C 
ATOM      7  O   UNL     1       4.838   7.358  15.460  0.00  0.00    +0.000 OA
ATOM      8  C   UNL     1       6.151   5.391  15.616  0.00  0.00    +0.000 C 
ATOM      9  C   UNL     1       6.237   5.085  14.313  0.00  0.00    +0.000 C 
ENDROOT
BRANCH   4  10
ATOM     10  C   UNL     1       4.065   4.461  19.290  0.00  0.00    +0.000 A 
ATOM     11  C   UNL     1       4.124   3.086  19.563  0.00  0.00    +0.000 A 
ATOM     12  C   UNL     1       3.251   2.509  20.490  0.00  0.00    +0.000 A 
ATOM     13  C   UNL     1       2.313   3.298  21.151  0.00  0.00    +0.000 A 
ATOM     14 CL   UNL     1       1.236   2.586  22.285  0.00  0.00    +0.000 Cl
ATOM     15  C   UNL     1       2.244   4.665  20.897  0.00  0.00    +0.000 A 
ATOM     16  C   UNL     1       3.116   5.244  19.975  0.00  0.00    +0.000 A 
ENDBRANCH   4  10
BRANCH   9  17
ATOM     17  N   UNL     1       6.968   4.064  13.742  0.00  0.00    +0.000 N 
ATOM     18  H   UNL     1       7.827   3.829  14.254  0.00  0.00    +0.000 HD
BRANCH  17  19
ATOM     19  C   UNL     1       6.929   3.683  12.335  0.00  0.00    +0.000 C 
BRANCH  19  20
ATOM     20  C   UNL     1       5.640   2.903  12.052  0.00  0.00    +0.000 C 
BRANCH  20  21
ATOM     21  O   UNL     1       5.939   1.607  11.534  0.00  0.00    +0.000 OA
ATOM     22  H   UNL     1       6.110   1.745  10.584  0.00  0.00    +0.000 HD
ENDBRANCH  20  21
ENDBRANCH  19  20
ENDBRANCH  17  19
ENDBRANCH   9  17
TORSDOF 5
ENDMDL
MODEL 9
REMARK VINA RESULT:      -6.7      4.805      7.411
REMARK  Name = 
REMARK  5 active torsions:
REMARK  status: ('A' for Active; 'I' for Inactive)
REMARK    1  A    between atoms: C_4  and  C_5
REMARK    2  A    between atoms: C_16  and  N_17
REMARK    3  A    between atoms: N_17  and  C_18
REMARK    4  A    between atoms: C_18  and  C_19
REMARK    5  A    between atoms: C_19  and  O_20
REMARK                            x       y       z     vdW  Elec       q    Type
REMARK                         _______ _______ _______ _____ _____    ______ ____
ROOT
ATOM      1  O   UNL     1       2.154  10.011  17.356  0.00  0.00    +0.000 OA
ATOM      2  C   UNL     1       1.895   9.150  18.195  0.00  0.00    +0.000 C 
ATOM      3  C   UNL     1       2.266   7.705  18.001  0.00  0.00    +0.000 C 
ATOM      4  C   UNL     1       2.688   7.035  19.317  0.00  0.00    +0.000 C 
ATOM      5  C   UNL     1       1.680   7.235  20.458  0.00  0.00    +0.000 C 
ATOM      6  C   UNL     1       1.286   8.683  20.636  0.00  0.00    +0.000 C 
ATOM      7  O   UNL     1       1.048   9.165  21.738  0.00  0.00    +0.000 OA
ATOM      8  C   UNL     1       1.065   9.442  19.385  0.00  0.00    +0.000 C 
ATOM      9  C   UNL     1      -0.096  10.099  19.236  0.00  0.00    +0.000 C 
ENDROOT
BRANCH   4  10
ATOM     10  C   UNL     1       2.937   5.554  19.083  0.00  0.00    +0.000 A 
ATOM     11  C   UNL     1       4.137   4.964  19.507  0.00  0.00    +0.000 A 
ATOM     12  C   UNL     1       4.381   3.607  19.277  0.00  0.00    +0.000 A 
ATOM     13  C   UNL     1       3.430   2.828  18.623  0.00  0.00    +0.000 A 
ATOM     14 CL   UNL     1       3.734   1.162  18.335  0.00  0.00    +0.000 Cl
ATOM     15  C   UNL     1       2.231   3.395  18.200  0.00  0.00    +0.000 A 
ATOM     16  C   UNL     1       1.984   4.748  18.431  0.00  0.00    +0.000 A 
ENDBRANCH   4  10
BRANCH   9  17
ATOM     17  N   UNL     1      -0.612  10.627  18.072  0.00  0.00    +0.000 N 
ATOM     18  H   UNL     1      -0.252  11.561  17.842  0.00  0.00    +0.000 HD
BRANCH  17  19
ATOM     19  C   UNL     1      -1.891  10.262  17.473  0.00  0.00    +0.000 C 
BRANCH  19  20
ATOM     20  C   UNL     1      -2.446  11.456  16.687  0.00  0.00    +0.000 C 
BRANCH  20  21
ATOM     21  O   UNL     1      -3.625  11.964  17.311  0.00  0.00    +0.000 OA
ATOM     22  H   UNL     1      -3.457  12.917  17.438  0.00  0.00    +0.000 HD
ENDBRANCH  20  21
ENDBRANCH  19  20
ENDBRANCH  17  19
ENDBRANCH   9  17
TORSDOF 5
ENDMDL
