MODEL 1
REMARK VINA RESULT:      -8.9      0.000      0.000
REMARK  Name = 
REMARK  6 active torsions:
REMARK  status: ('A' for Active; 'I' for Inactive)
REMARK    1  A    between atoms: C_2  and  C_4
REMARK    2  A    between atoms: C_4  and  C_5
REMARK    3  A    between atoms: C_7  and  C_8
REMARK    4  A    between atoms: C_11  and  C_12
REMARK    5  A    between atoms: C_12  and  N_13
REMARK    6  A    between atoms: C_15  and  C_16
REMARK                            x       y       z     vdW  Elec       q    Type
REMARK                         _______ _______ _______ _____ _____    ______ ____
ROOT
ATOM      1  C   UNL     1       2.222   7.730  19.148  0.00  0.00    +0.000 A 
ATOM      2  C   UNL     1       1.462   8.250  20.205  0.00  0.00    +0.000 A 
ATOM      3  C   UNL     1       0.841   9.498  20.092  0.00  0.00    +0.000 A 
ATOM      4  C   UNL     1       0.960  10.249  18.917  0.00  0.00    +0.000 A 
ATOM      5  C   UNL     1       1.736   9.740  17.865  0.00  0.00    +0.000 A 
ATOM      6  C   UNL     1       2.360   8.495  17.981  0.00  0.00    +0.000 A 
ENDROOT
BRANCH   1   9
ATOM      7  C   UNL     1       3.069   4.361  19.670  0.00  0.00    +0.000 A 
ATOM      8  N   UNL     1       2.176   5.323  19.766  0.00  0.00    +0.000 NA
ATOM      9  C   UNL     1       2.847   6.418  19.265  0.00  0.00    +0.000 A 
ATOM     10  N   UNL     1       4.113   6.160  18.901  0.00  0.00    +0.000 NA
ATOM     11  O   UNL     1       4.259   4.801  19.155  0.00  0.00    +0.000 OA
BRANCH   7  12
ATOM     12  C   UNL     1       2.843   2.916  20.117  0.00  0.00    +0.000 C 
ATOM     13  C   UNL     1       1.421   2.512  20.494  0.00  0.00    +0.000 C 
ATOM     14  C   UNL     1       2.442   2.661  21.567  0.00  0.00    +0.000 C 
BRANCH  12  16
ATOM     15  N   UNL     1       3.278   1.233  18.485  0.00  0.00    +0.000 NA
ATOM     16  C   UNL     1       3.745   1.950  19.443  0.00  0.00    +0.000 C 
ATOM     17  N   UNL     1       5.030   1.902  19.885  0.00  0.00    +0.000 N 
ATOM     18  H   UNL     1       4.008   0.610  18.133  0.00  0.00    +0.000 HD
ATOM     19  H   UNL     1       5.719   1.551  19.231  0.00  0.00    +0.000 HD
ATOM     20  H   UNL     1       5.362   2.698  20.421  0.00  0.00    +0.000 HD
ENDBRANCH  12  16
ENDBRANCH   7  12
ENDBRANCH   1   9
BRANCH   4  21
ATOM     21  C   UNL     1       0.291  11.598  18.800  0.00  0.00    +0.000 C 
BRANCH  21  22
ATOM     22  N   UNL     1      -1.115  11.466  18.468  0.00  0.00    +0.000 N 
ATOM     23  C   UNL     1      -2.176  12.076  19.069  0.00  0.00    +0.000 A 
ATOM     24  C   UNL     1      -3.274  11.539  18.434  0.00  0.00    +0.000 A 
ATOM     25  N   UNL     1      -2.840  10.701  17.436  0.00  0.00    +0.000 NA
ATOM     26  N   UNL     1      -1.513  10.674  17.457  0.00  0.00    +0.000 NA
BRANCH  24  27
ATOM     27  C   UNL     1      -4.669  11.762  18.768  0.00  0.00    +0.000 A 
ATOM     28  C   UNL     1      -5.047  12.455  19.930  0.00  0.00    +0.000 A 
ATOM     29  C   UNL     1      -6.395  12.617  20.258  0.00  0.00    +0.000 A 
ATOM     30  C   UNL     1      -7.384  12.092  19.431  0.00  0.00    +0.000 A 
ATOM     31  C   UNL     1      -7.026  11.410  18.270  0.00  0.00    +0.000 A 
ATOM     32  C   UNL     1      -5.677  11.248  17.941  0.00  0.00    +0.000 A 
ENDBRANCH  24  27
ENDBRANCH  21  22
ENDBRANCH   4  21
TORSDOF 6
ENDMDL
MODEL 2
REMARK VINA RESULT:      -8.8      0.083      1.410
REMARK  Name = 
REMARK  6 active torsions:
REMARK  status: ('A' for Active; 'I' for Inactive)
REMARK    1  A    between atoms: C_2  and  C_4
REMARK    2  A    between atoms: C_4  and  C_5
REMARK    3  A    between atoms: C_7  and  C_8
REMARK    4  A    between atoms: C_11  and  C_12
REMARK    5  A    between atoms: C_12  and  N_13
REMARK    6  A    between atoms: C_15  and  C_16
REMARK                            x       y       z     vdW  Elec       q    Type
REMARK                         _______ _______ _______ _____ _____    ______ ____
ROOT
ATOM      1  C   UNL     1       2.152   7.731  19.219  0.00  0.00    +0.000 A 
ATOM      2  C   UNL     1       2.276   8.476  18.038  0.00  0.00    +0.000 A 
ATOM      3  C   UNL     1       1.668   9.730  17.918  0.00  0.00    +0.000 A 
ATOM      4  C   UNL     1       0.933  10.269  18.980  0.00  0.00    +0.000 A 
ATOM      5  C   UNL     1       0.792   9.518  20.156  0.00  0.00    +0.000 A 
ATOM      6  C   UNL     1       1.394   8.263  20.272  0.00  0.00    +0.000 A 
ENDROOT
BRANCH   1   9
ATOM      7  C   UNL     1       3.073   4.381  19.739  0.00  0.00    +0.000 A 
ATOM      8  N   UNL     1       2.151   5.317  19.812  0.00  0.00    +0.000 NA
ATOM      9  C   UNL     1       2.808   6.434  19.345  0.00  0.00    +0.000 A 
ATOM     10  N   UNL     1       4.093   6.214  19.023  0.00  0.00    +0.000 NA
ATOM     11  O   UNL     1       4.267   4.857  19.270  0.00  0.00    +0.000 OA
BRANCH   7  12
ATOM     12  C   UNL     1       2.871   2.925  20.163  0.00  0.00    +0.000 C 
ATOM     13  C   UNL     1       1.453   2.487  20.518  0.00  0.00    +0.000 C 
ATOM     14  C   UNL     1       2.458   2.643  21.605  0.00  0.00    +0.000 C 
BRANCH  12  16
ATOM     15  N   UNL     1       5.015   1.917  19.901  0.00  0.00    +0.000 NA
ATOM     16  C   UNL     1       3.801   1.987  19.488  0.00  0.00    +0.000 C 
ATOM     17  N   UNL     1       3.289   1.244  18.471  0.00  0.00    +0.000 N 
ATOM     18  H   UNL     1       5.534   1.244  19.333  0.00  0.00    +0.000 HD
ATOM     19  H   UNL     1       3.768   0.376  18.262  0.00  0.00    +0.000 HD
ATOM     20  H   UNL     1       2.278   1.158  18.429  0.00  0.00    +0.000 HD
ENDBRANCH  12  16
ENDBRANCH   7  12
ENDBRANCH   1   9
BRANCH   4  21
ATOM     21  C   UNL     1       0.275  11.623  18.845  0.00  0.00    +0.000 C 
BRANCH  21  22
ATOM     22  N   UNL     1      -1.126  11.500  18.493  0.00  0.00    +0.000 N 
ATOM     23  C   UNL     1      -2.196  12.077  19.110  0.00  0.00    +0.000 A 
ATOM     24  C   UNL     1      -3.285  11.564  18.440  0.00  0.00    +0.000 A 
ATOM     25  N   UNL     1      -2.837  10.774  17.410  0.00  0.00    +0.000 NA
ATOM     26  N   UNL     1      -1.510  10.752  17.444  0.00  0.00    +0.000 NA
BRANCH  24  27
ATOM     27  C   UNL     1      -4.684  11.766  18.770  0.00  0.00    +0.000 A 
ATOM     28  C   UNL     1      -5.714  11.298  17.938  0.00  0.00    +0.000 A 
ATOM     29  C   UNL     1      -7.053  11.546  18.249  0.00  0.00    +0.000 A 
ATOM     30  C   UNL     1      -7.383  12.262  19.396  0.00  0.00    +0.000 A 
ATOM     31  C   UNL     1      -6.374  12.725  20.238  0.00  0.00    +0.000 A 
ATOM     32  C   UNL     1      -5.034  12.477  19.927  0.00  0.00    +0.000 A 
ENDBRANCH  24  27
ENDBRANCH  21  22
ENDBRANCH   4  21
TORSDOF 6
ENDMDL
MODEL 3
REMARK VINA RESULT:      -8.7      2.090      2.826
REMARK  Name = 
REMARK  6 active torsions:
REMARK  status: ('A' for Active; 'I' for Inactive)
REMARK    1  A    between atoms: C_2  and  C_4
REMARK    2  A    between atoms: C_4  and  C_5
REMARK    3  A    between atoms: C_7  and  C_8
REMARK    4  A    between atoms: C_11  and  C_12
REMARK    5  A    between atoms: C_12  and  N_13
REMARK    6  A    between atoms: C_15  and  C_16
REMARK                            x       y       z     vdW  Elec       q    Type
REMARK                         _______ _______ _______ _____ _____    ______ ____
ROOT
ATOM      1  C   UNL     1       2.151   7.764  19.233  0.00  0.00    +0.000 A 
ATOM      2  C   UNL     1       2.229   8.572  18.090  0.00  0.00    +0.000 A 
ATOM      3  C   UNL     1       1.672   9.855  18.084  0.00  0.00    +0.000 A 
ATOM      4  C   UNL     1       1.033  10.360  19.223  0.00  0.00    +0.000 A 
ATOM      5  C   UNL     1       0.937   9.547  20.361  0.00  0.00    +0.000 A 
ATOM      6  C   UNL     1       1.490   8.263  20.364  0.00  0.00    +0.000 A 
ENDROOT
BRANCH   1   9
ATOM      7  C   UNL     1       2.996   4.375  19.602  0.00  0.00    +0.000 A 
ATOM      8  N   UNL     1       2.157   5.357  19.852  0.00  0.00    +0.000 NA
ATOM      9  C   UNL     1       2.755   6.437  19.239  0.00  0.00    +0.000 A 
ATOM     10  N   UNL     1       3.931   6.150  18.658  0.00  0.00    +0.000 NA
ATOM     11  O   UNL     1       4.087   4.787  18.885  0.00  0.00    +0.000 OA
BRANCH   7  12
ATOM     12  C   UNL     1       2.818   2.933  20.083  0.00  0.00    +0.000 C 
ATOM     13  C   UNL     1       1.417   2.503  20.508  0.00  0.00    +0.000 C 
ATOM     14  C   UNL     1       2.463   2.699  21.549  0.00  0.00    +0.000 C 
BRANCH  12  16
ATOM     15  N   UNL     1       3.259   1.258  18.445  0.00  0.00    +0.000 NA
ATOM     16  C   UNL     1       3.725   1.976  19.404  0.00  0.00    +0.000 C 
ATOM     17  N   UNL     1       5.011   1.935  19.843  0.00  0.00    +0.000 N 
ATOM     18  H   UNL     1       3.993   0.642  18.090  0.00  0.00    +0.000 HD
ATOM     19  H   UNL     1       5.700   1.591  19.185  0.00  0.00    +0.000 HD
ATOM     20  H   UNL     1       5.339   2.732  20.380  0.00  0.00    +0.000 HD
ENDBRANCH  12  16
ENDBRANCH   7  12
ENDBRANCH   1   9
BRANCH   4  21
ATOM     21  C   UNL     1       0.430  11.745  19.210  0.00  0.00    +0.000 C 
BRANCH  21  22
ATOM     22  N   UNL     1      -0.308  12.014  20.430  0.00  0.00    +0.000 N 
ATOM     23  C   UNL     1      -1.654  11.929  20.628  0.00  0.00    +0.000 A 
ATOM     24  C   UNL     1      -1.830  12.374  21.919  0.00  0.00    +0.000 A 
ATOM     25  N   UNL     1      -0.599  12.629  22.471  0.00  0.00    +0.000 NA
ATOM     26  N   UNL     1       0.330  12.393  21.551  0.00  0.00    +0.000 NA
BRANCH  24  27
ATOM     27  C   UNL     1      -3.095  12.593  22.599  0.00  0.00    +0.000 A 
ATOM     28  C   UNL     1      -3.251  12.326  23.969  0.00  0.00    +0.000 A 
ATOM     29  C   UNL     1      -4.489  12.497  24.594  0.00  0.00    +0.000 A 
ATOM     30  C   UNL     1      -5.586  12.938  23.860  0.00  0.00    +0.000 A 
ATOM     31  C   UNL     1      -5.446  13.215  22.502  0.00  0.00    +0.000 A 
ATOM     32  C   UNL     1      -4.208  13.045  21.877  0.00  0.00    +0.000 A 
ENDBRANCH  24  27
ENDBRANCH  21  22
ENDBRANCH   4  21
TORSDOF 6
ENDMDL
MODEL 4
REMARK VINA RESULT:      -8.7      0.996      1.442
REMARK  Name = 
REMARK  6 active torsions:
REMARK  status: ('A' for Active; 'I' for Inactive)
REMARK    1  A    between atoms: C_2  and  C_4
REMARK    2  A    between atoms: C_4  and  C_5
REMARK    3  A    between atoms: C_7  and  C_8
REMARK    4  A    between atoms: C_11  and  C_12
REMARK    5  A    between atoms: C_12  and  N_13
REMARK    6  A    between atoms: C_15  and  C_16
REMARK                            x       y       z     vdW  Elec       q    Type
REMARK                         _______ _______ _______ _____ _____    ______ ____
ROOT
ATOM      1  C   UNL     1       2.273   7.733  18.972  0.00  0.00    +0.000 A 
ATOM      2  C   UNL     1       1.530   8.170  20.078  0.00  0.00    +0.000 A 
ATOM      3  C   UNL     1       0.889   9.413  20.061  0.00  0.00    +0.000 A 
ATOM      4  C   UNL     1       0.967  10.240  18.934  0.00  0.00    +0.000 A 
ATOM      5  C   UNL     1       1.725   9.813  17.834  0.00  0.00    +0.000 A 
ATOM      6  C   UNL     1       2.370   8.574  17.854  0.00  0.00    +0.000 A 
ENDROOT
BRANCH   1   9
ATOM      7  C   UNL     1       3.233   4.379  19.375  0.00  0.00    +0.000 A 
ATOM      8  N   UNL     1       2.365   5.336  19.623  0.00  0.00    +0.000 NA
ATOM      9  C   UNL     1       2.920   6.427  18.989  0.00  0.00    +0.000 A 
ATOM     10  N   UNL     1       4.098   6.171  18.397  0.00  0.00    +0.000 NA
ATOM     11  O   UNL     1       4.301   4.817  18.639  0.00  0.00    +0.000 OA
BRANCH   7  12
ATOM     12  C   UNL     1       3.108   2.939  19.877  0.00  0.00    +0.000 C 
ATOM     13  C   UNL     1       4.371   2.084  19.878  0.00  0.00    +0.000 C 
ATOM     14  C   UNL     1       3.307   1.804  18.876  0.00  0.00    +0.000 C 
BRANCH  12  16
ATOM     15  N   UNL     1       2.487   2.496  22.136  0.00  0.00    +0.000 NA
ATOM     16  C   UNL     1       2.092   2.781  20.947  0.00  0.00    +0.000 C 
ATOM     17  N   UNL     1       0.794   2.966  20.589  0.00  0.00    +0.000 N 
ATOM     18  H   UNL     1       1.678   2.405  22.754  0.00  0.00    +0.000 HD
ATOM     19  H   UNL     1       0.155   3.226  21.331  0.00  0.00    +0.000 HD
ATOM     20  H   UNL     1       0.622   3.470  19.725  0.00  0.00    +0.000 HD
ENDBRANCH  12  16
ENDBRANCH   7  12
ENDBRANCH   1   9
BRANCH   4  21
ATOM     21  C   UNL     1       0.274  11.583  18.921  0.00  0.00    +0.000 C 
BRANCH  21  22
ATOM     22  N   UNL     1      -1.126  11.454  18.566  0.00  0.00    +0.000 N 
ATOM     23  C   UNL     1      -2.185  12.142  19.079  0.00  0.00    +0.000 A 
ATOM     24  C   UNL     1      -3.280  11.574  18.468  0.00  0.00    +0.000 A 
ATOM     25  N   UNL     1      -2.845  10.637  17.563  0.00  0.00    +0.000 NA
ATOM     26  N   UNL     1      -1.520  10.580  17.623  0.00  0.00    +0.000 NA
BRANCH  24  27
ATOM     27  C   UNL     1      -4.677  11.861  18.743  0.00  0.00    +0.000 A 
ATOM     28  C   UNL     1      -5.089  12.418  19.965  0.00  0.00    +0.000 A 
ATOM     29  C   UNL     1      -6.442  12.641  20.228  0.00  0.00    +0.000 A 
ATOM     30  C   UNL     1      -7.403  12.314  19.275  0.00  0.00    +0.000 A 
ATOM     31  C   UNL     1      -7.011  11.769  18.054  0.00  0.00    +0.000 A 
ATOM     32  C   UNL     1      -5.656  11.546  17.790  0.00  0.00    +0.000 A 
ENDBRANCH  24  27
ENDBRANCH  21  22
ENDBRANCH   4  21
TORSDOF 6
ENDMDL
MODEL 5
REMARK VINA RESULT:      -8.6      4.004      5.586
REMARK  Name = 
REMARK  6 active torsions:
REMARK  status: ('A' for Active; 'I' for Inactive)
REMARK    1  A    between atoms: C_2  and  C_4
REMARK    2  A    between atoms: C_4  and  C_5
REMARK    3  A    between atoms: C_7  and  C_8
REMARK    4  A    between atoms: C_11  and  C_12
REMARK    5  A    between atoms: C_12  and  N_13
REMARK    6  A    between atoms: C_15  and  C_16
REMARK                            x       y       z     vdW  Elec       q    Type
REMARK                         _______ _______ _______ _____ _____    ______ ____
ROOT
ATOM      1  C   UNL     1       2.098   7.645  18.860  0.00  0.00    +0.000 A 
ATOM      2  C   UNL     1       1.755   8.765  18.090  0.00  0.00    +0.000 A 
ATOM      3  C   UNL     1       1.126   9.868  18.675  0.00  0.00    +0.000 A 
ATOM      4  C   UNL     1       0.835   9.879  20.045  0.00  0.00    +0.000 A 
ATOM      5  C   UNL     1       1.159   8.753  20.814  0.00  0.00    +0.000 A 
ATOM      6  C   UNL     1       1.783   7.649  20.227  0.00  0.00    +0.000 A 
ENDROOT
BRANCH   1   9
ATOM      7  C   UNL     1       4.276   5.380  17.291  0.00  0.00    +0.000 A 
ATOM      8  N   UNL     1       4.032   6.609  17.693  0.00  0.00    +0.000 NA
ATOM      9  C   UNL     1       2.775   6.508  18.248  0.00  0.00    +0.000 A 
ATOM     10  N   UNL     1       2.243   5.278  18.169  0.00  0.00    +0.000 NA
ATOM     11  O   UNL     1       3.236   4.528  17.549  0.00  0.00    +0.000 OA
BRANCH   7  12
ATOM     12  C   UNL     1       5.553   4.936  16.576  0.00  0.00    +0.000 C 
ATOM     13  C   UNL     1       5.937   5.678  15.299  0.00  0.00    +0.000 C 
ATOM     14  C   UNL     1       5.422   4.284  15.202  0.00  0.00    +0.000 C 
BRANCH  12  16
ATOM     15  N   UNL     1       6.263   4.116  18.699  0.00  0.00    +0.000 NA
ATOM     16  C   UNL     1       6.601   4.445  17.504  0.00  0.00    +0.000 C 
ATOM     17  N   UNL     1       7.866   4.364  17.011  0.00  0.00    +0.000 N 
ATOM     18  H   UNL     1       7.089   3.814  19.220  0.00  0.00    +0.000 HD
ATOM     19  H   UNL     1       8.488   3.712  17.474  0.00  0.00    +0.000 HD
ATOM     20  H   UNL     1       7.966   4.359  16.001  0.00  0.00    +0.000 HD
ENDBRANCH  12  16
ENDBRANCH   7  12
ENDBRANCH   1   9
BRANCH   4  21
ATOM     21  C   UNL     1       0.152  11.072  20.672  0.00  0.00    +0.000 C 
BRANCH  21  22
ATOM     22  N   UNL     1       0.867  12.302  20.389  0.00  0.00    +0.000 N 
ATOM     23  C   UNL     1       0.487  13.318  19.562  0.00  0.00    +0.000 A 
ATOM     24  C   UNL     1       1.557  14.185  19.587  0.00  0.00    +0.000 A 
ATOM     25  N   UNL     1       2.491  13.711  20.474  0.00  0.00    +0.000 NA
ATOM     26  N   UNL     1       2.051  12.560  20.971  0.00  0.00    +0.000 NA
BRANCH  24  27
ATOM     27  C   UNL     1       1.722  15.386  18.786  0.00  0.00    +0.000 A 
ATOM     28  C   UNL     1       0.718  16.365  18.709  0.00  0.00    +0.000 A 
ATOM     29  C   UNL     1       0.877  17.489  17.894  0.00  0.00    +0.000 A 
ATOM     30  C   UNL     1       2.041  17.652  17.148  0.00  0.00    +0.000 A 
ATOM     31  C   UNL     1       3.050  16.694  17.220  0.00  0.00    +0.000 A 
ATOM     32  C   UNL     1       2.892  15.569  18.035  0.00  0.00    +0.000 A 
ENDBRANCH  24  27
ENDBRANCH  21  22
ENDBRANCH   4  21
TORSDOF 6
ENDMDL
MODEL 6
REMARK VINA RESULT:      -8.5      2.748      3.583
REMARK  Name = 
REMARK  6 active torsions:
REMARK  status: ('A' for Active; 'I' for Inactive)
REMARK    1  A    between atoms: C_2  and  C_4
REMARK    2  A    between atoms: C_4  and  C_5
REMARK    3  A    between atoms: C_7  and  C_8
REMARK    4  A    between atoms: C_11  and  C_12
REMARK    5  A    between atoms: C_12  and  N_13
REMARK    6  A    between atoms: C_15  and  C_16
REMARK                            x       y       z     vdW  Elec       q    Type
REMARK                         _______ _______ _______ _____ _____    ______ ____
ROOT
ATOM      1  C   UNL     1       2.255   7.641  19.120  0.00  0.00    +0.000 A 
ATOM      2  C   UNL     1       1.540   8.148  20.214  0.00  0.00    +0.000 A 
ATOM      3  C   UNL     1       0.905   9.391  20.138  0.00  0.00    +0.000 A 
ATOM      4  C   UNL     1       0.963  10.150  18.963  0.00  0.00    +0.000 A 
ATOM      5  C   UNL     1       1.693   9.653  17.873  0.00  0.00    +0.000 A 
ATOM      6  C   UNL     1       2.332   8.414  17.952  0.00  0.00    +0.000 A 
ENDROOT
BRANCH   1   9
ATOM      7  C   UNL     1       3.151   4.275  19.574  0.00  0.00    +0.000 A 
ATOM      8  N   UNL     1       2.254   5.227  19.713  0.00  0.00    +0.000 NA
ATOM      9  C   UNL     1       2.896   6.333  19.200  0.00  0.00    +0.000 A 
ATOM     10  N   UNL     1       4.150   6.091  18.786  0.00  0.00    +0.000 NA
ATOM     11  O   UNL     1       4.317   4.731  19.021  0.00  0.00    +0.000 OA
BRANCH   7  12
ATOM     12  C   UNL     1       2.955   2.822  20.013  0.00  0.00    +0.000 C 
ATOM     13  C   UNL     1       1.522   2.330  20.190  0.00  0.00    +0.000 C 
ATOM     14  C   UNL     1       2.365   2.559  21.396  0.00  0.00    +0.000 C 
BRANCH  12  16
ATOM     15  N   UNL     1       5.155   1.905  20.069  0.00  0.00    +0.000 NA
ATOM     16  C   UNL     1       4.004   1.910  19.496  0.00  0.00    +0.000 C 
ATOM     17  N   UNL     1       3.664   1.120  18.443  0.00  0.00    +0.000 N 
ATOM     18  H   UNL     1       5.772   1.242  19.596  0.00  0.00    +0.000 HD
ATOM     19  H   UNL     1       4.202   0.271  18.326  0.00  0.00    +0.000 HD
ATOM     20  H   UNL     1       2.673   0.988  18.269  0.00  0.00    +0.000 HD
ENDBRANCH  12  16
ENDBRANCH   7  12
ENDBRANCH   1   9
BRANCH   4  21
ATOM     21  C   UNL     1       0.278  11.494  18.885  0.00  0.00    +0.000 C 
BRANCH  21  22
ATOM     22  N   UNL     1       0.087  12.069  20.203  0.00  0.00    +0.000 N 
ATOM     23  C   UNL     1      -1.072  12.156  20.917  0.00  0.00    +0.000 A 
ATOM     24  C   UNL     1      -0.717  12.862  22.045  0.00  0.00    +0.000 A 
ATOM     25  N   UNL     1       0.636  13.100  22.010  0.00  0.00    +0.000 NA
ATOM     26  N   UNL     1       1.121  12.597  20.881  0.00  0.00    +0.000 NA
BRANCH  24  27
ATOM     27  C   UNL     1      -1.605  13.333  23.092  0.00  0.00    +0.000 A 
ATOM     28  C   UNL     1      -2.828  12.698  23.364  0.00  0.00    +0.000 A 
ATOM     29  C   UNL     1      -3.690  13.196  24.343  0.00  0.00    +0.000 A 
ATOM     30  C   UNL     1      -3.344  14.334  25.066  0.00  0.00    +0.000 A 
ATOM     31  C   UNL     1      -2.130  14.971  24.816  0.00  0.00    +0.000 A 
ATOM     32  C   UNL     1      -1.267  14.472  23.836  0.00  0.00    +0.000 A 
ENDBRANCH  24  27
ENDBRANCH  21  22
ENDBRANCH   4  21
TORSDOF 6
ENDMDL
MODEL 7
REMARK VINA RESULT:      -8.5      2.325      3.123
REMARK  Name = 
REMARK  6 active torsions:
REMARK  status: ('A' for Active; 'I' for Inactive)
REMARK    1  A    between atoms: C_2  and  C_4
REMARK    2  A    between atoms: C_4  and  C_5
REMARK    3  A    between atoms: C_7  and  C_8
REMARK    4  A    between atoms: C_11  and  C_12
REMARK    5  A    between atoms: C_12  and  N_13
REMARK    6  A    between atoms: C_15  and  C_16
REMARK                            x       y       z     vdW  Elec       q    Type
REMARK                         _______ _______ _______ _____ _____    ______ ____
ROOT
ATOM      1  C   UNL     1       2.203   7.830  18.986  0.00  0.00    +0.000 A 
ATOM      2  C   UNL     1       2.343   8.709  17.902  0.00  0.00    +0.000 A 
ATOM      3  C   UNL     1       1.809  10.000  17.956  0.00  0.00    +0.000 A 
ATOM      4  C   UNL     1       1.132  10.444  19.099  0.00  0.00    +0.000 A 
ATOM      5  C   UNL     1       0.975   9.561  20.177  0.00  0.00    +0.000 A 
ATOM      6  C   UNL     1       1.504   8.269  20.119  0.00  0.00    +0.000 A 
ENDROOT
BRANCH   1   9
ATOM      7  C   UNL     1       3.014   4.423  19.249  0.00  0.00    +0.000 A 
ATOM      8  N   UNL     1       2.213   5.415  19.573  0.00  0.00    +0.000 NA
ATOM      9  C   UNL     1       2.783   6.493  18.931  0.00  0.00    +0.000 A 
ATOM     10  N   UNL     1       3.907   6.195  18.260  0.00  0.00    +0.000 NA
ATOM     11  O   UNL     1       4.056   4.827  18.458  0.00  0.00    +0.000 OA
BRANCH   7  12
ATOM     12  C   UNL     1       2.847   2.978  19.724  0.00  0.00    +0.000 C 
ATOM     13  C   UNL     1       4.091   2.095  19.735  0.00  0.00    +0.000 C 
ATOM     14  C   UNL     1       3.041   1.856  18.707  0.00  0.00    +0.000 C 
BRANCH  12  16
ATOM     15  N   UNL     1       0.574   2.985  20.443  0.00  0.00    +0.000 NA
ATOM     16  C   UNL     1       1.807   2.825  20.770  0.00  0.00    +0.000 C 
ATOM     17  N   UNL     1       2.238   2.507  22.019  0.00  0.00    +0.000 N 
ATOM     18  H   UNL     1      -0.018   2.864  21.267  0.00  0.00    +0.000 HD
ATOM     19  H   UNL     1       1.567   2.049  22.624  0.00  0.00    +0.000 HD
ATOM     20  H   UNL     1       3.172   2.118  22.098  0.00  0.00    +0.000 HD
ENDBRANCH  12  16
ENDBRANCH   7  12
ENDBRANCH   1   9
BRANCH   4  21
ATOM     21  C   UNL     1       0.555  11.839  19.151  0.00  0.00    +0.000 C 
BRANCH  21  22
ATOM     22  N   UNL     1      -0.189  12.059  20.377  0.00  0.00    +0.000 N 
ATOM     23  C   UNL     1      -1.537  11.968  20.564  0.00  0.00    +0.000 A 
ATOM     24  C   UNL     1      -1.719  12.361  21.872  0.00  0.00    +0.000 A 
ATOM     25  N   UNL     1      -0.490  12.591  22.440  0.00  0.00    +0.000 NA
ATOM     26  N   UNL     1       0.443  12.391  21.516  0.00  0.00    +0.000 NA
BRANCH  24  27
ATOM     27  C   UNL     1      -2.987  12.554  22.553  0.00  0.00    +0.000 A 
ATOM     28  C   UNL     1      -3.145  12.255  23.916  0.00  0.00    +0.000 A 
ATOM     29  C   UNL     1      -4.385  12.402  24.541  0.00  0.00    +0.000 A 
ATOM     30  C   UNL     1      -5.485  12.851  23.815  0.00  0.00    +0.000 A 
ATOM     31  C   UNL     1      -5.343  13.162  22.464  0.00  0.00    +0.000 A 
ATOM     32  C   UNL     1      -4.101  13.015  21.839  0.00  0.00    +0.000 A 
ENDBRANCH  24  27
ENDBRANCH  21  22
ENDBRANCH   4  21
TORSDOF 6
ENDMDL
MODEL 8
REMARK VINA RESULT:      -8.4      0.829      1.654
REMARK  Name = 
REMARK  6 active torsions:
REMARK  status: ('A' for Active; 'I' for Inactive)
REMARK    1  A    between atoms: C_2  and  C_4
REMARK    2  A    between atoms: C_4  and  C_5
REMARK    3  A    between atoms: C_7  and  C_8
REMARK    4  A    between atoms: C_11  and  C_12
REMARK    5  A    between atoms: C_12  and  N_13
REMARK    6  A    between atoms: C_15  and  C_16
REMARK                            x       y       z     vdW  Elec       q    Type
REMARK                         _______ _______ _______ _____ _____    ______ ____
ROOT
ATOM      1  C   UNL     1       2.114   7.948  18.988  0.00  0.00    +0.000 A 
ATOM      2  C   UNL     1       2.284   8.790  17.880  0.00  0.00    +0.000 A 
ATOM      3  C   UNL     1       1.794  10.099  17.896  0.00  0.00    +0.000 A 
ATOM      4  C   UNL     1       1.132  10.598  19.024  0.00  0.00    +0.000 A 
ATOM      5  C   UNL     1       0.944   9.753  20.127  0.00  0.00    +0.000 A 
ATOM      6  C   UNL     1       1.429   8.443  20.108  0.00  0.00    +0.000 A 
ENDROOT
BRANCH   1   9
ATOM      7  C   UNL     1       2.867   4.546  19.430  0.00  0.00    +0.000 A 
ATOM      8  N   UNL     1       2.138   5.588  19.768  0.00  0.00    +0.000 NA
ATOM      9  C   UNL     1       2.648   6.591  18.973  0.00  0.00    +0.000 A 
ATOM     10  N   UNL     1       3.671   6.202  18.196  0.00  0.00    +0.000 NA
ATOM     11  O   UNL     1       3.810   4.850  18.485  0.00  0.00    +0.000 OA
BRANCH   7  12
ATOM     12  C   UNL     1       2.725   3.150  20.040  0.00  0.00    +0.000 C 
ATOM     13  C   UNL     1       1.344   2.741  20.544  0.00  0.00    +0.000 C 
ATOM     14  C   UNL     1       2.418   3.040  21.531  0.00  0.00    +0.000 C 
BRANCH  12  16
ATOM     15  N   UNL     1       3.159   1.390  18.491  0.00  0.00    +0.000 NA
ATOM     16  C   UNL     1       3.625   2.148  19.418  0.00  0.00    +0.000 C 
ATOM     17  N   UNL     1       4.906   2.112  19.872  0.00  0.00    +0.000 N 
ATOM     18  H   UNL     1       3.888   0.747  18.174  0.00  0.00    +0.000 HD
ATOM     19  H   UNL     1       5.597   1.727  19.239  0.00  0.00    +0.000 HD
ATOM     20  H   UNL     1       5.240   2.930  20.372  0.00  0.00    +0.000 HD
ENDBRANCH  12  16
ENDBRANCH   7  12
ENDBRANCH   1   9
BRANCH   4  21
ATOM     21  C   UNL     1       0.601  12.013  19.036  0.00  0.00    +0.000 C 
BRANCH  21  22
ATOM     22  N   UNL     1      -0.849  12.036  19.014  0.00  0.00    +0.000 N 
ATOM     23  C   UNL     1      -1.692  12.497  19.982  0.00  0.00    +0.000 A 
ATOM     24  C   UNL     1      -2.948  12.202  19.499  0.00  0.00    +0.000 A 
ATOM     25  N   UNL     1      -2.822  11.659  18.244  0.00  0.00    +0.000 NA
ATOM     26  N   UNL     1      -1.529  11.573  17.951  0.00  0.00    +0.000 NA
BRANCH  24  27
ATOM     27  C   UNL     1      -4.211  12.380  20.193  0.00  0.00    +0.000 A 
ATOM     28  C   UNL     1      -5.439  12.099  19.573  0.00  0.00    +0.000 A 
ATOM     29  C   UNL     1      -6.645  12.324  20.241  0.00  0.00    +0.000 A 
ATOM     30  C   UNL     1      -6.642  12.830  21.537  0.00  0.00    +0.000 A 
ATOM     31  C   UNL     1      -5.431  13.106  22.171  0.00  0.00    +0.000 A 
ATOM     32  C   UNL     1      -4.224  12.881  21.502  0.00  0.00    +0.000 A 
ENDBRANCH  24  27
ENDBRANCH  21  22
ENDBRANCH   4  21
TORSDOF 6
ENDMDL
MODEL 9
REMARK VINA RESULT:      -8.4      2.285      3.084
REMARK  Name = 
REMARK  6 active torsions:
REMARK  status: ('A' for Active; 'I' for Inactive)
REMARK    1  A    between atoms: C_2  and  C_4
REMARK    2  A    between atoms: C_4  and  C_5
REMARK    3  A    between atoms: C_7  and  C_8
REMARK    4  A    between atoms: C_11  and  C_12
REMARK    5  A    between atoms: C_12  and  N_13
REMARK    6  A    between atoms: C_15  and  C_16
REMARK                            x       y       z     vdW  Elec       q    Type
REMARK                         _______ _______ _______ _____ _____    ______ ____
ROOT
ATOM      1  C   UNL     1       2.212   7.886  18.932  0.00  0.00    +0.000 A 
ATOM      2  C   UNL     1       1.549   8.319  20.089  0.00  0.00    +0.000 A 
ATOM      3  C   UNL     1       1.002   9.603  20.161  0.00  0.00    +0.000 A 
ATOM      4  C   UNL     1       1.097  10.480  19.073  0.00  0.00    +0.000 A 
ATOM      5  C   UNL     1       1.775  10.056  17.921  0.00  0.00    +0.000 A 
ATOM      6  C   UNL     1       2.327   8.775  17.853  0.00  0.00    +0.000 A 
ENDROOT
BRANCH   1   9
ATOM      7  C   UNL     1       2.920   4.450  19.101  0.00  0.00    +0.000 A 
ATOM      8  N   UNL     1       2.125   5.450  19.417  0.00  0.00    +0.000 NA
ATOM      9  C   UNL     1       2.761   6.537  18.857  0.00  0.00    +0.000 A 
ATOM     10  N   UNL     1       3.917   6.236  18.246  0.00  0.00    +0.000 NA
ATOM     11  O   UNL     1       4.019   4.857  18.394  0.00  0.00    +0.000 OA
BRANCH   7  12
ATOM     12  C   UNL     1       2.687   2.992  19.504  0.00  0.00    +0.000 C 
ATOM     13  C   UNL     1       3.818   2.003  19.243  0.00  0.00    +0.000 C 
ATOM     14  C   UNL     1       2.593   1.943  18.399  0.00  0.00    +0.000 C 
BRANCH  12  16
ATOM     15  N   UNL     1       0.559   3.033  20.578  0.00  0.00    +0.000 NA
ATOM     16  C   UNL     1       1.824   2.850  20.703  0.00  0.00    +0.000 C 
ATOM     17  N   UNL     1       2.444   2.515  21.865  0.00  0.00    +0.000 N 
ATOM     18  H   UNL     1       0.103   2.916  21.486  0.00  0.00    +0.000 HD
ATOM     19  H   UNL     1       1.870   2.064  22.568  0.00  0.00    +0.000 HD
ATOM     20  H   UNL     1       3.372   2.109  21.792  0.00  0.00    +0.000 HD
ENDBRANCH  12  16
ENDBRANCH   7  12
ENDBRANCH   1   9
BRANCH   4  21
ATOM     21  C   UNL     1       0.506  11.868  19.155  0.00  0.00    +0.000 C 
BRANCH  21  22
ATOM     22  N   UNL     1      -0.250  12.051  20.380  0.00  0.00    +0.000 N 
ATOM     23  C   UNL     1      -1.598  11.943  20.554  0.00  0.00    +0.000 A 
ATOM     24  C   UNL     1      -1.794  12.302  21.869  0.00  0.00    +0.000 A 
ATOM     25  N   UNL     1      -0.572  12.531  22.452  0.00  0.00    +0.000 NA
ATOM     26  N   UNL     1       0.370  12.361  21.532  0.00  0.00    +0.000 NA
BRANCH  24  27
ATOM     27  C   UNL     1      -3.069  12.467  22.545  0.00  0.00    +0.000 A 
ATOM     28  C   UNL     1      -4.232  12.832  21.847  0.00  0.00    +0.000 A 
ATOM     29  C   UNL     1      -5.437  13.033  22.524  0.00  0.00    +0.000 A 
ATOM     30  C   UNL     1      -5.499  12.870  23.905  0.00  0.00    +0.000 A 
ATOM     31  C   UNL     1      -4.356  12.500  24.611  0.00  0.00    +0.000 A 
ATOM     32  C   UNL     1      -3.150  12.298  23.934  0.00  0.00    +0.000 A 
ENDBRANCH  24  27
ENDBRANCH  21  22
ENDBRANCH   4  21
TORSDOF 6
ENDMDL
