MODEL 1
REMARK VINA RESULT:      -7.4      0.000      0.000
REMARK  Name = 
REMARK  5 active torsions:
REMARK  status: ('A' for Active; 'I' for Inactive)
REMARK    1  A    between atoms: S_2  and  C_3
REMARK    2  A    between atoms: S_2  and  C_9
REMARK    3  A    between atoms: C_3  and  C_4
REMARK    4  A    between atoms: C_9  and  C_10
REMARK    5  A    between atoms: C_9  and  C_16
REMARK                            x       y       z     vdW  Elec       q    Type
REMARK                         _______ _______ _______ _____ _____    ______ ____
ROOT
ATOM      1  C   UNL     1       4.446   5.763  18.055  0.00  0.00    +0.000 C 
ENDROOT
BRANCH   1   2
ATOM      2  C   UNL     1       3.374   6.810  18.364  0.00  0.00    +0.000 A 
ATOM      3  C   UNL     1       3.083   7.866  17.484  0.00  0.00    +0.000 A 
ATOM      4  C   UNL     1       2.158   8.853  17.833  0.00  0.00    +0.000 A 
ATOM      5  C   UNL     1       1.514   8.805  19.067  0.00  0.00    +0.000 A 
ATOM      6  C   UNL     1       1.789   7.767  19.952  0.00  0.00    +0.000 A 
ATOM      7  C   UNL     1       2.710   6.777  19.605  0.00  0.00    +0.000 A 
ENDBRANCH   1   2
BRANCH   1   8
ATOM      8  C   UNL     1       3.939   4.326  18.185  0.00  0.00    +0.000 A 
ATOM      9  C   UNL     1       4.491   3.512  19.195  0.00  0.00    +0.000 A 
ATOM     10  C   UNL     1       4.053   2.200  19.387  0.00  0.00    +0.000 A 
ATOM     11  C   UNL     1       3.049   1.678  18.577  0.00  0.00    +0.000 A 
ATOM     12  C   UNL     1       2.475   2.472  17.588  0.00  0.00    +0.000 A 
ATOM     13  C   UNL     1       2.905   3.790  17.402  0.00  0.00    +0.000 A 
ENDBRANCH   1   8
BRANCH   1  15
ATOM     14  O   UNL     1       6.364   7.299  16.782  0.00  0.00    +0.000 OA
ATOM     15  S   UNL     1       5.267   6.213  16.457  0.00  0.00    +0.000 S 
BRANCH  15  16
ATOM     16  C   UNL     1       6.144   4.644  16.162  0.00  0.00    +0.000 C 
BRANCH  16  17
ATOM     17  C   UNL     1       6.551   4.573  14.724  0.00  0.00    +0.000 A 
ATOM     18  C   UNL     1       6.014   3.740  13.757  0.00  0.00    +0.000 A 
ATOM     19  S   UNL     1       6.822   3.960  12.263  0.00  0.00    +0.000 S 
ATOM     20  C   UNL     1       7.822   5.138  13.003  0.00  0.00    +0.000 A 
ATOM     21  N   UNL     1       7.581   5.393  14.271  0.00  0.00    +0.000 NA
ENDBRANCH  16  17
ENDBRANCH  15  16
ENDBRANCH   1  15
TORSDOF 5
ENDMDL
MODEL 2
REMARK VINA RESULT:      -7.3      1.898      4.466
REMARK  Name = 
REMARK  5 active torsions:
REMARK  status: ('A' for Active; 'I' for Inactive)
REMARK    1  A    between atoms: S_2  and  C_3
REMARK    2  A    between atoms: S_2  and  C_9
REMARK    3  A    between atoms: C_3  and  C_4
REMARK    4  A    between atoms: C_9  and  C_10
REMARK    5  A    between atoms: C_9  and  C_16
REMARK                            x       y       z     vdW  Elec       q    Type
REMARK                         _______ _______ _______ _____ _____    ______ ____
ROOT
ATOM      1  C   UNL     1       3.102   5.909  18.456  0.00  0.00    +0.000 C 
ENDROOT
BRANCH   1   2
ATOM      2  C   UNL     1       2.420   4.738  19.167  0.00  0.00    +0.000 A 
ATOM      3  C   UNL     1       1.495   3.904  18.517  0.00  0.00    +0.000 A 
ATOM      4  C   UNL     1       0.826   2.896  19.216  0.00  0.00    +0.000 A 
ATOM      5  C   UNL     1       1.066   2.710  20.576  0.00  0.00    +0.000 A 
ATOM      6  C   UNL     1       1.979   3.527  21.238  0.00  0.00    +0.000 A 
ATOM      7  C   UNL     1       2.651   4.532  20.540  0.00  0.00    +0.000 A 
ENDBRANCH   1   2
BRANCH   1   8
ATOM      8  C   UNL     1       2.439   7.256  18.744  0.00  0.00    +0.000 A 
ATOM      9  C   UNL     1       2.249   8.150  17.670  0.00  0.00    +0.000 A 
ATOM     10  C   UNL     1       1.625   9.385  17.858  0.00  0.00    +0.000 A 
ATOM     11  C   UNL     1       1.171   9.748  19.122  0.00  0.00    +0.000 A 
ATOM     12  C   UNL     1       1.329   8.870  20.192  0.00  0.00    +0.000 A 
ATOM     13  C   UNL     1       1.944   7.629  20.003  0.00  0.00    +0.000 A 
ENDBRANCH   1   8
BRANCH   1  15
ATOM     14  O   UNL     1       5.359   4.307  18.483  0.00  0.00    +0.000 OA
ATOM     15  S   UNL     1       4.926   5.799  18.756  0.00  0.00    +0.000 S 
BRANCH  15  16
ATOM     16  C   UNL     1       5.487   6.784  17.329  0.00  0.00    +0.000 C 
BRANCH  16  17
ATOM     17  C   UNL     1       5.889   5.859  16.224  0.00  0.00    +0.000 A 
ATOM     18  C   UNL     1       5.039   5.106  15.432  0.00  0.00    +0.000 A 
ATOM     19  S   UNL     1       5.939   4.152  14.330  0.00  0.00    +0.000 S 
ATOM     20  C   UNL     1       7.384   4.803  14.981  0.00  0.00    +0.000 A 
ATOM     21  N   UNL     1       7.242   5.693  15.940  0.00  0.00    +0.000 NA
ENDBRANCH  16  17
ENDBRANCH  15  16
ENDBRANCH   1  15
TORSDOF 5
ENDMDL
MODEL 3
REMARK VINA RESULT:      -7.3      0.080      1.054
REMARK  Name = 
REMARK  5 active torsions:
REMARK  status: ('A' for Active; 'I' for Inactive)
REMARK    1  A    between atoms: S_2  and  C_3
REMARK    2  A    between atoms: S_2  and  C_9
REMARK    3  A    between atoms: C_3  and  C_4
REMARK    4  A    between atoms: C_9  and  C_10
REMARK    5  A    between atoms: C_9  and  C_16
REMARK                            x       y       z     vdW  Elec       q    Type
REMARK                         _______ _______ _______ _____ _____    ______ ____
ROOT
ATOM      1  C   UNL     1       4.442   5.809  18.111  0.00  0.00    +0.000 C 
ENDROOT
BRANCH   1   2
ATOM      2  C   UNL     1       3.358   6.847  18.411  0.00  0.00    +0.000 A 
ATOM      3  C   UNL     1       3.059   7.895  17.524  0.00  0.00    +0.000 A 
ATOM      4  C   UNL     1       2.123   8.875  17.864  0.00  0.00    +0.000 A 
ATOM      5  C   UNL     1       1.476   8.827  19.097  0.00  0.00    +0.000 A 
ATOM      6  C   UNL     1       1.759   7.796  19.989  0.00  0.00    +0.000 A 
ATOM      7  C   UNL     1       2.691   6.814  19.650  0.00  0.00    +0.000 A 
ENDBRANCH   1   2
BRANCH   1   8
ATOM      8  C   UNL     1       3.962   4.369  18.290  0.00  0.00    +0.000 A 
ATOM      9  C   UNL     1       2.964   3.885  17.419  0.00  0.00    +0.000 A 
ATOM     10  C   UNL     1       2.500   2.571  17.509  0.00  0.00    +0.000 A 
ATOM     11  C   UNL     1       3.030   1.712  18.466  0.00  0.00    +0.000 A 
ATOM     12  C   UNL     1       4.032   2.163  19.322  0.00  0.00    +0.000 A 
ATOM     13  C   UNL     1       4.504   3.476  19.226  0.00  0.00    +0.000 A 
ENDBRANCH   1   8
BRANCH   1  15
ATOM     14  O   UNL     1       6.304   7.349  16.760  0.00  0.00    +0.000 OA
ATOM     15  S   UNL     1       5.227   6.229  16.487  0.00  0.00    +0.000 S 
BRANCH  15  16
ATOM     16  C   UNL     1       6.135   4.672  16.225  0.00  0.00    +0.000 C 
BRANCH  16  17
ATOM     17  C   UNL     1       6.529   4.570  14.785  0.00  0.00    +0.000 A 
ATOM     18  C   UNL     1       5.963   3.737  13.835  0.00  0.00    +0.000 A 
ATOM     19  S   UNL     1       6.765   3.915  12.331  0.00  0.00    +0.000 S 
ATOM     20  C   UNL     1       7.800   5.077  13.046  0.00  0.00    +0.000 A 
ATOM     21  N   UNL     1       7.576   5.356  14.312  0.00  0.00    +0.000 NA
ENDBRANCH  16  17
ENDBRANCH  15  16
ENDBRANCH   1  15
TORSDOF 5
ENDMDL
MODEL 4
REMARK VINA RESULT:      -7.3      0.106      1.058
REMARK  Name = 
REMARK  5 active torsions:
REMARK  status: ('A' for Active; 'I' for Inactive)
REMARK    1  A    between atoms: S_2  and  C_3
REMARK    2  A    between atoms: S_2  and  C_9
REMARK    3  A    between atoms: C_3  and  C_4
REMARK    4  A    between atoms: C_9  and  C_10
REMARK    5  A    between atoms: C_9  and  C_16
REMARK                            x       y       z     vdW  Elec       q    Type
REMARK                         _______ _______ _______ _____ _____    ______ ____
ROOT
ATOM      1  C   UNL     1       4.552   5.751  18.118  0.00  0.00    +0.000 C 
ENDROOT
BRANCH   1   2
ATOM      2  C   UNL     1       3.515   6.818  18.475  0.00  0.00    +0.000 A 
ATOM      3  C   UNL     1       2.802   6.793  19.686  0.00  0.00    +0.000 A 
ATOM      4  C   UNL     1       1.802   7.733  19.946  0.00  0.00    +0.000 A 
ATOM      5  C   UNL     1       1.494   8.708  19.000  0.00  0.00    +0.000 A 
ATOM      6  C   UNL     1       2.189   8.749  17.795  0.00  0.00    +0.000 A 
ATOM      7  C   UNL     1       3.191   7.813  17.534  0.00  0.00    +0.000 A 
ENDBRANCH   1   2
BRANCH   1   8
ATOM      8  C   UNL     1       4.004   4.327  18.207  0.00  0.00    +0.000 A 
ATOM      9  C   UNL     1       4.538   3.466  19.187  0.00  0.00    +0.000 A 
ATOM     10  C   UNL     1       4.063   2.161  19.341  0.00  0.00    +0.000 A 
ATOM     11  C   UNL     1       3.040   1.694  18.522  0.00  0.00    +0.000 A 
ATOM     12  C   UNL     1       2.484   2.535  17.561  0.00  0.00    +0.000 A 
ATOM     13  C   UNL     1       2.951   3.845  17.414  0.00  0.00    +0.000 A 
ENDBRANCH   1   8
BRANCH   1  15
ATOM     14  O   UNL     1       6.426   7.353  16.858  0.00  0.00    +0.000 OA
ATOM     15  S   UNL     1       5.367   6.231  16.526  0.00  0.00    +0.000 S 
BRANCH  15  16
ATOM     16  C   UNL     1       6.298   4.692  16.234  0.00  0.00    +0.000 C 
BRANCH  16  17
ATOM     17  C   UNL     1       6.619   4.583  14.776  0.00  0.00    +0.000 A 
ATOM     18  C   UNL     1       6.040   3.710  13.870  0.00  0.00    +0.000 A 
ATOM     19  S   UNL     1       6.752   3.896  12.323  0.00  0.00    +0.000 S 
ATOM     20  C   UNL     1       7.773   5.113  12.965  0.00  0.00    +0.000 A 
ATOM     21  N   UNL     1       7.605   5.404  14.237  0.00  0.00    +0.000 NA
ENDBRANCH  16  17
ENDBRANCH  15  16
ENDBRANCH   1  15
TORSDOF 5
ENDMDL
MODEL 5
REMARK VINA RESULT:      -7.3      1.943      4.367
REMARK  Name = 
REMARK  5 active torsions:
REMARK  status: ('A' for Active; 'I' for Inactive)
REMARK    1  A    between atoms: S_2  and  C_3
REMARK    2  A    between atoms: S_2  and  C_9
REMARK    3  A    between atoms: C_3  and  C_4
REMARK    4  A    between atoms: C_9  and  C_10
REMARK    5  A    between atoms: C_9  and  C_16
REMARK                            x       y       z     vdW  Elec       q    Type
REMARK                         _______ _______ _______ _____ _____    ______ ____
ROOT
ATOM      1  C   UNL     1       3.157   5.784  18.512  0.00  0.00    +0.000 C 
ENDROOT
BRANCH   1   2
ATOM      2  C   UNL     1       2.482   4.668  19.312  0.00  0.00    +0.000 A 
ATOM      3  C   UNL     1       1.468   3.863  18.765  0.00  0.00    +0.000 A 
ATOM      4  C   UNL     1       0.813   2.909  19.547  0.00  0.00    +0.000 A 
ATOM      5  C   UNL     1       1.155   2.748  20.888  0.00  0.00    +0.000 A 
ATOM      6  C   UNL     1       2.157   3.536  21.448  0.00  0.00    +0.000 A 
ATOM      7  C   UNL     1       2.815   4.488  20.667  0.00  0.00    +0.000 A 
ENDBRANCH   1   2
BRANCH   1   8
ATOM      8  C   UNL     1       2.476   7.142  18.682  0.00  0.00    +0.000 A 
ATOM      9  C   UNL     1       2.007   7.499  19.962  0.00  0.00    +0.000 A 
ATOM     10  C   UNL     1       1.401   8.735  20.193  0.00  0.00    +0.000 A 
ATOM     11  C   UNL     1       1.259   9.644  19.148  0.00  0.00    +0.000 A 
ATOM     12  C   UNL     1       1.735   9.320  17.880  0.00  0.00    +0.000 A 
ATOM     13  C   UNL     1       2.352   8.087  17.651  0.00  0.00    +0.000 A 
ENDBRANCH   1   8
BRANCH   1  15
ATOM     14  O   UNL     1       5.459   4.247  18.545  0.00  0.00    +0.000 OA
ATOM     15  S   UNL     1       4.980   5.722  18.836  0.00  0.00    +0.000 S 
BRANCH  15  16
ATOM     16  C   UNL     1       5.531   6.745  17.433  0.00  0.00    +0.000 C 
BRANCH  16  17
ATOM     17  C   UNL     1       5.907   5.852  16.293  0.00  0.00    +0.000 A 
ATOM     18  C   UNL     1       5.041   5.099  15.519  0.00  0.00    +0.000 A 
ATOM     19  S   UNL     1       5.915   4.186  14.362  0.00  0.00    +0.000 S 
ATOM     20  C   UNL     1       7.371   4.852  14.970  0.00  0.00    +0.000 A 
ATOM     21  N   UNL     1       7.250   5.719  15.952  0.00  0.00    +0.000 NA
ENDBRANCH  16  17
ENDBRANCH  15  16
ENDBRANCH   1  15
TORSDOF 5
ENDMDL
MODEL 6
REMARK VINA RESULT:      -7.3      1.881      4.569
REMARK  Name = 
REMARK  5 active torsions:
REMARK  status: ('A' for Active; 'I' for Inactive)
REMARK    1  A    between atoms: S_2  and  C_3
REMARK    2  A    between atoms: S_2  and  C_9
REMARK    3  A    between atoms: C_3  and  C_4
REMARK    4  A    between atoms: C_9  and  C_10
REMARK    5  A    between atoms: C_9  and  C_16
REMARK                            x       y       z     vdW  Elec       q    Type
REMARK                         _______ _______ _______ _____ _____    ______ ____
ROOT
ATOM      1  C   UNL     1       3.035   5.937  18.393  0.00  0.00    +0.000 C 
ENDROOT
BRANCH   1   2
ATOM      2  C   UNL     1       2.325   4.767  19.076  0.00  0.00    +0.000 A 
ATOM      3  C   UNL     1       2.551   4.438  20.424  0.00  0.00    +0.000 A 
ATOM      4  C   UNL     1       1.953   3.313  20.996  0.00  0.00    +0.000 A 
ATOM      5  C   UNL     1       1.124   2.495  20.230  0.00  0.00    +0.000 A 
ATOM      6  C   UNL     1       0.888   2.805  18.894  0.00  0.00    +0.000 A 
ATOM      7  C   UNL     1       1.482   3.930  18.321  0.00  0.00    +0.000 A 
ENDBRANCH   1   2
BRANCH   1   8
ATOM      8  C   UNL     1       2.405   7.293  18.713  0.00  0.00    +0.000 A 
ATOM      9  C   UNL     1       2.216   8.208  17.658  0.00  0.00    +0.000 A 
ATOM     10  C   UNL     1       1.620   9.452  17.876  0.00  0.00    +0.000 A 
ATOM     11  C   UNL     1       1.195   9.803  19.154  0.00  0.00    +0.000 A 
ATOM     12  C   UNL     1       1.352   8.905  20.207  0.00  0.00    +0.000 A 
ATOM     13  C   UNL     1       1.938   7.655  19.987  0.00  0.00    +0.000 A 
ENDBRANCH   1   8
BRANCH   1  15
ATOM     14  O   UNL     1       5.253   4.282  18.373  0.00  0.00    +0.000 OA
ATOM     15  S   UNL     1       4.856   5.776  18.688  0.00  0.00    +0.000 S 
BRANCH  15  16
ATOM     16  C   UNL     1       5.439   6.787  17.289  0.00  0.00    +0.000 C 
BRANCH  16  17
ATOM     17  C   UNL     1       5.875   5.883  16.179  0.00  0.00    +0.000 A 
ATOM     18  C   UNL     1       5.049   5.179  15.320  0.00  0.00    +0.000 A 
ATOM     19  S   UNL     1       5.980   4.230  14.240  0.00  0.00    +0.000 S 
ATOM     20  C   UNL     1       7.405   4.818  14.988  0.00  0.00    +0.000 A 
ATOM     21  N   UNL     1       7.236   5.684  15.964  0.00  0.00    +0.000 NA
ENDBRANCH  16  17
ENDBRANCH  15  16
ENDBRANCH   1  15
TORSDOF 5
ENDMDL
MODEL 7
REMARK VINA RESULT:      -7.2      1.905      4.482
REMARK  Name = 
REMARK  5 active torsions:
REMARK  status: ('A' for Active; 'I' for Inactive)
REMARK    1  A    between atoms: S_2  and  C_3
REMARK    2  A    between atoms: S_2  and  C_9
REMARK    3  A    between atoms: C_3  and  C_4
REMARK    4  A    between atoms: C_9  and  C_10
REMARK    5  A    between atoms: C_9  and  C_16
REMARK                            x       y       z     vdW  Elec       q    Type
REMARK                         _______ _______ _______ _____ _____    ______ ____
ROOT
ATOM      1  C   UNL     1       3.072   5.835  18.455  0.00  0.00    +0.000 C 
ENDROOT
BRANCH   1   2
ATOM      2  C   UNL     1       2.354   4.713  19.206  0.00  0.00    +0.000 A 
ATOM      3  C   UNL     1       2.532   4.499  20.584  0.00  0.00    +0.000 A 
ATOM      4  C   UNL     1       1.928   3.415  21.224  0.00  0.00    +0.000 A 
ATOM      5  C   UNL     1       1.141   2.523  20.498  0.00  0.00    +0.000 A 
ATOM      6  C   UNL     1       0.953   2.717  19.133  0.00  0.00    +0.000 A 
ATOM      7  C   UNL     1       1.553   3.802  18.491  0.00  0.00    +0.000 A 
ENDBRANCH   1   2
BRANCH   1   8
ATOM      8  C   UNL     1       2.412   7.202  18.641  0.00  0.00    +0.000 A 
ATOM      9  C   UNL     1       1.968   7.559  19.931  0.00  0.00    +0.000 A 
ATOM     10  C   UNL     1       1.383   8.803  20.177  0.00  0.00    +0.000 A 
ATOM     11  C   UNL     1       1.236   9.718  19.138  0.00  0.00    +0.000 A 
ATOM     12  C   UNL     1       1.687   9.393  17.861  0.00  0.00    +0.000 A 
ATOM     13  C   UNL     1       2.283   8.153  17.617  0.00  0.00    +0.000 A 
ENDBRANCH   1   8
BRANCH   1  15
ATOM     14  O   UNL     1       5.337   4.247  18.535  0.00  0.00    +0.000 OA
ATOM     15  S   UNL     1       4.883   5.729  18.828  0.00  0.00    +0.000 S 
BRANCH  15  16
ATOM     16  C   UNL     1       5.495   6.754  17.451  0.00  0.00    +0.000 C 
BRANCH  16  17
ATOM     17  C   UNL     1       5.877   5.864  16.310  0.00  0.00    +0.000 A 
ATOM     18  C   UNL     1       5.012   5.142  15.505  0.00  0.00    +0.000 A 
ATOM     19  S   UNL     1       5.891   4.219  14.360  0.00  0.00    +0.000 S 
ATOM     20  C   UNL     1       7.348   4.840  15.014  0.00  0.00    +0.000 A 
ATOM     21  N   UNL     1       7.224   5.698  16.003  0.00  0.00    +0.000 NA
ENDBRANCH  16  17
ENDBRANCH  15  16
ENDBRANCH   1  15
TORSDOF 5
ENDMDL
MODEL 8
REMARK VINA RESULT:      -7.2      0.113      1.490
REMARK  Name = 
REMARK  5 active torsions:
REMARK  status: ('A' for Active; 'I' for Inactive)
REMARK    1  A    between atoms: S_2  and  C_3
REMARK    2  A    between atoms: S_2  and  C_9
REMARK    3  A    between atoms: C_3  and  C_4
REMARK    4  A    between atoms: C_9  and  C_10
REMARK    5  A    between atoms: C_9  and  C_16
REMARK                            x       y       z     vdW  Elec       q    Type
REMARK                         _______ _______ _______ _____ _____    ______ ____
ROOT
ATOM      1  C   UNL     1       4.526   5.789  18.137  0.00  0.00    +0.000 C 
ENDROOT
BRANCH   1   2
ATOM      2  C   UNL     1       3.493   6.861  18.491  0.00  0.00    +0.000 A 
ATOM      3  C   UNL     1       2.773   6.839  19.697  0.00  0.00    +0.000 A 
ATOM      4  C   UNL     1       1.777   7.784  19.954  0.00  0.00    +0.000 A 
ATOM      5  C   UNL     1       1.481   8.763  19.007  0.00  0.00    +0.000 A 
ATOM      6  C   UNL     1       2.183   8.802  17.806  0.00  0.00    +0.000 A 
ATOM      7  C   UNL     1       3.181   7.860  17.549  0.00  0.00    +0.000 A 
ENDBRANCH   1   2
BRANCH   1   8
ATOM      8  C   UNL     1       3.990   4.365  18.290  0.00  0.00    +0.000 A 
ATOM      9  C   UNL     1       2.954   3.945  17.429  0.00  0.00    +0.000 A 
ATOM     10  C   UNL     1       2.439   2.649  17.496  0.00  0.00    +0.000 A 
ATOM     11  C   UNL     1       2.953   1.744  18.419  0.00  0.00    +0.000 A 
ATOM     12  C   UNL     1       3.990   2.132  19.264  0.00  0.00    +0.000 A 
ATOM     13  C   UNL     1       4.514   3.426  19.191  0.00  0.00    +0.000 A 
ENDBRANCH   1   8
BRANCH   1  15
ATOM     14  O   UNL     1       6.372   7.335  16.773  0.00  0.00    +0.000 OA
ATOM     15  S   UNL     1       5.289   6.220  16.506  0.00  0.00    +0.000 S 
BRANCH  15  16
ATOM     16  C   UNL     1       6.190   4.662  16.219  0.00  0.00    +0.000 C 
BRANCH  16  17
ATOM     17  C   UNL     1       6.576   4.578  14.775  0.00  0.00    +0.000 A 
ATOM     18  C   UNL     1       6.004   3.757  13.818  0.00  0.00    +0.000 A 
ATOM     19  S   UNL     1       6.798   3.953  12.313  0.00  0.00    +0.000 S 
ATOM     20  C   UNL     1       7.838   5.106  13.037  0.00  0.00    +0.000 A 
ATOM     21  N   UNL     1       7.622   5.369  14.307  0.00  0.00    +0.000 NA
ENDBRANCH  16  17
ENDBRANCH  15  16
ENDBRANCH   1  15
TORSDOF 5
ENDMDL
MODEL 9
REMARK VINA RESULT:      -7.1      3.072      5.958
REMARK  Name = 
REMARK  5 active torsions:
REMARK  status: ('A' for Active; 'I' for Inactive)
REMARK    1  A    between atoms: S_2  and  C_3
REMARK    2  A    between atoms: S_2  and  C_9
REMARK    3  A    between atoms: C_3  and  C_4
REMARK    4  A    between atoms: C_9  and  C_10
REMARK    5  A    between atoms: C_9  and  C_16
REMARK                            x       y       z     vdW  Elec       q    Type
REMARK                         _______ _______ _______ _____ _____    ______ ____
ROOT
ATOM      1  C   UNL     1       3.985   5.505  18.452  0.00  0.00    +0.000 C 
ENDROOT
BRANCH   1   2
ATOM      2  C   UNL     1       5.468   5.879  18.415  0.00  0.00    +0.000 A 
ATOM      3  C   UNL     1       6.402   5.328  19.309  0.00  0.00    +0.000 A 
ATOM      4  C   UNL     1       7.733   5.753  19.305  0.00  0.00    +0.000 A 
ATOM      5  C   UNL     1       8.150   6.738  18.412  0.00  0.00    +0.000 A 
ATOM      6  C   UNL     1       7.240   7.296  17.519  0.00  0.00    +0.000 A 
ATOM      7  C   UNL     1       5.910   6.870  17.519  0.00  0.00    +0.000 A 
ENDBRANCH   1   2
BRANCH   1   8
ATOM      8  C   UNL     1       3.063   6.715  18.606  0.00  0.00    +0.000 A 
ATOM      9  C   UNL     1       2.442   6.927  19.853  0.00  0.00    +0.000 A 
ATOM     10  C   UNL     1       1.611   8.028  20.070  0.00  0.00    +0.000 A 
ATOM     11  C   UNL     1       1.390   8.943  19.046  0.00  0.00    +0.000 A 
ATOM     12  C   UNL     1       2.012   8.764  17.812  0.00  0.00    +0.000 A 
ATOM     13  C   UNL     1       2.852   7.668  17.598  0.00  0.00    +0.000 A 
ENDBRANCH   1   8
BRANCH   1  15
ATOM     14  O   UNL     1       4.905   4.351  16.111  0.00  0.00    +0.000 OA
ATOM     15  S   UNL     1       3.629   4.363  17.038  0.00  0.00    +0.000 S 
BRANCH  15  16
ATOM     16  C   UNL     1       3.629   2.793  17.962  0.00  0.00    +0.000 C 
BRANCH  16  17
ATOM     17  C   UNL     1       2.762   2.937  19.174  0.00  0.00    +0.000 A 
ATOM     18  C   UNL     1       3.142   2.718  20.487  0.00  0.00    +0.000 A 
ATOM     19  S   UNL     1       1.810   2.949  21.540  0.00  0.00    +0.000 S 
ATOM     20  C   UNL     1       0.831   3.319  20.183  0.00  0.00    +0.000 A 
ATOM     21  N   UNL     1       1.430   3.305  19.012  0.00  0.00    +0.000 NA
ENDBRANCH  16  17
ENDBRANCH  15  16
ENDBRANCH   1  15
TORSDOF 5
ENDMDL
