MODEL 1
REMARK VINA RESULT:      -7.1      0.000      0.000
REMARK  Name = 
REMARK  4 active torsions:
REMARK  status: ('A' for Active; 'I' for Inactive)
REMARK    1  A    between atoms: C_1  and  N_2
REMARK    2  A    between atoms: C_3  and  N_4
REMARK    3  A    between atoms: C_10  and  C_11
REMARK    4  A    between atoms: N_12  and  O_13
REMARK                            x       y       z     vdW  Elec       q    Type
REMARK                         _______ _______ _______ _____ _____    ______ ____
ROOT
ATOM      1  C   UNL     1       2.716   3.209  16.724  0.00  0.00    +0.000 C 
ATOM      2  N   UNL     1       3.925   3.897  17.133  0.00  0.00    +0.000 N 
ATOM      3  C   UNL     1       4.290   4.285  18.413  0.00  0.00    +0.000 A 
ATOM      4  C   UNL     1       5.588   4.796  18.325  0.00  0.00    +0.000 A 
ATOM      5  C   UNL     1       5.974   4.754  16.936  0.00  0.00    +0.000 A 
ATOM      6  C   UNL     1       7.125   5.144  16.214  0.00  0.00    +0.000 A 
ATOM      7  C   UNL     1       7.188   4.957  14.828  0.00  0.00    +0.000 A 
ATOM      8  C   UNL     1       6.125   4.379  14.147  0.00  0.00    +0.000 A 
ATOM      9  C   UNL     1       4.977   3.982  14.832  0.00  0.00    +0.000 A 
ATOM     10  C   UNL     1       4.922   4.187  16.222  0.00  0.00    +0.000 A 
ENDROOT
BRANCH   3  11
ATOM     11  N   UNL     1       3.438   4.059  19.465  0.00  0.00    +0.000 N 
ATOM     12  C   UNL     1       3.563   2.898  20.361  0.00  0.00    +0.000 C 
ATOM     13  C   UNL     1       2.161   2.494  20.860  0.00  0.00    +0.000 C 
ATOM     14  O   UNL     1       1.471   3.592  21.489  0.00  0.00    +0.000 OA
ATOM     15  C   UNL     1       1.366   4.706  20.585  0.00  0.00    +0.000 C 
ATOM     16  C   UNL     1       2.759   5.186  20.141  0.00  0.00    +0.000 C 
ENDBRANCH   3  11
BRANCH   4  17
ATOM     17  C   UNL     1       6.384   5.316  19.424  0.00  0.00    +0.000 C 
ATOM     18  N   UNL     1       7.632   4.989  19.545  0.00  0.00    +0.000 NA
BRANCH  18  19
ATOM     19  O   UNL     1       8.179   5.617  20.671  0.00  0.00    +0.000 OA
ATOM     20  H   UNL     1       7.406   5.673  21.271  0.00  0.00    +0.000 HD
ENDBRANCH  18  19
ENDBRANCH   4  17
TORSDOF 3
ENDMDL
MODEL 2
REMARK VINA RESULT:      -6.7      0.400      1.170
REMARK  Name = 
REMARK  4 active torsions:
REMARK  status: ('A' for Active; 'I' for Inactive)
REMARK    1  A    between atoms: C_1  and  N_2
REMARK    2  A    between atoms: C_3  and  N_4
REMARK    3  A    between atoms: C_10  and  C_11
REMARK    4  A    between atoms: N_12  and  O_13
REMARK                            x       y       z     vdW  Elec       q    Type
REMARK                         _______ _______ _______ _____ _____    ______ ____
ROOT
ATOM      1  C   UNL     1       2.757   3.097  16.594  0.00  0.00    +0.000 C 
ATOM      2  N   UNL     1       3.942   3.810  17.032  0.00  0.00    +0.000 N 
ATOM      3  C   UNL     1       4.268   4.204  18.320  0.00  0.00    +0.000 A 
ATOM      4  C   UNL     1       5.557   4.741  18.263  0.00  0.00    +0.000 A 
ATOM      5  C   UNL     1       5.977   4.707  16.883  0.00  0.00    +0.000 A 
ATOM      6  C   UNL     1       7.137   5.121  16.189  0.00  0.00    +0.000 A 
ATOM      7  C   UNL     1       7.237   4.937  14.805  0.00  0.00    +0.000 A 
ATOM      8  C   UNL     1       6.202   4.337  14.099  0.00  0.00    +0.000 A 
ATOM      9  C   UNL     1       5.047   3.916  14.756  0.00  0.00    +0.000 A 
ATOM     10  C   UNL     1       4.955   4.119  16.145  0.00  0.00    +0.000 A 
ENDROOT
BRANCH   3  11
ATOM     11  N   UNL     1       3.396   3.961  19.351  0.00  0.00    +0.000 N 
ATOM     12  C   UNL     1       2.223   4.808  19.624  0.00  0.00    +0.000 C 
ATOM     13  C   UNL     1       1.941   4.803  21.140  0.00  0.00    +0.000 C 
ATOM     14  O   UNL     1       1.776   3.469  21.657  0.00  0.00    +0.000 OA
ATOM     15  C   UNL     1       2.939   2.671  21.375  0.00  0.00    +0.000 C 
ATOM     16  C   UNL     1       3.192   2.587  19.859  0.00  0.00    +0.000 C 
ENDBRANCH   3  11
BRANCH   4  17
ATOM     17  C   UNL     1       6.316   5.277  19.381  0.00  0.00    +0.000 C 
ATOM     18  N   UNL     1       7.575   5.000  19.514  0.00  0.00    +0.000 NA
BRANCH  18  19
ATOM     19  O   UNL     1       8.080   5.633  20.657  0.00  0.00    +0.000 OA
ATOM     20  H   UNL     1       8.327   4.871  21.221  0.00  0.00    +0.000 HD
ENDBRANCH  18  19
ENDBRANCH   4  17
TORSDOF 3
ENDMDL
MODEL 3
REMARK VINA RESULT:      -6.3      2.377      2.713
REMARK  Name = 
REMARK  4 active torsions:
REMARK  status: ('A' for Active; 'I' for Inactive)
REMARK    1  A    between atoms: C_1  and  N_2
REMARK    2  A    between atoms: C_3  and  N_4
REMARK    3  A    between atoms: C_10  and  C_11
REMARK    4  A    between atoms: N_12  and  O_13
REMARK                            x       y       z     vdW  Elec       q    Type
REMARK                         _______ _______ _______ _____ _____    ______ ____
ROOT
ATOM      1  C   UNL     1       4.034   2.008  17.721  0.00  0.00    +0.000 C 
ATOM      2  N   UNL     1       4.043   3.444  17.523  0.00  0.00    +0.000 N 
ATOM      3  C   UNL     1       3.377   4.408  18.264  0.00  0.00    +0.000 A 
ATOM      4  C   UNL     1       3.791   5.650  17.774  0.00  0.00    +0.000 A 
ATOM      5  C   UNL     1       4.690   5.401  16.673  0.00  0.00    +0.000 A 
ATOM      6  C   UNL     1       5.403   6.222  15.770  0.00  0.00    +0.000 A 
ATOM      7  C   UNL     1       6.220   5.649  14.787  0.00  0.00    +0.000 A 
ATOM      8  C   UNL     1       6.345   4.270  14.693  0.00  0.00    +0.000 A 
ATOM      9  C   UNL     1       5.655   3.434  15.571  0.00  0.00    +0.000 A 
ATOM     10  C   UNL     1       4.829   4.022  16.545  0.00  0.00    +0.000 A 
ENDROOT
BRANCH   3  11
ATOM     11  N   UNL     1       2.561   4.031  19.301  0.00  0.00    +0.000 N 
ATOM     12  C   UNL     1       2.787   4.457  20.692  0.00  0.00    +0.000 C 
ATOM     13  C   UNL     1       2.289   3.351  21.644  0.00  0.00    +0.000 C 
ATOM     14  O   UNL     1       0.912   3.004  21.400  0.00  0.00    +0.000 OA
ATOM     15  C   UNL     1       0.729   2.592  20.034  0.00  0.00    +0.000 C 
ATOM     16  C   UNL     1       1.137   3.714  19.063  0.00  0.00    +0.000 C 
ENDBRANCH   3  11
BRANCH   4  17
ATOM     17  C   UNL     1       3.359   6.951  18.255  0.00  0.00    +0.000 C 
ATOM     18  N   UNL     1       2.213   7.438  17.898  0.00  0.00    +0.000 NA
BRANCH  18  19
ATOM     19  O   UNL     1       2.024   8.692  18.492  0.00  0.00    +0.000 OA
ATOM     20  H   UNL     1       1.067   8.677  18.704  0.00  0.00    +0.000 HD
ENDBRANCH  18  19
ENDBRANCH   4  17
TORSDOF 3
ENDMDL
MODEL 4
REMARK VINA RESULT:      -6.3      2.407      5.653
REMARK  Name = 
REMARK  4 active torsions:
REMARK  status: ('A' for Active; 'I' for Inactive)
REMARK    1  A    between atoms: C_1  and  N_2
REMARK    2  A    between atoms: C_3  and  N_4
REMARK    3  A    between atoms: C_10  and  C_11
REMARK    4  A    between atoms: N_12  and  O_13
REMARK                            x       y       z     vdW  Elec       q    Type
REMARK                         _______ _______ _______ _____ _____    ______ ____
ROOT
ATOM      1  C   UNL     1       4.231   7.438  16.995  0.00  0.00    +0.000 C 
ATOM      2  N   UNL     1       3.911   6.285  17.815  0.00  0.00    +0.000 N 
ATOM      3  C   UNL     1       4.429   5.003  17.718  0.00  0.00    +0.000 A 
ATOM      4  C   UNL     1       3.915   4.278  18.796  0.00  0.00    +0.000 A 
ATOM      5  C   UNL     1       3.024   5.153  19.518  0.00  0.00    +0.000 A 
ATOM      6  C   UNL     1       2.197   5.007  20.656  0.00  0.00    +0.000 A 
ATOM      7  C   UNL     1       1.435   6.087  21.119  0.00  0.00    +0.000 A 
ATOM      8  C   UNL     1       1.488   7.314  20.472  0.00  0.00    +0.000 A 
ATOM      9  C   UNL     1       2.296   7.489  19.349  0.00  0.00    +0.000 A 
ATOM     10  C   UNL     1       3.046   6.393  18.887  0.00  0.00    +0.000 A 
ENDROOT
BRANCH   3  11
ATOM     11  N   UNL     1       5.328   4.703  16.726  0.00  0.00    +0.000 N 
ATOM     12  C   UNL     1       6.782   4.653  16.953  0.00  0.00    +0.000 C 
ATOM     13  C   UNL     1       7.508   5.073  15.658  0.00  0.00    +0.000 C 
ATOM     14  O   UNL     1       7.109   4.273  14.528  0.00  0.00    +0.000 OA
ATOM     15  C   UNL     1       5.685   4.346  14.336  0.00  0.00    +0.000 C 
ATOM     16  C   UNL     1       4.936   3.848  15.585  0.00  0.00    +0.000 C 
ENDBRANCH   3  11
BRANCH   4  17
ATOM     17  C   UNL     1       4.192   2.885  19.106  0.00  0.00    +0.000 C 
ATOM     18  N   UNL     1       5.060   2.574  20.016  0.00  0.00    +0.000 NA
BRANCH  18  19
ATOM     19  O   UNL     1       5.146   1.181  20.133  0.00  0.00    +0.000 OA
ATOM     20  H   UNL     1       4.385   0.976  20.715  0.00  0.00    +0.000 HD
ENDBRANCH  18  19
ENDBRANCH   4  17
TORSDOF 3
ENDMDL
MODEL 5
REMARK VINA RESULT:      -6.3      3.104      4.945
REMARK  Name = 
REMARK  4 active torsions:
REMARK  status: ('A' for Active; 'I' for Inactive)
REMARK    1  A    between atoms: C_1  and  N_2
REMARK    2  A    between atoms: C_3  and  N_4
REMARK    3  A    between atoms: C_10  and  C_11
REMARK    4  A    between atoms: N_12  and  O_13
REMARK                            x       y       z     vdW  Elec       q    Type
REMARK                         _______ _______ _______ _____ _____    ______ ____
ROOT
ATOM      1  C   UNL     1       1.568   5.264  20.722  0.00  0.00    +0.000 C 
ATOM      2  N   UNL     1       2.230   6.004  19.665  0.00  0.00    +0.000 N 
ATOM      3  C   UNL     1       3.111   5.518  18.712  0.00  0.00    +0.000 A 
ATOM      4  C   UNL     1       3.382   6.575  17.838  0.00  0.00    +0.000 A 
ATOM      5  C   UNL     1       2.674   7.732  18.329  0.00  0.00    +0.000 A 
ATOM      6  C   UNL     1       2.568   9.079  17.914  0.00  0.00    +0.000 A 
ATOM      7  C   UNL     1       1.770   9.979  18.631  0.00  0.00    +0.000 A 
ATOM      8  C   UNL     1       1.066   9.557  19.751  0.00  0.00    +0.000 A 
ATOM      9  C   UNL     1       1.149   8.234  20.183  0.00  0.00    +0.000 A 
ATOM     10  C   UNL     1       1.965   7.344  19.462  0.00  0.00    +0.000 A 
ENDROOT
BRANCH   3  11
ATOM     11  N   UNL     1       3.480   4.197  18.732  0.00  0.00    +0.000 N 
ATOM     12  C   UNL     1       3.089   3.241  17.683  0.00  0.00    +0.000 C 
ATOM     13  C   UNL     1       2.942   1.839  18.309  0.00  0.00    +0.000 C 
ATOM     14  O   UNL     1       4.136   1.425  19.001  0.00  0.00    +0.000 OA
ATOM     15  C   UNL     1       4.486   2.380  20.018  0.00  0.00    +0.000 C 
ATOM     16  C   UNL     1       4.726   3.771  19.406  0.00  0.00    +0.000 C 
ENDBRANCH   3  11
BRANCH   4  17
ATOM     17  C   UNL     1       4.252   6.527  16.675  0.00  0.00    +0.000 C 
ATOM     18  N   UNL     1       5.536   6.427  16.819  0.00  0.00    +0.000 NA
BRANCH  18  19
ATOM     19  O   UNL     1       6.152   6.395  15.561  0.00  0.00    +0.000 OA
ATOM     20  H   UNL     1       5.382   6.402  14.955  0.00  0.00    +0.000 HD
ENDBRANCH  18  19
ENDBRANCH   4  17
TORSDOF 3
ENDMDL
MODEL 6
REMARK VINA RESULT:      -6.1      2.873      6.163
REMARK  Name = 
REMARK  4 active torsions:
REMARK  status: ('A' for Active; 'I' for Inactive)
REMARK    1  A    between atoms: C_1  and  N_2
REMARK    2  A    between atoms: C_3  and  N_4
REMARK    3  A    between atoms: C_10  and  C_11
REMARK    4  A    between atoms: N_12  and  O_13
REMARK                            x       y       z     vdW  Elec       q    Type
REMARK                         _______ _______ _______ _____ _____    ______ ____
ROOT
ATOM      1  C   UNL     1       3.346   8.075  17.548  0.00  0.00    +0.000 C 
ATOM      2  N   UNL     1       2.741   7.385  18.671  0.00  0.00    +0.000 N 
ATOM      3  C   UNL     1       3.023   6.111  19.137  0.00  0.00    +0.000 A 
ATOM      4  C   UNL     1       2.280   5.937  20.309  0.00  0.00    +0.000 A 
ATOM      5  C   UNL     1       1.498   7.133  20.505  0.00  0.00    +0.000 A 
ATOM      6  C   UNL     1       0.551   7.553  21.467  0.00  0.00    +0.000 A 
ATOM      7  C   UNL     1      -0.043   8.817  21.370  0.00  0.00    +0.000 A 
ATOM      8  C   UNL     1       0.297   9.677  20.335  0.00  0.00    +0.000 A 
ATOM      9  C   UNL     1       1.230   9.292  19.372  0.00  0.00    +0.000 A 
ATOM     10  C   UNL     1       1.809   8.015  19.474  0.00  0.00    +0.000 A 
ENDROOT
BRANCH   3  11
ATOM     11  N   UNL     1       3.945   5.333  18.485  0.00  0.00    +0.000 N 
ATOM     12  C   UNL     1       5.272   5.025  19.044  0.00  0.00    +0.000 C 
ATOM     13  C   UNL     1       6.280   4.863  17.889  0.00  0.00    +0.000 C 
ATOM     14  O   UNL     1       5.854   3.874  16.931  0.00  0.00    +0.000 OA
ATOM     15  C   UNL     1       4.557   4.207  16.406  0.00  0.00    +0.000 C 
ATOM     16  C   UNL     1       3.512   4.288  17.532  0.00  0.00    +0.000 C 
ENDBRANCH   3  11
BRANCH   4  17
ATOM     17  C   UNL     1       2.266   4.752  21.150  0.00  0.00    +0.000 C 
ATOM     18  N   UNL     1       1.344   3.853  21.003  0.00  0.00    +0.000 NA
BRANCH  18  19
ATOM     19  O   UNL     1       1.547   2.813  21.919  0.00  0.00    +0.000 OA
ATOM     20  H   UNL     1       2.503   2.628  21.811  0.00  0.00    +0.000 HD
ENDBRANCH  18  19
ENDBRANCH   4  17
TORSDOF 3
ENDMDL
MODEL 7
REMARK VINA RESULT:      -6.1      2.947      3.728
REMARK  Name = 
REMARK  4 active torsions:
REMARK  status: ('A' for Active; 'I' for Inactive)
REMARK    1  A    between atoms: C_1  and  N_2
REMARK    2  A    between atoms: C_3  and  N_4
REMARK    3  A    between atoms: C_10  and  C_11
REMARK    4  A    between atoms: N_12  and  O_13
REMARK                            x       y       z     vdW  Elec       q    Type
REMARK                         _______ _______ _______ _____ _____    ______ ____
ROOT
ATOM      1  C   UNL     1       5.037   3.372  19.612  0.00  0.00    +0.000 C 
ATOM      2  N   UNL     1       4.746   4.596  18.891  0.00  0.00    +0.000 N 
ATOM      3  C   UNL     1       3.502   5.128  18.588  0.00  0.00    +0.000 A 
ATOM      4  C   UNL     1       3.730   6.374  17.997  0.00  0.00    +0.000 A 
ATOM      5  C   UNL     1       5.158   6.552  17.904  0.00  0.00    +0.000 A 
ATOM      6  C   UNL     1       6.000   7.565  17.390  0.00  0.00    +0.000 A 
ATOM      7  C   UNL     1       7.392   7.431  17.460  0.00  0.00    +0.000 A 
ATOM      8  C   UNL     1       7.962   6.306  18.042  0.00  0.00    +0.000 A 
ATOM      9  C   UNL     1       7.157   5.292  18.560  0.00  0.00    +0.000 A 
ATOM     10  C   UNL     1       5.761   5.433  18.471  0.00  0.00    +0.000 A 
ENDROOT
BRANCH   3  11
ATOM     11  N   UNL     1       2.363   4.452  18.947  0.00  0.00    +0.000 N 
ATOM     12  C   UNL     1       1.584   4.780  20.152  0.00  0.00    +0.000 C 
ATOM     13  C   UNL     1       0.929   3.494  20.694  0.00  0.00    +0.000 C 
ATOM     14  O   UNL     1       0.129   2.830  19.696  0.00  0.00    +0.000 OA
ATOM     15  C   UNL     1       0.922   2.523  18.536  0.00  0.00    +0.000 C 
ATOM     16  C   UNL     1       1.516   3.803  17.922  0.00  0.00    +0.000 C 
ENDBRANCH   3  11
BRANCH   4  17
ATOM     17  C   UNL     1       2.714   7.299  17.522  0.00  0.00    +0.000 C 
ATOM     18  N   UNL     1       2.662   8.510  17.981  0.00  0.00    +0.000 NA
BRANCH  18  19
ATOM     19  O   UNL     1       1.608   9.202  17.371  0.00  0.00    +0.000 OA
ATOM     20  H   UNL     1       0.878   9.072  18.012  0.00  0.00    +0.000 HD
ENDBRANCH  18  19
ENDBRANCH   4  17
TORSDOF 3
ENDMDL
MODEL 8
REMARK VINA RESULT:      -6.0      2.612      5.803
REMARK  Name = 
REMARK  4 active torsions:
REMARK  status: ('A' for Active; 'I' for Inactive)
REMARK    1  A    between atoms: C_1  and  N_2
REMARK    2  A    between atoms: C_3  and  N_4
REMARK    3  A    between atoms: C_10  and  C_11
REMARK    4  A    between atoms: N_12  and  O_13
REMARK                            x       y       z     vdW  Elec       q    Type
REMARK                         _______ _______ _______ _____ _____    ______ ____
ROOT
ATOM      1  C   UNL     1       4.457   2.317  17.537  0.00  0.00    +0.000 C 
ATOM      2  N   UNL     1       3.895   3.560  18.028  0.00  0.00    +0.000 N 
ATOM      3  C   UNL     1       4.250   4.852  17.671  0.00  0.00    +0.000 A 
ATOM      4  C   UNL     1       3.349   5.708  18.310  0.00  0.00    +0.000 A 
ATOM      5  C   UNL     1       2.470   4.890  19.110  0.00  0.00    +0.000 A 
ATOM      6  C   UNL     1       1.395   5.155  19.988  0.00  0.00    +0.000 A 
ATOM      7  C   UNL     1       0.726   4.103  20.625  0.00  0.00    +0.000 A 
ATOM      8  C   UNL     1       1.105   2.787  20.396  0.00  0.00    +0.000 A 
ATOM      9  C   UNL     1       2.161   2.494  19.533  0.00  0.00    +0.000 A 
ATOM     10  C   UNL     1       2.832   3.561  18.910  0.00  0.00    +0.000 A 
ENDROOT
BRANCH   3  11
ATOM     11  N   UNL     1       5.274   5.058  16.782  0.00  0.00    +0.000 N 
ATOM     12  C   UNL     1       5.051   5.475  15.387  0.00  0.00    +0.000 C 
ATOM     13  C   UNL     1       6.169   4.887  14.502  0.00  0.00    +0.000 C 
ATOM     14  O   UNL     1       7.481   5.250  14.971  0.00  0.00    +0.000 OA
ATOM     15  C   UNL     1       7.664   4.827  16.334  0.00  0.00    +0.000 C 
ATOM     16  C   UNL     1       6.613   5.471  17.255  0.00  0.00    +0.000 C 
ENDBRANCH   3  11
BRANCH   4  17
ATOM     17  C   UNL     1       3.331   7.158  18.221  0.00  0.00    +0.000 C 
ATOM     18  N   UNL     1       2.260   7.780  17.840  0.00  0.00    +0.000 NA
BRANCH  18  19
ATOM     19  O   UNL     1       2.489   9.162  17.839  0.00  0.00    +0.000 OA
ATOM     20  H   UNL     1       2.205   9.417  16.937  0.00  0.00    +0.000 HD
ENDBRANCH  18  19
ENDBRANCH   4  17
TORSDOF 3
ENDMDL
MODEL 9
REMARK VINA RESULT:      -6.0      0.966      1.011
REMARK  Name = 
REMARK  4 active torsions:
REMARK  status: ('A' for Active; 'I' for Inactive)
REMARK    1  A    between atoms: C_1  and  N_2
REMARK    2  A    between atoms: C_3  and  N_4
REMARK    3  A    between atoms: C_10  and  C_11
REMARK    4  A    between atoms: N_12  and  O_13
REMARK                            x       y       z     vdW  Elec       q    Type
REMARK                         _______ _______ _______ _____ _____    ______ ____
ROOT
ATOM      1  C   UNL     1       2.998   3.220  16.522  0.00  0.00    +0.000 C 
ATOM      2  N   UNL     1       4.264   3.900  16.711  0.00  0.00    +0.000 N 
ATOM      3  C   UNL     1       4.809   4.368  17.897  0.00  0.00    +0.000 A 
ATOM      4  C   UNL     1       6.091   4.834  17.595  0.00  0.00    +0.000 A 
ATOM      5  C   UNL     1       6.282   4.681  16.173  0.00  0.00    +0.000 A 
ATOM      6  C   UNL     1       7.330   4.985  15.274  0.00  0.00    +0.000 A 
ATOM      7  C   UNL     1       7.198   4.697  13.911  0.00  0.00    +0.000 A 
ATOM      8  C   UNL     1       6.041   4.102  13.426  0.00  0.00    +0.000 A 
ATOM      9  C   UNL     1       4.991   3.788  14.288  0.00  0.00    +0.000 A 
ATOM     10  C   UNL     1       5.132   4.094  15.654  0.00  0.00    +0.000 A 
ENDROOT
BRANCH   3  11
ATOM     11  N   UNL     1       4.105   4.244  19.068  0.00  0.00    +0.000 N 
ATOM     12  C   UNL     1       4.261   3.096  19.977  0.00  0.00    +0.000 C 
ATOM     13  C   UNL     1       2.918   2.832  20.688  0.00  0.00    +0.000 C 
ATOM     14  O   UNL     1       2.426   4.001  21.371  0.00  0.00    +0.000 OA
ATOM     15  C   UNL     1       2.285   5.100  20.454  0.00  0.00    +0.000 C 
ATOM     16  C   UNL     1       3.633   5.442  19.795  0.00  0.00    +0.000 C 
ENDBRANCH   3  11
BRANCH   4  17
ATOM     17  C   UNL     1       7.040   5.409  18.533  0.00  0.00    +0.000 C 
ATOM     18  N   UNL     1       7.628   6.533  18.269  0.00  0.00    +0.000 NA
BRANCH  18  19
ATOM     19  O   UNL     1       8.486   6.879  19.321  0.00  0.00    +0.000 OA
ATOM     20  H   UNL     1       7.861   6.993  20.067  0.00  0.00    +0.000 HD
ENDBRANCH  18  19
ENDBRANCH   4  17
TORSDOF 3
ENDMDL
