MODEL 1
REMARK VINA RESULT:      -8.5      0.000      0.000
REMARK  Name = 
REMARK  7 active torsions:
REMARK  status: ('A' for Active; 'I' for Inactive)
REMARK    1  A    between atoms: C_1  and  C_2
REMARK    2  A    between atoms: C_2  and  N_13
REMARK    3  A    between atoms: C_3  and  C_4
REMARK    4  A    between atoms: C_4  and  C_6
REMARK    5  A    between atoms: C_9  and  C_10
REMARK    6  A    between atoms: N_13  and  C_14
REMARK    7  A    between atoms: C_17  and  N_18
REMARK                            x       y       z     vdW  Elec       q    Type
REMARK                         _______ _______ _______ _____ _____    ______ ____
ROOT
ATOM      1  N   UNL     1       6.866   7.280  16.652  0.00  0.00    +0.000 N 
ATOM      2  H   UNL     1       7.394   6.986  15.834  0.00  0.00    +0.000 HD
ENDROOT
BRANCH   1   3
ATOM      3  C   UNL     1       5.741   6.448  16.864  0.00  0.00    +0.000 A 
ATOM      4  C   UNL     1       5.753   5.073  16.632  0.00  0.00    +0.000 A 
ATOM      5  C   UNL     1       4.660   4.268  16.982  0.00  0.00    +0.000 A 
ATOM      6  C   UNL     1       3.513   4.800  17.576  0.00  0.00    +0.000 A 
ATOM      7  C   UNL     1       3.490   6.188  17.767  0.00  0.00    +0.000 A 
ATOM      8  C   UNL     1       4.588   6.996  17.433  0.00  0.00    +0.000 A 
BRANCH   6   9
ATOM      9  N   UNL     1       2.470   4.006  18.011  0.00  0.00    +0.000 N 
ATOM     10  C   UNL     1       1.618   4.382  19.148  0.00  0.00    +0.000 C 
ATOM     11  C   UNL     1       1.850   3.439  20.336  0.00  0.00    +0.000 C 
ATOM     12  O   UNL     1       1.670   2.065  19.955  0.00  0.00    +0.000 OA
ATOM     13  C   UNL     1       2.601   1.714  18.916  0.00  0.00    +0.000 C 
ATOM     14  C   UNL     1       2.412   2.579  17.655  0.00  0.00    +0.000 C 
ENDBRANCH   6   9
ENDBRANCH   1   3
BRANCH   1  16
ATOM     15  C   UNL     1       8.166   6.881  18.680  0.00  0.00    +0.000 C 
ATOM     16  C   UNL     1       7.652   7.858  17.648  0.00  0.00    +0.000 C 
ATOM     17  C   UNL     1       7.929   9.179  17.652  0.00  0.00    +0.000 C 
BRANCH  17  18
ATOM     18  C   UNL     1       8.822   9.895  18.604  0.00  0.00    +0.000 C 
ATOM     19  O   UNL     1       9.107   9.439  19.705  0.00  0.00    +0.000 OA
BRANCH  18  20
ATOM     20  C   UNL     1       9.440  11.167  18.135  0.00  0.00    +0.000 A 
ATOM     21  C   UNL     1       8.682  12.325  17.920  0.00  0.00    +0.000 A 
ATOM     22  C   UNL     1       9.308  13.516  17.543  0.00  0.00    +0.000 A 
ATOM     23  C   UNL     1      10.699  13.566  17.372  0.00  0.00    +0.000 A 
ATOM     24  C   UNL     1      11.383  14.854  17.019  0.00  0.00    +0.000 C 
ATOM     25  C   UNL     1      11.452  12.405  17.580  0.00  0.00    +0.000 A 
ATOM     26  C   UNL     1      10.828  11.214  17.965  0.00  0.00    +0.000 A 
ENDBRANCH  18  20
ENDBRANCH  17  18
ENDBRANCH   1  16
TORSDOF 5
ENDMDL
MODEL 2
REMARK VINA RESULT:      -8.4      0.575      1.125
REMARK  Name = 
REMARK  7 active torsions:
REMARK  status: ('A' for Active; 'I' for Inactive)
REMARK    1  A    between atoms: C_1  and  C_2
REMARK    2  A    between atoms: C_2  and  N_13
REMARK    3  A    between atoms: C_3  and  C_4
REMARK    4  A    between atoms: C_4  and  C_6
REMARK    5  A    between atoms: C_9  and  C_10
REMARK    6  A    between atoms: N_13  and  C_14
REMARK    7  A    between atoms: C_17  and  N_18
REMARK                            x       y       z     vdW  Elec       q    Type
REMARK                         _______ _______ _______ _____ _____    ______ ____
ROOT
ATOM      1  N   UNL     1       6.994   7.539  16.825  0.00  0.00    +0.000 N 
ATOM      2  H   UNL     1       7.472   7.322  15.953  0.00  0.00    +0.000 HD
ENDROOT
BRANCH   1   3
ATOM      3  C   UNL     1       5.967   6.605  17.096  0.00  0.00    +0.000 A 
ATOM      4  C   UNL     1       4.694   6.974  17.529  0.00  0.00    +0.000 A 
ATOM      5  C   UNL     1       3.667   6.027  17.656  0.00  0.00    +0.000 A 
ATOM      6  C   UNL     1       3.868   4.677  17.358  0.00  0.00    +0.000 A 
ATOM      7  C   UNL     1       5.161   4.306  16.966  0.00  0.00    +0.000 A 
ATOM      8  C   UNL     1       6.188   5.252  16.821  0.00  0.00    +0.000 A 
BRANCH   6   9
ATOM      9  N   UNL     1       2.843   3.753  17.389  0.00  0.00    +0.000 N 
ATOM     10  C   UNL     1       1.468   4.118  17.762  0.00  0.00    +0.000 C 
ATOM     11  C   UNL     1       1.082   3.485  19.104  0.00  0.00    +0.000 C 
ATOM     12  O   UNL     1       1.279   2.061  19.085  0.00  0.00    +0.000 OA
ATOM     13  C   UNL     1       2.660   1.755  18.826  0.00  0.00    +0.000 C 
ATOM     14  C   UNL     1       3.130   2.312  17.468  0.00  0.00    +0.000 C 
ENDBRANCH   6   9
ENDBRANCH   1   3
BRANCH   1  16
ATOM     15  C   UNL     1       8.373   7.200  18.812  0.00  0.00    +0.000 C 
ATOM     16  C   UNL     1       7.814   8.147  17.776  0.00  0.00    +0.000 C 
ATOM     17  C   UNL     1       8.081   9.470  17.735  0.00  0.00    +0.000 C 
BRANCH  17  18
ATOM     18  C   UNL     1       9.005  10.215  18.633  0.00  0.00    +0.000 C 
ATOM     19  O   UNL     1       9.373   9.768  19.713  0.00  0.00    +0.000 OA
BRANCH  18  20
ATOM     20  C   UNL     1       9.548  11.509  18.133  0.00  0.00    +0.000 A 
ATOM     21  C   UNL     1       8.780  12.680  18.120  0.00  0.00    +0.000 A 
ATOM     22  C   UNL     1       9.347  13.889  17.704  0.00  0.00    +0.000 A 
ATOM     23  C   UNL     1      10.686  13.942  17.291  0.00  0.00    +0.000 A 
ATOM     24  C   UNL     1      11.315  15.245  16.893  0.00  0.00    +0.000 C 
ATOM     25  C   UNL     1      11.447  12.768  17.297  0.00  0.00    +0.000 A 
ATOM     26  C   UNL     1      10.885  11.560  17.721  0.00  0.00    +0.000 A 
ENDBRANCH  18  20
ENDBRANCH  17  18
ENDBRANCH   1  16
TORSDOF 5
ENDMDL
MODEL 3
REMARK VINA RESULT:      -8.1      5.416      8.178
REMARK  Name = 
REMARK  7 active torsions:
REMARK  status: ('A' for Active; 'I' for Inactive)
REMARK    1  A    between atoms: C_1  and  C_2
REMARK    2  A    between atoms: C_2  and  N_13
REMARK    3  A    between atoms: C_3  and  C_4
REMARK    4  A    between atoms: C_4  and  C_6
REMARK    5  A    between atoms: C_9  and  C_10
REMARK    6  A    between atoms: N_13  and  C_14
REMARK    7  A    between atoms: C_17  and  N_18
REMARK                            x       y       z     vdW  Elec       q    Type
REMARK                         _______ _______ _______ _____ _____    ______ ____
ROOT
ATOM      1  N   UNL     1       2.191   6.127  20.729  0.00  0.00    +0.000 N 
ATOM      2  H   UNL     1       2.533   6.190  21.686  0.00  0.00    +0.000 HD
ENDROOT
BRANCH   1   3
ATOM      3  C   UNL     1       1.902   7.408  20.201  0.00  0.00    +0.000 A 
ATOM      4  C   UNL     1       2.188   7.774  18.886  0.00  0.00    +0.000 A 
ATOM      5  C   UNL     1       1.764   9.005  18.367  0.00  0.00    +0.000 A 
ATOM      6  C   UNL     1       1.041   9.921  19.136  0.00  0.00    +0.000 A 
ATOM      7  C   UNL     1       0.796   9.565  20.469  0.00  0.00    +0.000 A 
ATOM      8  C   UNL     1       1.203   8.327  20.989  0.00  0.00    +0.000 A 
BRANCH   6   9
ATOM      9  N   UNL     1       0.538  11.093  18.609  0.00  0.00    +0.000 N 
ATOM     10  C   UNL     1       1.300  12.351  18.623  0.00  0.00    +0.000 C 
ATOM     11  C   UNL     1       0.651  13.369  19.568  0.00  0.00    +0.000 C 
ATOM     12  O   UNL     1      -0.733  13.578  19.241  0.00  0.00    +0.000 OA
ATOM     13  C   UNL     1      -1.459  12.340  19.349  0.00  0.00    +0.000 C 
ATOM     14  C   UNL     1      -0.908  11.263  18.395  0.00  0.00    +0.000 C 
ENDBRANCH   6   9
ENDBRANCH   1   3
BRANCH   1  16
ATOM     15  C   UNL     1       1.694   4.262  19.234  0.00  0.00    +0.000 C 
ATOM     16  C   UNL     1       2.718   5.051  20.016  0.00  0.00    +0.000 C 
ATOM     17  C   UNL     1       4.040   4.774  20.029  0.00  0.00    +0.000 C 
BRANCH  17  18
ATOM     18  C   UNL     1       4.731   3.715  19.245  0.00  0.00    +0.000 C 
ATOM     19  O   UNL     1       4.750   2.543  19.600  0.00  0.00    +0.000 OA
BRANCH  18  20
ATOM     20  C   UNL     1       5.338   4.115  17.944  0.00  0.00    +0.000 A 
ATOM     21  C   UNL     1       6.650   4.596  17.855  0.00  0.00    +0.000 A 
ATOM     22  C   UNL     1       7.205   4.899  16.608  0.00  0.00    +0.000 A 
ATOM     23  C   UNL     1       6.456   4.730  15.436  0.00  0.00    +0.000 A 
ATOM     24  C   UNL     1       7.063   5.004  14.090  0.00  0.00    +0.000 C 
ATOM     25  C   UNL     1       5.142   4.258  15.529  0.00  0.00    +0.000 A 
ATOM     26  C   UNL     1       4.588   3.946  16.774  0.00  0.00    +0.000 A 
ENDBRANCH  18  20
ENDBRANCH  17  18
ENDBRANCH   1  16
TORSDOF 5
ENDMDL
MODEL 4
REMARK VINA RESULT:      -8.1      5.549      7.966
REMARK  Name = 
REMARK  7 active torsions:
REMARK  status: ('A' for Active; 'I' for Inactive)
REMARK    1  A    between atoms: C_1  and  C_2
REMARK    2  A    between atoms: C_2  and  N_13
REMARK    3  A    between atoms: C_3  and  C_4
REMARK    4  A    between atoms: C_4  and  C_6
REMARK    5  A    between atoms: C_9  and  C_10
REMARK    6  A    between atoms: N_13  and  C_14
REMARK    7  A    between atoms: C_17  and  N_18
REMARK                            x       y       z     vdW  Elec       q    Type
REMARK                         _______ _______ _______ _____ _____    ______ ____
ROOT
ATOM      1  N   UNL     1       2.763   6.931  20.257  0.00  0.00    +0.000 N 
ATOM      2  H   UNL     1       3.522   7.293  20.830  0.00  0.00    +0.000 HD
ENDROOT
BRANCH   1   3
ATOM      3  C   UNL     1       1.981   7.980  19.717  0.00  0.00    +0.000 A 
ATOM      4  C   UNL     1       2.051   8.377  18.382  0.00  0.00    +0.000 A 
ATOM      5  C   UNL     1       1.164   9.328  17.860  0.00  0.00    +0.000 A 
ATOM      6  C   UNL     1       0.172   9.922  18.646  0.00  0.00    +0.000 A 
ATOM      7  C   UNL     1       0.136   9.551  19.996  0.00  0.00    +0.000 A 
ATOM      8  C   UNL     1       1.011   8.586  20.521  0.00  0.00    +0.000 A 
BRANCH   6   9
ATOM      9  N   UNL     1      -0.766  10.788  18.121  0.00  0.00    +0.000 N 
ATOM     10  C   UNL     1      -1.096  12.070  18.761  0.00  0.00    +0.000 C 
ATOM     11  C   UNL     1      -2.523  12.045  19.322  0.00  0.00    +0.000 C 
ATOM     12  O   UNL     1      -3.476  11.684  18.309  0.00  0.00    +0.000 OA
ATOM     13  C   UNL     1      -3.176  10.376  17.790  0.00  0.00    +0.000 C 
ATOM     14  C   UNL     1      -1.773  10.314  17.158  0.00  0.00    +0.000 C 
ENDBRANCH   6   9
ENDBRANCH   1   3
BRANCH   1  16
ATOM     15  C   UNL     1       1.913   5.117  18.861  0.00  0.00    +0.000 C 
ATOM     16  C   UNL     1       3.069   5.730  19.617  0.00  0.00    +0.000 C 
ATOM     17  C   UNL     1       4.307   5.195  19.673  0.00  0.00    +0.000 C 
BRANCH  17  18
ATOM     18  C   UNL     1       4.777   3.973  18.965  0.00  0.00    +0.000 C 
ATOM     19  O   UNL     1       4.620   2.848  19.424  0.00  0.00    +0.000 OA
BRANCH  18  20
ATOM     20  C   UNL     1       5.380   4.156  17.615  0.00  0.00    +0.000 A 
ATOM     21  C   UNL     1       4.629   4.011  16.442  0.00  0.00    +0.000 A 
ATOM     22  C   UNL     1       5.215   4.254  15.196  0.00  0.00    +0.000 A 
ATOM     23  C   UNL     1       6.560   4.641  15.106  0.00  0.00    +0.000 A 
ATOM     24  C   UNL     1       7.181   4.955  13.776  0.00  0.00    +0.000 C 
ATOM     25  C   UNL     1       7.310   4.777  16.280  0.00  0.00    +0.000 A 
ATOM     26  C   UNL     1       6.723   4.542  17.527  0.00  0.00    +0.000 A 
ENDBRANCH  18  20
ENDBRANCH  17  18
ENDBRANCH   1  16
TORSDOF 5
ENDMDL
MODEL 5
REMARK VINA RESULT:      -8.0      6.844      9.456
REMARK  Name = 
REMARK  7 active torsions:
REMARK  status: ('A' for Active; 'I' for Inactive)
REMARK    1  A    between atoms: C_1  and  C_2
REMARK    2  A    between atoms: C_2  and  N_13
REMARK    3  A    between atoms: C_3  and  C_4
REMARK    4  A    between atoms: C_4  and  C_6
REMARK    5  A    between atoms: C_9  and  C_10
REMARK    6  A    between atoms: N_13  and  C_14
REMARK    7  A    between atoms: C_17  and  N_18
REMARK                            x       y       z     vdW  Elec       q    Type
REMARK                         _______ _______ _______ _____ _____    ______ ____
ROOT
ATOM      1  N   UNL     1       0.793  10.185  18.129  0.00  0.00    +0.000 N 
ATOM      2  H   UNL     1       1.076  10.328  17.163  0.00  0.00    +0.000 HD
ENDROOT
BRANCH   1   3
ATOM      3  C   UNL     1      -0.546  10.591  18.338  0.00  0.00    +0.000 A 
ATOM      4  C   UNL     1      -0.900  11.676  19.140  0.00  0.00    +0.000 A 
ATOM      5  C   UNL     1      -2.226  12.124  19.212  0.00  0.00    +0.000 A 
ATOM      6  C   UNL     1      -3.253  11.509  18.489  0.00  0.00    +0.000 A 
ATOM      7  C   UNL     1      -2.898  10.393  17.721  0.00  0.00    +0.000 A 
ATOM      8  C   UNL     1      -1.568   9.950  17.632  0.00  0.00    +0.000 A 
BRANCH   6   9
ATOM      9  N   UNL     1      -4.543  11.998  18.478  0.00  0.00    +0.000 N 
ATOM     10  C   UNL     1      -5.103  12.764  19.602  0.00  0.00    +0.000 C 
ATOM     11  C   UNL     1      -6.204  11.965  20.310  0.00  0.00    +0.000 C 
ATOM     12  O   UNL     1      -7.218  11.541  19.385  0.00  0.00    +0.000 OA
ATOM     13  C   UNL     1      -6.642  10.704  18.367  0.00  0.00    +0.000 C 
ATOM     14  C   UNL     1      -5.553  11.440  17.563  0.00  0.00    +0.000 C 
ENDBRANCH   6   9
ENDBRANCH   1   3
BRANCH   1  16
ATOM     15  C   UNL     1       1.218   9.031  20.239  0.00  0.00    +0.000 C 
ATOM     16  C   UNL     1       1.422   9.102  18.743  0.00  0.00    +0.000 C 
ATOM     17  C   UNL     1       2.131   8.201  18.031  0.00  0.00    +0.000 C 
BRANCH  17  18
ATOM     18  C   UNL     1       2.770   6.963  18.555  0.00  0.00    +0.000 C 
ATOM     19  O   UNL     1       2.541   6.532  19.678  0.00  0.00    +0.000 OA
BRANCH  18  20
ATOM     20  C   UNL     1       3.647   6.200  17.623  0.00  0.00    +0.000 A 
ATOM     21  C   UNL     1       3.635   4.801  17.571  0.00  0.00    +0.000 A 
ATOM     22  C   UNL     1       4.426   4.124  16.637  0.00  0.00    +0.000 A 
ATOM     23  C   UNL     1       5.242   4.836  15.747  0.00  0.00    +0.000 A 
ATOM     24  C   UNL     1       6.053   4.118  14.707  0.00  0.00    +0.000 C 
ATOM     25  C   UNL     1       5.258   6.234  15.807  0.00  0.00    +0.000 A 
ATOM     26  C   UNL     1       4.461   6.913  16.735  0.00  0.00    +0.000 A 
ENDBRANCH  18  20
ENDBRANCH  17  18
ENDBRANCH   1  16
TORSDOF 5
ENDMDL
MODEL 6
REMARK VINA RESULT:      -8.0      7.285      9.858
REMARK  Name = 
REMARK  7 active torsions:
REMARK  status: ('A' for Active; 'I' for Inactive)
REMARK    1  A    between atoms: C_1  and  C_2
REMARK    2  A    between atoms: C_2  and  N_13
REMARK    3  A    between atoms: C_3  and  C_4
REMARK    4  A    between atoms: C_4  and  C_6
REMARK    5  A    between atoms: C_9  and  C_10
REMARK    6  A    between atoms: N_13  and  C_14
REMARK    7  A    between atoms: C_17  and  N_18
REMARK                            x       y       z     vdW  Elec       q    Type
REMARK                         _______ _______ _______ _____ _____    ______ ____
ROOT
ATOM      1  N   UNL     1       0.155  10.480  17.923  0.00  0.00    +0.000 N 
ATOM      2  H   UNL     1       0.494  10.614  16.973  0.00  0.00    +0.000 HD
ENDROOT
BRANCH   1   3
ATOM      3  C   UNL     1      -1.251  10.624  17.993  0.00  0.00    +0.000 A 
ATOM      4  C   UNL     1      -1.883  11.570  18.798  0.00  0.00    +0.000 A 
ATOM      5  C   UNL     1      -3.269  11.768  18.736  0.00  0.00    +0.000 A 
ATOM      6  C   UNL     1      -4.081  11.030  17.870  0.00  0.00    +0.000 A 
ATOM      7  C   UNL     1      -3.445  10.050  17.096  0.00  0.00    +0.000 A 
ATOM      8  C   UNL     1      -2.055   9.860  17.142  0.00  0.00    +0.000 A 
BRANCH   6   9
ATOM      9  N   UNL     1      -5.431  11.280  17.732  0.00  0.00    +0.000 N 
ATOM     10  C   UNL     1      -5.943  12.508  17.107  0.00  0.00    +0.000 C 
ATOM     11  C   UNL     1      -6.643  13.395  18.145  0.00  0.00    +0.000 C 
ATOM     12  O   UNL     1      -7.672  12.672  18.840  0.00  0.00    +0.000 OA
ATOM     13  C   UNL     1      -7.105  11.541  19.526  0.00  0.00    +0.000 C 
ATOM     14  C   UNL     1      -6.418  10.562  18.555  0.00  0.00    +0.000 C 
ENDBRANCH   6   9
ENDBRANCH   1   3
BRANCH   1  16
ATOM     15  C   UNL     1       0.894   9.834  20.159  0.00  0.00    +0.000 C 
ATOM     16  C   UNL     1       0.921   9.584  18.669  0.00  0.00    +0.000 C 
ATOM     17  C   UNL     1       1.603   8.578  18.082  0.00  0.00    +0.000 C 
BRANCH  17  18
ATOM     18  C   UNL     1       2.378   7.511  18.772  0.00  0.00    +0.000 C 
ATOM     19  O   UNL     1       2.278   7.302  19.975  0.00  0.00    +0.000 OA
BRANCH  18  20
ATOM     20  C   UNL     1       3.233   6.632  17.926  0.00  0.00    +0.000 A 
ATOM     21  C   UNL     1       4.327   7.130  17.207  0.00  0.00    +0.000 A 
ATOM     22  C   UNL     1       5.144   6.262  16.477  0.00  0.00    +0.000 A 
ATOM     23  C   UNL     1       4.875   4.886  16.450  0.00  0.00    +0.000 A 
ATOM     24  C   UNL     1       5.778   3.941  15.711  0.00  0.00    +0.000 C 
ATOM     25  C   UNL     1       3.776   4.393  17.162  0.00  0.00    +0.000 A 
ATOM     26  C   UNL     1       2.963   5.259  17.900  0.00  0.00    +0.000 A 
ENDBRANCH  18  20
ENDBRANCH  17  18
ENDBRANCH   1  16
TORSDOF 5
ENDMDL
MODEL 7
REMARK VINA RESULT:      -7.9      5.292      7.765
REMARK  Name = 
REMARK  7 active torsions:
REMARK  status: ('A' for Active; 'I' for Inactive)
REMARK    1  A    between atoms: C_1  and  C_2
REMARK    2  A    between atoms: C_2  and  N_13
REMARK    3  A    between atoms: C_3  and  C_4
REMARK    4  A    between atoms: C_4  and  C_6
REMARK    5  A    between atoms: C_9  and  C_10
REMARK    6  A    between atoms: N_13  and  C_14
REMARK    7  A    between atoms: C_17  and  N_18
REMARK                            x       y       z     vdW  Elec       q    Type
REMARK                         _______ _______ _______ _____ _____    ______ ____
ROOT
ATOM      1  N   UNL     1       2.598   5.683  20.167  0.00  0.00    +0.000 N 
ATOM      2  H   UNL     1       2.321   5.503  21.129  0.00  0.00    +0.000 HD
ENDROOT
BRANCH   1   3
ATOM      3  C   UNL     1       2.213   6.981  19.755  0.00  0.00    +0.000 A 
ATOM      4  C   UNL     1       2.315   7.427  18.438  0.00  0.00    +0.000 A 
ATOM      5  C   UNL     1       1.799   8.671  18.049  0.00  0.00    +0.000 A 
ATOM      6  C   UNL     1       1.161   9.520  18.958  0.00  0.00    +0.000 A 
ATOM      7  C   UNL     1       1.101   9.085  20.288  0.00  0.00    +0.000 A 
ATOM      8  C   UNL     1       1.601   7.834  20.679  0.00  0.00    +0.000 A 
BRANCH   6   9
ATOM      9  N   UNL     1       0.566  10.704  18.569  0.00  0.00    +0.000 N 
ATOM     10  C   UNL     1       1.170  12.015  18.849  0.00  0.00    +0.000 C 
ATOM     11  C   UNL     1       0.330  12.793  19.870  0.00  0.00    +0.000 C 
ATOM     12  O   UNL     1      -1.038  12.905  19.443  0.00  0.00    +0.000 OA
ATOM     13  C   UNL     1      -1.618  11.598  19.289  0.00  0.00    +0.000 C 
ATOM     14  C   UNL     1      -0.868  10.754  18.241  0.00  0.00    +0.000 C 
ENDBRANCH   6   9
ENDBRANCH   1   3
BRANCH   1  16
ATOM     15  C   UNL     1       3.726   3.524  20.000  0.00  0.00    +0.000 C 
ATOM     16  C   UNL     1       3.764   5.019  19.786  0.00  0.00    +0.000 C 
ATOM     17  C   UNL     1       4.814   5.683  19.257  0.00  0.00    +0.000 C 
BRANCH  17  18
ATOM     18  C   UNL     1       6.070   5.081  18.734  0.00  0.00    +0.000 C 
ATOM     19  O   UNL     1       7.033   4.843  19.452  0.00  0.00    +0.000 OA
BRANCH  18  20
ATOM     20  C   UNL     1       6.092   4.688  17.297  0.00  0.00    +0.000 A 
ATOM     21  C   UNL     1       5.060   3.939  16.717  0.00  0.00    +0.000 A 
ATOM     22  C   UNL     1       5.085   3.647  15.350  0.00  0.00    +0.000 A 
ATOM     23  C   UNL     1       6.143   4.094  14.546  0.00  0.00    +0.000 A 
ATOM     24  C   UNL     1       6.150   3.828  13.069  0.00  0.00    +0.000 C 
ATOM     25  C   UNL     1       7.177   4.834  15.130  0.00  0.00    +0.000 A 
ATOM     26  C   UNL     1       7.149   5.135  16.495  0.00  0.00    +0.000 A 
ENDBRANCH  18  20
ENDBRANCH  17  18
ENDBRANCH   1  16
TORSDOF 5
ENDMDL
MODEL 8
REMARK VINA RESULT:      -7.8      5.511      8.234
REMARK  Name = 
REMARK  7 active torsions:
REMARK  status: ('A' for Active; 'I' for Inactive)
REMARK    1  A    between atoms: C_1  and  C_2
REMARK    2  A    between atoms: C_2  and  N_13
REMARK    3  A    between atoms: C_3  and  C_4
REMARK    4  A    between atoms: C_4  and  C_6
REMARK    5  A    between atoms: C_9  and  C_10
REMARK    6  A    between atoms: N_13  and  C_14
REMARK    7  A    between atoms: C_17  and  N_18
REMARK                            x       y       z     vdW  Elec       q    Type
REMARK                         _______ _______ _______ _____ _____    ______ ____
ROOT
ATOM      1  N   UNL     1       2.730   6.677  20.315  0.00  0.00    +0.000 N 
ATOM      2  H   UNL     1       3.490   6.981  20.919  0.00  0.00    +0.000 HD
ENDROOT
BRANCH   1   3
ATOM      3  C   UNL     1       1.933   7.770  19.900  0.00  0.00    +0.000 A 
ATOM      4  C   UNL     1       1.035   8.424  20.743  0.00  0.00    +0.000 A 
ATOM      5  C   UNL     1       0.365   9.585  20.331  0.00  0.00    +0.000 A 
ATOM      6  C   UNL     1       0.563  10.139  19.063  0.00  0.00    +0.000 A 
ATOM      7  C   UNL     1       1.433   9.453  18.206  0.00  0.00    +0.000 A 
ATOM      8  C   UNL     1       2.119   8.300  18.620  0.00  0.00    +0.000 A 
BRANCH   6   9
ATOM      9  N   UNL     1      -0.017  11.332  18.681  0.00  0.00    +0.000 N 
ATOM     10  C   UNL     1       0.706  12.611  18.736  0.00  0.00    +0.000 C 
ATOM     11  C   UNL     1       0.111  13.525  19.815  0.00  0.00    +0.000 C 
ATOM     12  O   UNL     1      -1.301  13.709  19.622  0.00  0.00    +0.000 OA
ATOM     13  C   UNL     1      -1.979  12.441  19.685  0.00  0.00    +0.000 C 
ATOM     14  C   UNL     1      -1.481  11.466  18.602  0.00  0.00    +0.000 C 
ENDBRANCH   6   9
ENDBRANCH   1   3
BRANCH   1  16
ATOM     15  C   UNL     1       1.884   5.019  18.734  0.00  0.00    +0.000 C 
ATOM     16  C   UNL     1       3.041   5.556  19.544  0.00  0.00    +0.000 C 
ATOM     17  C   UNL     1       4.284   5.031  19.531  0.00  0.00    +0.000 C 
BRANCH  17  18
ATOM     18  C   UNL     1       4.759   3.900  18.689  0.00  0.00    +0.000 C 
ATOM     19  O   UNL     1       4.536   2.730  18.974  0.00  0.00    +0.000 OA
BRANCH  18  20
ATOM     20  C   UNL     1       5.456   4.241  17.417  0.00  0.00    +0.000 A 
ATOM     21  C   UNL     1       6.813   4.585  17.383  0.00  0.00    +0.000 A 
ATOM     22  C   UNL     1       7.446   4.835  16.162  0.00  0.00    +0.000 A 
ATOM     23  C   UNL     1       6.731   4.750  14.959  0.00  0.00    +0.000 A 
ATOM     24  C   UNL     1       7.416   4.966  13.642  0.00  0.00    +0.000 C 
ATOM     25  C   UNL     1       5.373   4.415  14.997  0.00  0.00    +0.000 A 
ATOM     26  C   UNL     1       4.740   4.157  16.217  0.00  0.00    +0.000 A 
ENDBRANCH  18  20
ENDBRANCH  17  18
ENDBRANCH   1  16
TORSDOF 5
ENDMDL
MODEL 9
REMARK VINA RESULT:      -7.8      5.949      8.936
REMARK  Name = 
REMARK  7 active torsions:
REMARK  status: ('A' for Active; 'I' for Inactive)
REMARK    1  A    between atoms: C_1  and  C_2
REMARK    2  A    between atoms: C_2  and  N_13
REMARK    3  A    between atoms: C_3  and  C_4
REMARK    4  A    between atoms: C_4  and  C_6
REMARK    5  A    between atoms: C_9  and  C_10
REMARK    6  A    between atoms: N_13  and  C_14
REMARK    7  A    between atoms: C_17  and  N_18
REMARK                            x       y       z     vdW  Elec       q    Type
REMARK                         _______ _______ _______ _____ _____    ______ ____
ROOT
ATOM      1  N   UNL     1       1.140   9.666  20.826  0.00  0.00    +0.000 N 
ATOM      2  H   UNL     1       0.906   9.448  21.792  0.00  0.00    +0.000 HD
ENDROOT
BRANCH   1   3
ATOM      3  C   UNL     1       1.633   8.527  20.146  0.00  0.00    +0.000 A 
ATOM      4  C   UNL     1       1.719   7.265  20.733  0.00  0.00    +0.000 A 
ATOM      5  C   UNL     1       2.087   6.139  19.983  0.00  0.00    +0.000 A 
ATOM      6  C   UNL     1       2.384   6.226  18.620  0.00  0.00    +0.000 A 
ATOM      7  C   UNL     1       2.338   7.504  18.047  0.00  0.00    +0.000 A 
ATOM      8  C   UNL     1       1.954   8.631  18.789  0.00  0.00    +0.000 A 
BRANCH   6   9
ATOM      9  N   UNL     1       2.655   5.112  17.851  0.00  0.00    +0.000 N 
ATOM     10  C   UNL     1       1.700   4.002  17.711  0.00  0.00    +0.000 C 
ATOM     11  C   UNL     1       2.230   2.739  18.400  0.00  0.00    +0.000 C 
ATOM     12  O   UNL     1       3.539   2.391  17.917  0.00  0.00    +0.000 OA
ATOM     13  C   UNL     1       4.463   3.464  18.175  0.00  0.00    +0.000 C 
ATOM     14  C   UNL     1       4.038   4.771  17.480  0.00  0.00    +0.000 C 
ENDBRANCH   6   9
ENDBRANCH   1   3
BRANCH   1  16
ATOM     15  C   UNL     1       1.102  11.911  19.866  0.00  0.00    +0.000 C 
ATOM     16  C   UNL     1       0.344  10.667  20.269  0.00  0.00    +0.000 C 
ATOM     17  C   UNL     1      -0.985  10.501  20.101  0.00  0.00    +0.000 C 
BRANCH  17  18
ATOM     18  C   UNL     1      -1.920  11.453  19.443  0.00  0.00    +0.000 C 
ATOM     19  O   UNL     1      -2.179  12.552  19.917  0.00  0.00    +0.000 OA
BRANCH  18  20
ATOM     20  C   UNL     1      -2.479  11.056  18.120  0.00  0.00    +0.000 A 
ATOM     21  C   UNL     1      -3.650  11.628  17.608  0.00  0.00    +0.000 A 
ATOM     22  C   UNL     1      -4.106  11.276  16.334  0.00  0.00    +0.000 A 
ATOM     23  C   UNL     1      -3.401  10.346  15.557  0.00  0.00    +0.000 A 
ATOM     24  C   UNL     1      -3.856  10.004  14.168  0.00  0.00    +0.000 C 
ATOM     25  C   UNL     1      -2.236   9.771  16.075  0.00  0.00    +0.000 A 
ATOM     26  C   UNL     1      -1.774  10.127  17.346  0.00  0.00    +0.000 A 
ENDBRANCH  18  20
ENDBRANCH  17  18
ENDBRANCH   1  16
TORSDOF 5
ENDMDL
