MODEL 1
REMARK VINA RESULT:      -8.1      0.000      0.000
REMARK  Name = 
REMARK  2 active torsions:
REMARK  status: ('A' for Active; 'I' for Inactive)
REMARK    1  A    between atoms: C_6  and  C_7
REMARK    2  A    between atoms: C_13  and  C_14
REMARK                            x       y       z     vdW  Elec       q    Type
REMARK                         _______ _______ _______ _____ _____    ______ ____
ROOT
ATOM      1  C   UNL     1       2.012   7.778  20.219  0.00  0.00    +0.000 C 
ATOM      2  C   UNL     1       2.575   7.112  19.209  0.00  0.00    +0.000 C 
ATOM      3  C   UNL     1       2.676   7.673  17.841  0.00  0.00    +0.000 C 
ATOM      4  O   UNL     1       2.084   8.658  17.431  0.00  0.00    +0.000 OA
ATOM      5  O   UNL     1       3.528   6.913  17.113  0.00  0.00    +0.000 OA
ATOM      6  C   UNL     1       4.118   5.886  17.924  0.00  0.00    +0.000 C 
ATOM      7  C   UNL     1       3.278   5.796  19.234  0.00  0.00    +0.000 C 
ENDROOT
BRANCH   6   8
ATOM      8  C   UNL     1       5.625   6.137  18.014  0.00  0.00    +0.000 A 
ATOM      9  C   UNL     1       6.287   7.091  17.227  0.00  0.00    +0.000 A 
ATOM     10  C   UNL     1       7.596   7.495  17.551  0.00  0.00    +0.000 A 
ATOM     11  C   UNL     1       8.266   6.927  18.635  0.00  0.00    +0.000 A 
ATOM     12  C   UNL     1       7.668   5.890  19.342  0.00  0.00    +0.000 A 
ATOM     13  C   UNL     1       6.375   5.470  19.008  0.00  0.00    +0.000 A 
ENDBRANCH   6   8
BRANCH   7  14
ATOM     14  C   UNL     1       2.307   4.609  19.357  0.00  0.00    +0.000 A 
ATOM     15  C   UNL     1       1.976   4.124  20.645  0.00  0.00    +0.000 A 
ATOM     16  C   UNL     1       1.153   3.003  20.812  0.00  0.00    +0.000 A 
ATOM     17  C   UNL     1       0.622   2.354  19.708  0.00  0.00    +0.000 A 
ATOM     18  C   UNL     1       0.889   2.842  18.428  0.00  0.00    +0.000 A 
ATOM     19  C   UNL     1       1.715   3.969  18.259  0.00  0.00    +0.000 A 
ENDBRANCH   7  14
TORSDOF 2
ENDMDL
MODEL 2
REMARK VINA RESULT:      -8.0      3.308      4.563
REMARK  Name = 
REMARK  2 active torsions:
REMARK  status: ('A' for Active; 'I' for Inactive)
REMARK    1  A    between atoms: C_6  and  C_7
REMARK    2  A    between atoms: C_13  and  C_14
REMARK                            x       y       z     vdW  Elec       q    Type
REMARK                         _______ _______ _______ _____ _____    ______ ____
ROOT
ATOM      1  C   UNL     1       7.485   5.287  18.672  0.00  0.00    +0.000 C 
ATOM      2  C   UNL     1       6.636   5.500  17.666  0.00  0.00    +0.000 C 
ATOM      3  C   UNL     1       6.602   6.772  16.906  0.00  0.00    +0.000 C 
ATOM      4  O   UNL     1       7.152   7.811  17.234  0.00  0.00    +0.000 OA
ATOM      5  O   UNL     1       5.857   6.600  15.788  0.00  0.00    +0.000 OA
ATOM      6  C   UNL     1       5.432   5.235  15.661  0.00  0.00    +0.000 C 
ATOM      7  C   UNL     1       5.668   4.550  17.042  0.00  0.00    +0.000 C 
ENDROOT
BRANCH   6   8
ATOM      8  C   UNL     1       6.073   4.636  14.407  0.00  0.00    +0.000 A 
ATOM      9  C   UNL     1       5.441   3.663  13.619  0.00  0.00    +0.000 A 
ATOM     10  C   UNL     1       5.926   3.368  12.331  0.00  0.00    +0.000 A 
ATOM     11  C   UNL     1       7.060   4.012  11.834  0.00  0.00    +0.000 A 
ATOM     12  C   UNL     1       7.767   4.882  12.655  0.00  0.00    +0.000 A 
ATOM     13  C   UNL     1       7.301   5.161  13.946  0.00  0.00    +0.000 A 
ENDBRANCH   6   8
BRANCH   7  14
ATOM     14  C   UNL     1       4.428   4.309  17.919  0.00  0.00    +0.000 A 
ATOM     15  C   UNL     1       3.246   5.041  17.654  0.00  0.00    +0.000 A 
ATOM     16  C   UNL     1       2.111   4.912  18.465  0.00  0.00    +0.000 A 
ATOM     17  C   UNL     1       2.116   4.038  19.541  0.00  0.00    +0.000 A 
ATOM     18  C   UNL     1       3.249   3.264  19.794  0.00  0.00    +0.000 A 
ATOM     19  C   UNL     1       4.389   3.392  18.980  0.00  0.00    +0.000 A 
ENDBRANCH   7  14
TORSDOF 2
ENDMDL
MODEL 3
REMARK VINA RESULT:      -7.9      3.359      4.467
REMARK  Name = 
REMARK  2 active torsions:
REMARK  status: ('A' for Active; 'I' for Inactive)
REMARK    1  A    between atoms: C_6  and  C_7
REMARK    2  A    between atoms: C_13  and  C_14
REMARK                            x       y       z     vdW  Elec       q    Type
REMARK                         _______ _______ _______ _____ _____    ______ ____
ROOT
ATOM      1  C   UNL     1       6.887   5.049  18.638  0.00  0.00    +0.000 C 
ATOM      2  C   UNL     1       6.169   5.301  17.542  0.00  0.00    +0.000 C 
ATOM      3  C   UNL     1       6.205   6.609  16.847  0.00  0.00    +0.000 C 
ATOM      4  O   UNL     1       6.685   7.638  17.294  0.00  0.00    +0.000 OA
ATOM      5  O   UNL     1       5.614   6.484  15.636  0.00  0.00    +0.000 OA
ATOM      6  C   UNL     1       5.239   5.121  15.388  0.00  0.00    +0.000 C 
ATOM      7  C   UNL     1       5.311   4.369  16.752  0.00  0.00    +0.000 C 
ENDROOT
BRANCH   6   8
ATOM      8  C   UNL     1       6.048   4.598  14.199  0.00  0.00    +0.000 A 
ATOM      9  C   UNL     1       5.587   3.580  13.351  0.00  0.00    +0.000 A 
ATOM     10  C   UNL     1       6.217   3.346  12.115  0.00  0.00    +0.000 A 
ATOM     11  C   UNL     1       7.328   4.096  11.730  0.00  0.00    +0.000 A 
ATOM     12  C   UNL     1       7.871   5.018  12.617  0.00  0.00    +0.000 A 
ATOM     13  C   UNL     1       7.261   5.238  13.859  0.00  0.00    +0.000 A 
ENDBRANCH   6   8
BRANCH   7  14
ATOM     14  C   UNL     1       3.975   4.064  17.449  0.00  0.00    +0.000 A 
ATOM     15  C   UNL     1       3.630   2.716  17.713  0.00  0.00    +0.000 A 
ATOM     16  C   UNL     1       2.395   2.377  18.281  0.00  0.00    +0.000 A 
ATOM     17  C   UNL     1       1.486   3.367  18.621  0.00  0.00    +0.000 A 
ATOM     18  C   UNL     1       1.820   4.707  18.421  0.00  0.00    +0.000 A 
ATOM     19  C   UNL     1       3.061   5.049  17.851  0.00  0.00    +0.000 A 
ENDBRANCH   7  14
TORSDOF 2
ENDMDL
MODEL 4
REMARK VINA RESULT:      -7.9      0.147      1.112
REMARK  Name = 
REMARK  2 active torsions:
REMARK  status: ('A' for Active; 'I' for Inactive)
REMARK    1  A    between atoms: C_6  and  C_7
REMARK    2  A    between atoms: C_13  and  C_14
REMARK                            x       y       z     vdW  Elec       q    Type
REMARK                         _______ _______ _______ _____ _____    ______ ____
ROOT
ATOM      1  C   UNL     1       2.002   7.656  20.333  0.00  0.00    +0.000 C 
ATOM      2  C   UNL     1       2.559   6.993  19.318  0.00  0.00    +0.000 C 
ATOM      3  C   UNL     1       2.603   7.534  17.939  0.00  0.00    +0.000 C 
ATOM      4  O   UNL     1       1.967   8.492  17.531  0.00  0.00    +0.000 OA
ATOM      5  O   UNL     1       3.460   6.791  17.199  0.00  0.00    +0.000 OA
ATOM      6  C   UNL     1       4.106   5.798  18.009  0.00  0.00    +0.000 C 
ATOM      7  C   UNL     1       3.307   5.702  19.343  0.00  0.00    +0.000 C 
ENDROOT
BRANCH   6   8
ATOM      8  C   UNL     1       5.606   6.101  18.052  0.00  0.00    +0.000 A 
ATOM      9  C   UNL     1       6.207   7.091  17.261  0.00  0.00    +0.000 A 
ATOM     10  C   UNL     1       7.511   7.535  17.547  0.00  0.00    +0.000 A 
ATOM     11  C   UNL     1       8.238   6.973  18.598  0.00  0.00    +0.000 A 
ATOM     12  C   UNL     1       7.701   5.904  19.305  0.00  0.00    +0.000 A 
ATOM     13  C   UNL     1       6.413   5.444  19.007  0.00  0.00    +0.000 A 
ENDBRANCH   6   8
BRANCH   7  14
ATOM     14  C   UNL     1       2.381   4.486  19.513  0.00  0.00    +0.000 A 
ATOM     15  C   UNL     1       1.887   3.832  18.358  0.00  0.00    +0.000 A 
ATOM     16  C   UNL     1       0.984   2.765  18.453  0.00  0.00    +0.000 A 
ATOM     17  C   UNL     1       0.571   2.308  19.696  0.00  0.00    +0.000 A 
ATOM     18  C   UNL     1       1.082   2.899  20.852  0.00  0.00    +0.000 A 
ATOM     19  C   UNL     1       1.989   3.970  20.757  0.00  0.00    +0.000 A 
ENDBRANCH   7  14
TORSDOF 2
ENDMDL
MODEL 5
REMARK VINA RESULT:      -7.8      2.141      4.127
REMARK  Name = 
REMARK  2 active torsions:
REMARK  status: ('A' for Active; 'I' for Inactive)
REMARK    1  A    between atoms: C_6  and  C_7
REMARK    2  A    between atoms: C_13  and  C_14
REMARK                            x       y       z     vdW  Elec       q    Type
REMARK                         _______ _______ _______ _____ _____    ______ ____
ROOT
ATOM      1  C   UNL     1       1.307   4.259  18.190  0.00  0.00    +0.000 C 
ATOM      2  C   UNL     1       2.454   4.849  18.530  0.00  0.00    +0.000 C 
ATOM      3  C   UNL     1       3.438   4.216  19.439  0.00  0.00    +0.000 C 
ATOM      4  O   UNL     1       3.233   3.237  20.138  0.00  0.00    +0.000 OA
ATOM      5  O   UNL     1       4.604   4.902  19.377  0.00  0.00    +0.000 OA
ATOM      6  C   UNL     1       4.532   5.943  18.392  0.00  0.00    +0.000 C 
ATOM      7  C   UNL     1       3.027   6.134  18.034  0.00  0.00    +0.000 C 
ENDROOT
BRANCH   6   8
ATOM      8  C   UNL     1       5.536   5.635  17.278  0.00  0.00    +0.000 A 
ATOM      9  C   UNL     1       6.771   5.014  17.516  0.00  0.00    +0.000 A 
ATOM     10  C   UNL     1       7.517   4.484  16.447  0.00  0.00    +0.000 A 
ATOM     11  C   UNL     1       7.058   4.599  15.135  0.00  0.00    +0.000 A 
ATOM     12  C   UNL     1       5.900   5.324  14.876  0.00  0.00    +0.000 A 
ATOM     13  C   UNL     1       5.167   5.873  15.936  0.00  0.00    +0.000 A 
ENDBRANCH   6   8
BRANCH   7  14
ATOM     14  C   UNL     1       2.321   7.364  18.629  0.00  0.00    +0.000 A 
ATOM     15  C   UNL     1       2.023   7.383  20.012  0.00  0.00    +0.000 A 
ATOM     16  C   UNL     1       1.319   8.446  20.593  0.00  0.00    +0.000 A 
ATOM     17  C   UNL     1       0.917   9.524  19.818  0.00  0.00    +0.000 A 
ATOM     18  C   UNL     1       1.244   9.558  18.462  0.00  0.00    +0.000 A 
ATOM     19  C   UNL     1       1.951   8.490  17.878  0.00  0.00    +0.000 A 
ENDBRANCH   7  14
TORSDOF 2
ENDMDL
MODEL 6
REMARK VINA RESULT:      -7.8      2.154      4.248
REMARK  Name = 
REMARK  2 active torsions:
REMARK  status: ('A' for Active; 'I' for Inactive)
REMARK    1  A    between atoms: C_6  and  C_7
REMARK    2  A    between atoms: C_13  and  C_14
REMARK                            x       y       z     vdW  Elec       q    Type
REMARK                         _______ _______ _______ _____ _____    ______ ____
ROOT
ATOM      1  C   UNL     1       1.379   4.031  18.291  0.00  0.00    +0.000 C 
ATOM      2  C   UNL     1       2.512   4.656  18.616  0.00  0.00    +0.000 C 
ATOM      3  C   UNL     1       3.540   4.043  19.490  0.00  0.00    +0.000 C 
ATOM      4  O   UNL     1       3.386   3.044  20.175  0.00  0.00    +0.000 OA
ATOM      5  O   UNL     1       4.679   4.772  19.414  0.00  0.00    +0.000 OA
ATOM      6  C   UNL     1       4.546   5.827  18.450  0.00  0.00    +0.000 C 
ATOM      7  C   UNL     1       3.028   5.970  18.130  0.00  0.00    +0.000 C 
ENDROOT
BRANCH   6   8
ATOM      8  C   UNL     1       5.534   5.575  17.309  0.00  0.00    +0.000 A 
ATOM      9  C   UNL     1       6.791   4.983  17.505  0.00  0.00    +0.000 A 
ATOM     10  C   UNL     1       7.528   4.502  16.407  0.00  0.00    +0.000 A 
ATOM     11  C   UNL     1       7.037   4.637  15.108  0.00  0.00    +0.000 A 
ATOM     12  C   UNL     1       5.855   5.336  14.892  0.00  0.00    +0.000 A 
ATOM     13  C   UNL     1       5.131   5.838  15.981  0.00  0.00    +0.000 A 
ENDBRANCH   6   8
BRANCH   7  14
ATOM     14  C   UNL     1       2.293   7.163  18.764  0.00  0.00    +0.000 A 
ATOM     15  C   UNL     1       1.916   8.253  17.943  0.00  0.00    +0.000 A 
ATOM     16  C   UNL     1       1.308   9.395  18.480  0.00  0.00    +0.000 A 
ATOM     17  C   UNL     1       1.039   9.471  19.839  0.00  0.00    +0.000 A 
ATOM     18  C   UNL     1       1.351   8.389  20.664  0.00  0.00    +0.000 A 
ATOM     19  C   UNL     1       1.961   7.242  20.125  0.00  0.00    +0.000 A 
ENDBRANCH   7  14
TORSDOF 2
ENDMDL
MODEL 7
REMARK VINA RESULT:      -7.7      2.658      4.321
REMARK  Name = 
REMARK  2 active torsions:
REMARK  status: ('A' for Active; 'I' for Inactive)
REMARK    1  A    between atoms: C_6  and  C_7
REMARK    2  A    between atoms: C_13  and  C_14
REMARK                            x       y       z     vdW  Elec       q    Type
REMARK                         _______ _______ _______ _____ _____    ______ ____
ROOT
ATOM      1  C   UNL     1       2.170   2.633  18.989  0.00  0.00    +0.000 C 
ATOM      2  C   UNL     1       3.241   3.426  18.939  0.00  0.00    +0.000 C 
ATOM      3  C   UNL     1       4.543   3.049  19.539  0.00  0.00    +0.000 C 
ATOM      4  O   UNL     1       4.727   2.124  20.313  0.00  0.00    +0.000 OA
ATOM      5  O   UNL     1       5.498   3.900  19.096  0.00  0.00    +0.000 OA
ATOM      6  C   UNL     1       4.960   4.815  18.129  0.00  0.00    +0.000 C 
ATOM      7  C   UNL     1       3.407   4.730  18.231  0.00  0.00    +0.000 C 
ENDROOT
BRANCH   6   8
ATOM      8  C   UNL     1       5.638   4.559  16.781  0.00  0.00    +0.000 A 
ATOM      9  C   UNL     1       4.946   4.088  15.656  0.00  0.00    +0.000 A 
ATOM     10  C   UNL     1       5.535   4.155  14.380  0.00  0.00    +0.000 A 
ATOM     11  C   UNL     1       6.827   4.657  14.220  0.00  0.00    +0.000 A 
ATOM     12  C   UNL     1       7.569   5.006  15.342  0.00  0.00    +0.000 A 
ATOM     13  C   UNL     1       6.995   4.918  16.616  0.00  0.00    +0.000 A 
ENDBRANCH   6   8
BRANCH   7  14
ATOM     14  C   UNL     1       2.693   5.887  18.952  0.00  0.00    +0.000 A 
ATOM     15  C   UNL     1       2.569   7.134  18.293  0.00  0.00    +0.000 A 
ATOM     16  C   UNL     1       1.992   8.241  18.929  0.00  0.00    +0.000 A 
ATOM     17  C   UNL     1       1.505   8.128  20.223  0.00  0.00    +0.000 A 
ATOM     18  C   UNL     1       1.565   6.897  20.877  0.00  0.00    +0.000 A 
ATOM     19  C   UNL     1       2.144   5.785  20.238  0.00  0.00    +0.000 A 
ENDBRANCH   7  14
TORSDOF 2
ENDMDL
MODEL 8
REMARK VINA RESULT:      -7.6      2.274      4.145
REMARK  Name = 
REMARK  2 active torsions:
REMARK  status: ('A' for Active; 'I' for Inactive)
REMARK    1  A    between atoms: C_6  and  C_7
REMARK    2  A    between atoms: C_13  and  C_14
REMARK                            x       y       z     vdW  Elec       q    Type
REMARK                         _______ _______ _______ _____ _____    ______ ____
ROOT
ATOM      1  C   UNL     1       1.275   3.847  18.537  0.00  0.00    +0.000 C 
ATOM      2  C   UNL     1       2.471   4.413  18.706  0.00  0.00    +0.000 C 
ATOM      3  C   UNL     1       3.525   3.812  19.557  0.00  0.00    +0.000 C 
ATOM      4  O   UNL     1       3.364   2.899  20.350  0.00  0.00    +0.000 OA
ATOM      5  O   UNL     1       4.700   4.441  19.317  0.00  0.00    +0.000 OA
ATOM      6  C   UNL     1       4.558   5.405  18.263  0.00  0.00    +0.000 C 
ATOM      7  C   UNL     1       3.031   5.630  18.049  0.00  0.00    +0.000 C 
ENDROOT
BRANCH   6   8
ATOM      8  C   UNL     1       5.426   4.969  17.080  0.00  0.00    +0.000 A 
ATOM      9  C   UNL     1       4.938   4.184  16.025  0.00  0.00    +0.000 A 
ATOM     10  C   UNL     1       5.673   4.064  14.831  0.00  0.00    +0.000 A 
ATOM     11  C   UNL     1       6.910   4.692  14.692  0.00  0.00    +0.000 A 
ATOM     12  C   UNL     1       7.461   5.365  15.777  0.00  0.00    +0.000 A 
ATOM     13  C   UNL     1       6.744   5.467  16.975  0.00  0.00    +0.000 A 
ENDBRANCH   6   8
BRANCH   7  14
ATOM     14  C   UNL     1       2.434   6.932  18.612  0.00  0.00    +0.000 A 
ATOM     15  C   UNL     1       2.128   7.007  19.992  0.00  0.00    +0.000 A 
ATOM     16  C   UNL     1       1.518   8.141  20.543  0.00  0.00    +0.000 A 
ATOM     17  C   UNL     1       1.222   9.234  19.743  0.00  0.00    +0.000 A 
ATOM     18  C   UNL     1       1.561   9.209  18.390  0.00  0.00    +0.000 A 
ATOM     19  C   UNL     1       2.174   8.070  17.835  0.00  0.00    +0.000 A 
ENDBRANCH   7  14
TORSDOF 2
ENDMDL
MODEL 9
REMARK VINA RESULT:      -7.6      3.404      6.476
REMARK  Name = 
REMARK  2 active torsions:
REMARK  status: ('A' for Active; 'I' for Inactive)
REMARK    1  A    between atoms: C_6  and  C_7
REMARK    2  A    between atoms: C_13  and  C_14
REMARK                            x       y       z     vdW  Elec       q    Type
REMARK                         _______ _______ _______ _____ _____    ______ ____
ROOT
ATOM      1  C   UNL     1       7.084   7.077  16.854  0.00  0.00    +0.000 C 
ATOM      2  C   UNL     1       6.682   5.806  16.888  0.00  0.00    +0.000 C 
ATOM      3  C   UNL     1       7.131   4.854  17.931  0.00  0.00    +0.000 C 
ATOM      4  O   UNL     1       8.054   5.035  18.709  0.00  0.00    +0.000 OA
ATOM      5  O   UNL     1       6.357   3.744  17.882  0.00  0.00    +0.000 OA
ATOM      6  C   UNL     1       5.309   3.895  16.912  0.00  0.00    +0.000 C 
ATOM      7  C   UNL     1       5.680   5.118  16.021  0.00  0.00    +0.000 C 
ENDROOT
BRANCH   6   8
ATOM      8  C   UNL     1       3.962   3.876  17.639  0.00  0.00    +0.000 A 
ATOM      9  C   UNL     1       3.300   5.043  18.047  0.00  0.00    +0.000 A 
ATOM     10  C   UNL     1       1.947   4.993  18.433  0.00  0.00    +0.000 A 
ATOM     11  C   UNL     1       1.257   3.781  18.448  0.00  0.00    +0.000 A 
ATOM     12  C   UNL     1       1.939   2.602  18.170  0.00  0.00    +0.000 A 
ATOM     13  C   UNL     1       3.291   2.644  17.809  0.00  0.00    +0.000 A 
ENDBRANCH   6   8
BRANCH   7  14
ATOM     14  C   UNL     1       6.226   4.815  14.615  0.00  0.00    +0.000 A 
ATOM     15  C   UNL     1       5.516   3.918  13.782  0.00  0.00    +0.000 A 
ATOM     16  C   UNL     1       6.004   3.551  12.521  0.00  0.00    +0.000 A 
ATOM     17  C   UNL     1       7.195   4.085  12.050  0.00  0.00    +0.000 A 
ATOM     18  C   UNL     1       7.889   5.012  12.828  0.00  0.00    +0.000 A 
ATOM     19  C   UNL     1       7.399   5.381  14.094  0.00  0.00    +0.000 A 
ENDBRANCH   7  14
TORSDOF 2
ENDMDL
