MODEL 1
REMARK VINA RESULT:      -7.3      0.000      0.000
REMARK  Name = 
REMARK  2 active torsions:
REMARK  status: ('A' for Active; 'I' for Inactive)
REMARK    1  A    between atoms: C_2  and  C_11
REMARK    2  A    between atoms: N_3  and  C_4
REMARK                            x       y       z     vdW  Elec       q    Type
REMARK                         _______ _______ _______ _____ _____    ______ ____
ROOT
ATOM      1  O   UNL     1       3.019   5.326  18.259  0.00  0.00    +0.000 OA
ATOM      2  C   UNL     1       3.394   6.491  18.198  0.00  0.00    +0.000 C 
ATOM      3  N   UNL     1       4.644   6.923  17.794  0.00  0.00    +0.000 N 
ATOM      4  H   UNL     1       4.913   7.884  17.978  0.00  0.00    +0.000 HD
ENDROOT
BRANCH   2   5
ATOM      5  C   UNL     1       2.432   7.524  18.657  0.00  0.00    +0.000 A 
ATOM      6  C   UNL     1       2.082   8.514  17.732  0.00  0.00    +0.000 A 
ATOM      7  C   UNL     1       1.294   9.600  18.113  0.00  0.00    +0.000 A 
ATOM      8  C   UNL     1       0.863   9.710  19.448  0.00  0.00    +0.000 A 
ATOM      9  N   UNL     1       0.113  10.751  19.965  0.00  0.00    +0.000 NA
ATOM     10  C   UNL     1      -0.082  10.554  21.247  0.00  0.00    +0.000 A 
ATOM     11  S   UNL     1       0.585   9.123  21.909  0.00  0.00    +0.000 S 
ATOM     12  C   UNL     1       1.221   8.710  20.359  0.00  0.00    +0.000 A 
ATOM     13  C   UNL     1       1.998   7.593  19.987  0.00  0.00    +0.000 A 
ENDBRANCH   2   5
BRANCH   3  14
ATOM     14  C   UNL     1       5.678   6.064  17.332  0.00  0.00    +0.000 A 
ATOM     15  C   UNL     1       6.572   5.414  18.185  0.00  0.00    +0.000 A 
ATOM     16  C   UNL     1       7.573   4.624  17.639  0.00  0.00    +0.000 A 
ATOM     17  N   UNL     1       7.735   4.427  16.315  0.00  0.00    +0.000 NA
ATOM     18  C   UNL     1       6.849   5.051  15.503  0.00  0.00    +0.000 A 
ATOM     19  C   UNL     1       5.818   5.855  15.961  0.00  0.00    +0.000 A 
ATOM     20  F   UNL     1       4.985   6.445  15.089  0.00  0.00    +0.000 F 
ENDBRANCH   3  14
TORSDOF 2
ENDMDL
MODEL 2
REMARK VINA RESULT:      -7.2      1.037      1.492
REMARK  Name = 
REMARK  2 active torsions:
REMARK  status: ('A' for Active; 'I' for Inactive)
REMARK    1  A    between atoms: C_2  and  C_11
REMARK    2  A    between atoms: N_3  and  C_4
REMARK                            x       y       z     vdW  Elec       q    Type
REMARK                         _______ _______ _______ _____ _____    ______ ____
ROOT
ATOM      1  O   UNL     1       2.897   5.386  18.172  0.00  0.00    +0.000 OA
ATOM      2  C   UNL     1       3.250   6.554  18.064  0.00  0.00    +0.000 C 
ATOM      3  N   UNL     1       4.443   6.996  17.520  0.00  0.00    +0.000 N 
ATOM      4  H   UNL     1       4.720   7.961  17.668  0.00  0.00    +0.000 HD
ENDROOT
BRANCH   2   5
ATOM      5  C   UNL     1       2.335   7.580  18.622  0.00  0.00    +0.000 A 
ATOM      6  C   UNL     1       1.923   8.597  17.752  0.00  0.00    +0.000 A 
ATOM      7  C   UNL     1       1.175   9.677  18.221  0.00  0.00    +0.000 A 
ATOM      8  C   UNL     1       0.848   9.753  19.587  0.00  0.00    +0.000 A 
ATOM      9  N   UNL     1       0.147  10.784  20.187  0.00  0.00    +0.000 NA
ATOM     10  C   UNL     1       0.049  10.555  21.475  0.00  0.00    +0.000 A 
ATOM     11  S   UNL     1       0.753   9.103  22.046  0.00  0.00    +0.000 S 
ATOM     12  C   UNL     1       1.266   8.727  20.441  0.00  0.00    +0.000 A 
ATOM     13  C   UNL     1       2.003   7.616  19.982  0.00  0.00    +0.000 A 
ENDBRANCH   2   5
BRANCH   3  14
ATOM     14  C   UNL     1       5.427   6.145  16.950  0.00  0.00    +0.000 A 
ATOM     15  C   UNL     1       5.500   5.865  15.584  0.00  0.00    +0.000 A 
ATOM     16  C   UNL     1       6.473   4.990  15.124  0.00  0.00    +0.000 A 
ATOM     17  N   UNL     1       7.380   4.392  15.922  0.00  0.00    +0.000 NA
ATOM     18  C   UNL     1       7.308   4.688  17.241  0.00  0.00    +0.000 A 
ATOM     19  C   UNL     1       6.371   5.551  17.786  0.00  0.00    +0.000 A 
ATOM     20  F   UNL     1       6.361   5.786  19.108  0.00  0.00    +0.000 F 
ENDBRANCH   3  14
TORSDOF 2
ENDMDL
MODEL 3
REMARK VINA RESULT:      -6.9      4.751      7.662
REMARK  Name = 
REMARK  2 active torsions:
REMARK  status: ('A' for Active; 'I' for Inactive)
REMARK    1  A    between atoms: C_2  and  C_11
REMARK    2  A    between atoms: N_3  and  C_4
REMARK                            x       y       z     vdW  Elec       q    Type
REMARK                         _______ _______ _______ _____ _____    ______ ____
ROOT
ATOM      1  O   UNL     1       5.688   3.833  18.849  0.00  0.00    +0.000 OA
ATOM      2  C   UNL     1       5.047   4.031  17.824  0.00  0.00    +0.000 C 
ATOM      3  N   UNL     1       3.669   4.020  17.710  0.00  0.00    +0.000 N 
ATOM      4  H   UNL     1       3.253   3.991  16.784  0.00  0.00    +0.000 HD
ENDROOT
BRANCH   2   5
ATOM      5  C   UNL     1       5.830   4.247  16.581  0.00  0.00    +0.000 A 
ATOM      6  C   UNL     1       6.822   5.233  16.624  0.00  0.00    +0.000 A 
ATOM      7  C   UNL     1       7.515   5.599  15.470  0.00  0.00    +0.000 A 
ATOM      8  C   UNL     1       7.197   4.983  14.246  0.00  0.00    +0.000 A 
ATOM      9  N   UNL     1       7.778   5.279  13.026  0.00  0.00    +0.000 NA
ATOM     10  C   UNL     1       7.225   4.545  12.089  0.00  0.00    +0.000 A 
ATOM     11  S   UNL     1       6.011   3.451  12.597  0.00  0.00    +0.000 S 
ATOM     12  C   UNL     1       6.204   3.998  14.222  0.00  0.00    +0.000 A 
ATOM     13  C   UNL     1       5.509   3.598  15.382  0.00  0.00    +0.000 A 
ENDBRANCH   2   5
BRANCH   3  14
ATOM     14  C   UNL     1       2.777   3.823  18.799  0.00  0.00    +0.000 A 
ATOM     15  C   UNL     1       2.201   4.874  19.517  0.00  0.00    +0.000 A 
ATOM     16  C   UNL     1       1.373   4.584  20.591  0.00  0.00    +0.000 A 
ATOM     17  N   UNL     1       1.069   3.331  20.987  0.00  0.00    +0.000 NA
ATOM     18  C   UNL     1       1.622   2.324  20.270  0.00  0.00    +0.000 A 
ATOM     19  C   UNL     1       2.458   2.522  19.183  0.00  0.00    +0.000 A 
ATOM     20  F   UNL     1       2.972   1.469  18.528  0.00  0.00    +0.000 F 
ENDBRANCH   3  14
TORSDOF 2
ENDMDL
MODEL 4
REMARK VINA RESULT:      -6.9      4.988      7.634
REMARK  Name = 
REMARK  2 active torsions:
REMARK  status: ('A' for Active; 'I' for Inactive)
REMARK    1  A    between atoms: C_2  and  C_11
REMARK    2  A    between atoms: N_3  and  C_4
REMARK                            x       y       z     vdW  Elec       q    Type
REMARK                         _______ _______ _______ _____ _____    ______ ____
ROOT
ATOM      1  O   UNL     1       2.978   3.236  16.739  0.00  0.00    +0.000 OA
ATOM      2  C   UNL     1       3.976   3.710  17.268  0.00  0.00    +0.000 C 
ATOM      3  N   UNL     1       4.133   3.979  18.616  0.00  0.00    +0.000 N 
ATOM      4  H   UNL     1       4.913   4.556  18.913  0.00  0.00    +0.000 HD
ENDROOT
BRANCH   2   5
ATOM      5  C   UNL     1       5.095   4.081  16.366  0.00  0.00    +0.000 A 
ATOM      6  C   UNL     1       5.998   5.038  16.843  0.00  0.00    +0.000 A 
ATOM      7  C   UNL     1       6.999   5.548  16.016  0.00  0.00    +0.000 A 
ATOM      8  C   UNL     1       7.089   5.109  14.683  0.00  0.00    +0.000 A 
ATOM      9  N   UNL     1       8.006   5.560  13.751  0.00  0.00    +0.000 NA
ATOM     10  C   UNL     1       7.786   4.968  12.600  0.00  0.00    +0.000 A 
ATOM     11  S   UNL     1       6.506   3.832  12.560  0.00  0.00    +0.000 S 
ATOM     12  C   UNL     1       6.179   4.150  14.224  0.00  0.00    +0.000 A 
ATOM     13  C   UNL     1       5.174   3.606  15.050  0.00  0.00    +0.000 A 
ENDBRANCH   2   5
BRANCH   3  14
ATOM     14  C   UNL     1       3.158   3.689  19.609  0.00  0.00    +0.000 A 
ATOM     15  C   UNL     1       1.929   4.346  19.689  0.00  0.00    +0.000 A 
ATOM     16  C   UNL     1       1.056   4.023  20.718  0.00  0.00    +0.000 A 
ATOM     17  N   UNL     1       1.314   3.087  21.654  0.00  0.00    +0.000 NA
ATOM     18  C   UNL     1       2.503   2.447  21.551  0.00  0.00    +0.000 A 
ATOM     19  C   UNL     1       3.433   2.705  20.556  0.00  0.00    +0.000 A 
ATOM     20  F   UNL     1       4.593   2.031  20.528  0.00  0.00    +0.000 F 
ENDBRANCH   3  14
TORSDOF 2
ENDMDL
MODEL 5
REMARK VINA RESULT:      -6.9      5.108      7.560
REMARK  Name = 
REMARK  2 active torsions:
REMARK  status: ('A' for Active; 'I' for Inactive)
REMARK    1  A    between atoms: C_2  and  C_11
REMARK    2  A    between atoms: N_3  and  C_4
REMARK                            x       y       z     vdW  Elec       q    Type
REMARK                         _______ _______ _______ _____ _____    ______ ____
ROOT
ATOM      1  O   UNL     1       4.738   5.475  18.958  0.00  0.00    +0.000 OA
ATOM      2  C   UNL     1       4.637   4.574  18.134  0.00  0.00    +0.000 C 
ATOM      3  N   UNL     1       3.807   3.471  18.231  0.00  0.00    +0.000 N 
ATOM      4  H   UNL     1       3.953   2.691  17.598  0.00  0.00    +0.000 HD
ENDROOT
BRANCH   2   5
ATOM      5  C   UNL     1       5.532   4.650  16.953  0.00  0.00    +0.000 A 
ATOM      6  C   UNL     1       6.622   5.524  17.043  0.00  0.00    +0.000 A 
ATOM      7  C   UNL     1       7.438   5.763  15.937  0.00  0.00    +0.000 A 
ATOM      8  C   UNL     1       7.149   5.134  14.713  0.00  0.00    +0.000 A 
ATOM      9  N   UNL     1       7.851   5.313  13.535  0.00  0.00    +0.000 NA
ATOM     10  C   UNL     1       7.294   4.603  12.581  0.00  0.00    +0.000 A 
ATOM     11  S   UNL     1       5.930   3.669  13.026  0.00  0.00    +0.000 S 
ATOM     12  C   UNL     1       6.057   4.261  14.642  0.00  0.00    +0.000 A 
ATOM     13  C   UNL     1       5.234   3.989  15.754  0.00  0.00    +0.000 A 
ENDBRANCH   2   5
BRANCH   3  14
ATOM     14  C   UNL     1       2.896   3.246  19.297  0.00  0.00    +0.000 A 
ATOM     15  C   UNL     1       1.549   3.614  19.245  0.00  0.00    +0.000 A 
ATOM     16  C   UNL     1       0.744   3.389  20.351  0.00  0.00    +0.000 A 
ATOM     17  N   UNL     1       1.179   2.815  21.491  0.00  0.00    +0.000 NA
ATOM     18  C   UNL     1       2.482   2.448  21.519  0.00  0.00    +0.000 A 
ATOM     19  C   UNL     1       3.357   2.633  20.460  0.00  0.00    +0.000 A 
ATOM     20  F   UNL     1       4.639   2.248  20.571  0.00  0.00    +0.000 F 
ENDBRANCH   3  14
TORSDOF 2
ENDMDL
MODEL 6
REMARK VINA RESULT:      -6.9      5.004      7.449
REMARK  Name = 
REMARK  2 active torsions:
REMARK  status: ('A' for Active; 'I' for Inactive)
REMARK    1  A    between atoms: C_2  and  C_11
REMARK    2  A    between atoms: N_3  and  C_4
REMARK                            x       y       z     vdW  Elec       q    Type
REMARK                         _______ _______ _______ _____ _____    ______ ____
ROOT
ATOM      1  O   UNL     1       4.422   5.710  18.582  0.00  0.00    +0.000 OA
ATOM      2  C   UNL     1       4.517   4.682  17.924  0.00  0.00    +0.000 C 
ATOM      3  N   UNL     1       3.880   3.483  18.189  0.00  0.00    +0.000 N 
ATOM      4  H   UNL     1       4.188   2.646  17.704  0.00  0.00    +0.000 HD
ENDROOT
BRANCH   2   5
ATOM      5  C   UNL     1       5.449   4.716  16.769  0.00  0.00    +0.000 A 
ATOM      6  C   UNL     1       6.544   5.582  16.868  0.00  0.00    +0.000 A 
ATOM      7  C   UNL     1       7.396   5.782  15.781  0.00  0.00    +0.000 A 
ATOM      8  C   UNL     1       7.138   5.120  14.567  0.00  0.00    +0.000 A 
ATOM      9  N   UNL     1       7.878   5.259  13.406  0.00  0.00    +0.000 NA
ATOM     10  C   UNL     1       7.343   4.527  12.457  0.00  0.00    +0.000 A 
ATOM     11  S   UNL     1       5.957   3.619  12.885  0.00  0.00    +0.000 S 
ATOM     12  C   UNL     1       6.040   4.256  14.487  0.00  0.00    +0.000 A 
ATOM     13  C   UNL     1       5.181   4.023  15.581  0.00  0.00    +0.000 A 
ENDBRANCH   2   5
BRANCH   3  14
ATOM     14  C   UNL     1       2.963   3.283  19.256  0.00  0.00    +0.000 A 
ATOM     15  C   UNL     1       3.342   2.799  20.510  0.00  0.00    +0.000 A 
ATOM     16  C   UNL     1       2.369   2.599  21.479  0.00  0.00    +0.000 A 
ATOM     17  N   UNL     1       1.059   2.860  21.291  0.00  0.00    +0.000 NA
ATOM     18  C   UNL     1       0.712   3.345  20.076  0.00  0.00    +0.000 A 
ATOM     19  C   UNL     1       1.616   3.577  19.052  0.00  0.00    +0.000 A 
ATOM     20  F   UNL     1       1.190   4.053  17.871  0.00  0.00    +0.000 F 
ENDBRANCH   3  14
TORSDOF 2
ENDMDL
MODEL 7
REMARK VINA RESULT:      -6.8      4.825      7.512
REMARK  Name = 
REMARK  2 active torsions:
REMARK  status: ('A' for Active; 'I' for Inactive)
REMARK    1  A    between atoms: C_2  and  C_11
REMARK    2  A    between atoms: N_3  and  C_4
REMARK                            x       y       z     vdW  Elec       q    Type
REMARK                         _______ _______ _______ _____ _____    ______ ____
ROOT
ATOM      1  O   UNL     1       3.155   3.335  16.941  0.00  0.00    +0.000 OA
ATOM      2  C   UNL     1       4.230   3.734  17.373  0.00  0.00    +0.000 C 
ATOM      3  N   UNL     1       4.543   3.950  18.703  0.00  0.00    +0.000 N 
ATOM      4  H   UNL     1       5.383   4.472  18.931  0.00  0.00    +0.000 HD
ENDROOT
BRANCH   2   5
ATOM      5  C   UNL     1       5.269   4.069  16.367  0.00  0.00    +0.000 A 
ATOM      6  C   UNL     1       6.226   5.019  16.742  0.00  0.00    +0.000 A 
ATOM      7  C   UNL     1       7.157   5.496  15.819  0.00  0.00    +0.000 A 
ATOM      8  C   UNL     1       7.119   5.030  14.493  0.00  0.00    +0.000 A 
ATOM      9  N   UNL     1       7.956   5.448  13.473  0.00  0.00    +0.000 NA
ATOM     10  C   UNL     1       7.625   4.838  12.359  0.00  0.00    +0.000 A 
ATOM     11  S   UNL     1       6.330   3.724  12.456  0.00  0.00    +0.000 S 
ATOM     12  C   UNL     1       6.157   4.079  14.136  0.00  0.00    +0.000 A 
ATOM     13  C   UNL     1       5.222   3.568  15.060  0.00  0.00    +0.000 A 
ENDBRANCH   2   5
BRANCH   3  14
ATOM     14  C   UNL     1       3.661   3.685  19.786  0.00  0.00    +0.000 A 
ATOM     15  C   UNL     1       3.681   2.495  20.516  0.00  0.00    +0.000 A 
ATOM     16  C   UNL     1       2.754   2.311  21.532  0.00  0.00    +0.000 A 
ATOM     17  N   UNL     1       1.828   3.228  21.878  0.00  0.00    +0.000 NA
ATOM     18  C   UNL     1       1.835   4.383  21.172  0.00  0.00    +0.000 A 
ATOM     19  C   UNL     1       2.723   4.652  20.144  0.00  0.00    +0.000 A 
ATOM     20  F   UNL     1       2.659   5.821  19.486  0.00  0.00    +0.000 F 
ENDBRANCH   3  14
TORSDOF 2
ENDMDL
MODEL 8
REMARK VINA RESULT:      -6.7      1.478      2.141
REMARK  Name = 
REMARK  2 active torsions:
REMARK  status: ('A' for Active; 'I' for Inactive)
REMARK    1  A    between atoms: C_2  and  C_11
REMARK    2  A    between atoms: N_3  and  C_4
REMARK                            x       y       z     vdW  Elec       q    Type
REMARK                         _______ _______ _______ _____ _____    ______ ____
ROOT
ATOM      1  O   UNL     1       2.804   5.438  18.064  0.00  0.00    +0.000 OA
ATOM      2  C   UNL     1       3.267   6.567  18.173  0.00  0.00    +0.000 C 
ATOM      3  N   UNL     1       4.501   6.989  17.711  0.00  0.00    +0.000 N 
ATOM      4  H   UNL     1       4.866   7.879  18.034  0.00  0.00    +0.000 HD
ENDROOT
BRANCH   2   5
ATOM      5  C   UNL     1       2.447   7.552  18.921  0.00  0.00    +0.000 A 
ATOM      6  C   UNL     1       2.098   7.215  20.233  0.00  0.00    +0.000 A 
ATOM      7  C   UNL     1       1.220   8.014  20.966  0.00  0.00    +0.000 A 
ATOM      8  C   UNL     1       0.663   9.160  20.369  0.00  0.00    +0.000 A 
ATOM      9  N   UNL     1      -0.247  10.013  20.967  0.00  0.00    +0.000 NA
ATOM     10  C   UNL     1      -0.583  10.957  20.120  0.00  0.00    +0.000 A 
ATOM     11  S   UNL     1       0.170  10.906  18.584  0.00  0.00    +0.000 S 
ATOM     12  C   UNL     1       1.025   9.483  19.057  0.00  0.00    +0.000 A 
ATOM     13  C   UNL     1       1.929   8.701  18.308  0.00  0.00    +0.000 A 
ENDBRANCH   2   5
BRANCH   3  14
ATOM     14  C   UNL     1       5.406   6.170  16.983  0.00  0.00    +0.000 A 
ATOM     15  C   UNL     1       5.336   5.993  15.600  0.00  0.00    +0.000 A 
ATOM     16  C   UNL     1       6.240   5.143  14.981  0.00  0.00    +0.000 A 
ATOM     17  N   UNL     1       7.211   4.475  15.637  0.00  0.00    +0.000 NA
ATOM     18  C   UNL     1       7.276   4.672  16.974  0.00  0.00    +0.000 A 
ATOM     19  C   UNL     1       6.416   5.503  17.674  0.00  0.00    +0.000 A 
ATOM     20  F   UNL     1       6.543   5.639  19.004  0.00  0.00    +0.000 F 
ENDBRANCH   3  14
TORSDOF 2
ENDMDL
MODEL 9
REMARK VINA RESULT:      -6.7      4.678      7.568
REMARK  Name = 
REMARK  2 active torsions:
REMARK  status: ('A' for Active; 'I' for Inactive)
REMARK    1  A    between atoms: C_2  and  C_11
REMARK    2  A    between atoms: N_3  and  C_4
REMARK                            x       y       z     vdW  Elec       q    Type
REMARK                         _______ _______ _______ _____ _____    ______ ____
ROOT
ATOM      1  O   UNL     1       5.803   3.969  18.965  0.00  0.00    +0.000 OA
ATOM      2  C   UNL     1       5.145   4.083  17.938  0.00  0.00    +0.000 C 
ATOM      3  N   UNL     1       3.770   3.968  17.835  0.00  0.00    +0.000 N 
ATOM      4  H   UNL     1       3.354   3.876  16.914  0.00  0.00    +0.000 HD
ENDROOT
BRANCH   2   5
ATOM      5  C   UNL     1       5.905   4.307  16.682  0.00  0.00    +0.000 A 
ATOM      6  C   UNL     1       6.852   5.337  16.694  0.00  0.00    +0.000 A 
ATOM      7  C   UNL     1       7.516   5.709  15.525  0.00  0.00    +0.000 A 
ATOM      8  C   UNL     1       7.213   5.055  14.318  0.00  0.00    +0.000 A 
ATOM      9  N   UNL     1       7.767   5.351  13.085  0.00  0.00    +0.000 NA
ATOM     10  C   UNL     1       7.238   4.574  12.170  0.00  0.00    +0.000 A 
ATOM     11  S   UNL     1       6.079   3.437  12.713  0.00  0.00    +0.000 S 
ATOM     12  C   UNL     1       6.265   4.026  14.325  0.00  0.00    +0.000 A 
ATOM     13  C   UNL     1       5.601   3.619  15.500  0.00  0.00    +0.000 A 
ENDBRANCH   2   5
BRANCH   3  14
ATOM     14  C   UNL     1       2.900   3.749  18.937  0.00  0.00    +0.000 A 
ATOM     15  C   UNL     1       2.371   2.498  19.258  0.00  0.00    +0.000 A 
ATOM     16  C   UNL     1       1.498   2.388  20.331  0.00  0.00    +0.000 A 
ATOM     17  N   UNL     1       1.133   3.427  21.109  0.00  0.00    +0.000 NA
ATOM     18  C   UNL     1       1.669   4.630  20.795  0.00  0.00    +0.000 A 
ATOM     19  C   UNL     1       2.549   4.830  19.743  0.00  0.00    +0.000 A 
ATOM     20  F   UNL     1       3.032   6.058  19.493  0.00  0.00    +0.000 F 
ENDBRANCH   3  14
TORSDOF 2
ENDMDL
