MODEL 1
REMARK VINA RESULT:      -9.4      0.000      0.000
REMARK  Name = 
REMARK  6 active torsions:
REMARK  status: ('A' for Active; 'I' for Inactive)
REMARK    1  A    between atoms: C_1  and  C_2
REMARK    2  A    between atoms: C_5  and  C_6
REMARK    3  A    between atoms: C_9  and  C_10
REMARK    4  A    between atoms: C_10  and  N_11
REMARK    5  A    between atoms: C_13  and  C_14
REMARK    6  A    between atoms: C_20  and  C_21
REMARK                            x       y       z     vdW  Elec       q    Type
REMARK                         _______ _______ _______ _____ _____    ______ ____
ROOT
ATOM      1  N   UNL     1       5.964   6.189  17.240  0.00  0.00    +0.000 N 
ATOM      2  N   UNL     1       4.896   7.024  17.474  0.00  0.00    +0.000 NA
ATOM      3  C   UNL     1       3.903   6.547  18.166  0.00  0.00    +0.000 A 
ATOM      4  C   UNL     1       3.907   5.075  18.553  0.00  0.00    +0.000 A 
ATOM      5  N   UNL     1       4.969   4.354  18.372  0.00  0.00    +0.000 NA
ATOM      6  C   UNL     1       6.067   4.898  17.762  0.00  0.00    +0.000 A 
ATOM      7  O   UNL     1       7.103   4.246  17.647  0.00  0.00    +0.000 OA
ENDROOT
BRANCH   3   8
ATOM      8  C   UNL     1       2.827   7.489  18.576  0.00  0.00    +0.000 A 
ATOM      9  C   UNL     1       2.317   8.394  17.635  0.00  0.00    +0.000 A 
ATOM     10  C   UNL     1       1.284   9.266  17.988  0.00  0.00    +0.000 A 
ATOM     11  C   UNL     1       0.753   9.233  19.278  0.00  0.00    +0.000 A 
ATOM     12  C   UNL     1       1.274   8.353  20.224  0.00  0.00    +0.000 A 
ATOM     13  C   UNL     1       2.330   7.506  19.885  0.00  0.00    +0.000 A 
ENDBRANCH   3   8
BRANCH   4  14
ATOM     14  C   UNL     1       2.714   4.406  19.142  0.00  0.00    +0.000 A 
ATOM     15  C   UNL     1       2.557   4.253  20.523  0.00  0.00    +0.000 A 
ATOM     16  C   UNL     1       1.506   3.483  21.025  0.00  0.00    +0.000 A 
ATOM     17  C   UNL     1       0.570   2.924  20.156  0.00  0.00    +0.000 A 
ATOM     18  C   UNL     1       0.672   3.148  18.784  0.00  0.00    +0.000 A 
ATOM     19  C   UNL     1       1.742   3.885  18.275  0.00  0.00    +0.000 A 
ENDBRANCH   4  14
BRANCH   1  20
ATOM     20  C   UNL     1       7.132   6.784  16.598  0.00  0.00    +0.000 C 
BRANCH  20  24
ATOM     21  C   UNL     1       8.642   9.563  18.187  0.00  0.00    +0.000 A 
ATOM     22  N   UNL     1       8.839   8.694  19.161  0.00  0.00    +0.000 NA
ATOM     23  N   UNL     1       8.292   7.501  18.738  0.00  0.00    +0.000 NA
ATOM     24  C   UNL     1       7.815   7.721  17.528  0.00  0.00    +0.000 A 
ATOM     25  O   UNL     1       7.977   9.020  17.123  0.00  0.00    +0.000 OA
BRANCH  21  30
ATOM     26  C   UNL     1      10.330  15.095  17.895  0.00  0.00    +0.000 C 
ATOM     27  C   UNL     1       9.889  13.663  17.969  0.00  0.00    +0.000 A 
ATOM     28  C   UNL     1      10.779  12.659  18.362  0.00  0.00    +0.000 A 
ATOM     29  C   UNL     1      10.357  11.329  18.432  0.00  0.00    +0.000 A 
ATOM     30  C   UNL     1       9.042  10.965  18.107  0.00  0.00    +0.000 A 
ATOM     31  C   UNL     1       8.154  11.977  17.712  0.00  0.00    +0.000 A 
ATOM     32  C   UNL     1       8.572  13.313  17.646  0.00  0.00    +0.000 A 
ENDBRANCH  21  30
ENDBRANCH  20  24
ENDBRANCH   1  20
TORSDOF 5
ENDMDL
MODEL 2
REMARK VINA RESULT:      -9.4      0.318      1.228
REMARK  Name = 
REMARK  6 active torsions:
REMARK  status: ('A' for Active; 'I' for Inactive)
REMARK    1  A    between atoms: C_1  and  C_2
REMARK    2  A    between atoms: C_5  and  C_6
REMARK    3  A    between atoms: C_9  and  C_10
REMARK    4  A    between atoms: C_10  and  N_11
REMARK    5  A    between atoms: C_13  and  C_14
REMARK    6  A    between atoms: C_20  and  C_21
REMARK                            x       y       z     vdW  Elec       q    Type
REMARK                         _______ _______ _______ _____ _____    ______ ____
ROOT
ATOM      1  N   UNL     1       5.755   6.276  17.147  0.00  0.00    +0.000 N 
ATOM      2  N   UNL     1       4.691   7.095  17.444  0.00  0.00    +0.000 NA
ATOM      3  C   UNL     1       3.720   6.586  18.143  0.00  0.00    +0.000 A 
ATOM      4  C   UNL     1       3.740   5.100  18.470  0.00  0.00    +0.000 A 
ATOM      5  N   UNL     1       4.799   4.391  18.230  0.00  0.00    +0.000 NA
ATOM      6  C   UNL     1       5.878   4.965  17.612  0.00  0.00    +0.000 A 
ATOM      7  O   UNL     1       6.912   4.322  17.442  0.00  0.00    +0.000 OA
ENDROOT
BRANCH   3   8
ATOM      8  C   UNL     1       2.652   7.506  18.622  0.00  0.00    +0.000 A 
ATOM      9  C   UNL     1       2.266   7.460  19.968  0.00  0.00    +0.000 A 
ATOM     10  C   UNL     1       1.288   8.335  20.447  0.00  0.00    +0.000 A 
ATOM     11  C   UNL     1       0.700   9.263  19.588  0.00  0.00    +0.000 A 
ATOM     12  C   UNL     1       1.062   9.295  18.242  0.00  0.00    +0.000 A 
ATOM     13  C   UNL     1       2.012   8.397  17.753  0.00  0.00    +0.000 A 
ENDBRANCH   3   8
BRANCH   4  14
ATOM     14  C   UNL     1       2.566   4.402  19.064  0.00  0.00    +0.000 A 
ATOM     15  C   UNL     1       2.412   4.257  20.447  0.00  0.00    +0.000 A 
ATOM     16  C   UNL     1       1.384   3.461  20.955  0.00  0.00    +0.000 A 
ATOM     17  C   UNL     1       0.465   2.867  20.090  0.00  0.00    +0.000 A 
ATOM     18  C   UNL     1       0.562   3.082  18.717  0.00  0.00    +0.000 A 
ATOM     19  C   UNL     1       1.611   3.845  18.202  0.00  0.00    +0.000 A 
ENDBRANCH   4  14
BRANCH   1  20
ATOM     20  C   UNL     1       6.903   6.902  16.498  0.00  0.00    +0.000 C 
BRANCH  20  24
ATOM     21  C   UNL     1       8.616   9.424  18.294  0.00  0.00    +0.000 A 
ATOM     22  N   UNL     1       8.862   8.434  19.132  0.00  0.00    +0.000 NA
ATOM     23  N   UNL     1       8.248   7.317  18.608  0.00  0.00    +0.000 NA
ATOM     24  C   UNL     1       7.685   7.698  17.479  0.00  0.00    +0.000 A 
ATOM     25  O   UNL     1       7.854   9.035  17.228  0.00  0.00    +0.000 OA
BRANCH  21  30
ATOM     26  C   UNL     1      10.254  14.976  18.487  0.00  0.00    +0.000 C 
ATOM     27  C   UNL     1       9.832  13.537  18.441  0.00  0.00    +0.000 A 
ATOM     28  C   UNL     1       8.725  13.139  17.685  0.00  0.00    +0.000 A 
ATOM     29  C   UNL     1       8.343  11.796  17.644  0.00  0.00    +0.000 A 
ATOM     30  C   UNL     1       9.051  10.817  18.358  0.00  0.00    +0.000 A 
ATOM     31  C   UNL     1      10.160  11.222  19.116  0.00  0.00    +0.000 A 
ATOM     32  C   UNL     1      10.548  12.568  19.154  0.00  0.00    +0.000 A 
ENDBRANCH  21  30
ENDBRANCH  20  24
ENDBRANCH   1  20
TORSDOF 5
ENDMDL
MODEL 3
REMARK VINA RESULT:      -9.3      0.209      1.223
REMARK  Name = 
REMARK  6 active torsions:
REMARK  status: ('A' for Active; 'I' for Inactive)
REMARK    1  A    between atoms: C_1  and  C_2
REMARK    2  A    between atoms: C_5  and  C_6
REMARK    3  A    between atoms: C_9  and  C_10
REMARK    4  A    between atoms: C_10  and  N_11
REMARK    5  A    between atoms: C_13  and  C_14
REMARK    6  A    between atoms: C_20  and  C_21
REMARK                            x       y       z     vdW  Elec       q    Type
REMARK                         _______ _______ _______ _____ _____    ______ ____
ROOT
ATOM      1  N   UNL     1       5.969   6.217  17.133  0.00  0.00    +0.000 N 
ATOM      2  N   UNL     1       4.888   7.012  17.435  0.00  0.00    +0.000 NA
ATOM      3  C   UNL     1       3.923   6.474  18.120  0.00  0.00    +0.000 A 
ATOM      4  C   UNL     1       3.969   4.983  18.425  0.00  0.00    +0.000 A 
ATOM      5  N   UNL     1       5.043   4.299  18.182  0.00  0.00    +0.000 NA
ATOM      6  C   UNL     1       6.114   4.902  17.579  0.00  0.00    +0.000 A 
ATOM      7  O   UNL     1       7.162   4.282  17.406  0.00  0.00    +0.000 OA
ENDROOT
BRANCH   3   8
ATOM      8  C   UNL     1       2.835   7.366  18.605  0.00  0.00    +0.000 A 
ATOM      9  C   UNL     1       2.399   7.249  19.932  0.00  0.00    +0.000 A 
ATOM     10  C   UNL     1       1.401   8.097  20.419  0.00  0.00    +0.000 A 
ATOM     11  C   UNL     1       0.841   9.067  19.587  0.00  0.00    +0.000 A 
ATOM     12  C   UNL     1       1.254   9.170  18.260  0.00  0.00    +0.000 A 
ATOM     13  C   UNL     1       2.224   8.300  17.760  0.00  0.00    +0.000 A 
ENDBRANCH   3   8
BRANCH   4  14
ATOM     14  C   UNL     1       2.805   4.254  19.002  0.00  0.00    +0.000 A 
ATOM     15  C   UNL     1       1.744   3.807  18.208  0.00  0.00    +0.000 A 
ATOM     16  C   UNL     1       0.602   3.271  18.806  0.00  0.00    +0.000 A 
ATOM     17  C   UNL     1       0.545   3.113  20.191  0.00  0.00    +0.000 A 
ATOM     18  C   UNL     1       1.637   3.476  20.978  0.00  0.00    +0.000 A 
ATOM     19  C   UNL     1       2.765   4.048  20.388  0.00  0.00    +0.000 A 
ENDBRANCH   4  14
BRANCH   1  20
ATOM     20  C   UNL     1       7.109   6.875  16.500  0.00  0.00    +0.000 C 
BRANCH  20  24
ATOM     21  C   UNL     1       8.653   9.552  18.222  0.00  0.00    +0.000 A 
ATOM     22  N   UNL     1       8.853   8.631  19.146  0.00  0.00    +0.000 NA
ATOM     23  N   UNL     1       8.294   7.467  18.664  0.00  0.00    +0.000 NA
ATOM     24  C   UNL     1       7.808   7.754  17.473  0.00  0.00    +0.000 A 
ATOM     25  O   UNL     1       7.975   9.073  17.137  0.00  0.00    +0.000 OA
BRANCH  21  30
ATOM     26  C   UNL     1      10.374  15.083  18.232  0.00  0.00    +0.000 C 
ATOM     27  C   UNL     1       9.925  13.651  18.227  0.00  0.00    +0.000 A 
ATOM     28  C   UNL     1      10.744  12.642  18.743  0.00  0.00    +0.000 A 
ATOM     29  C   UNL     1      10.314  11.312  18.738  0.00  0.00    +0.000 A 
ATOM     30  C   UNL     1       9.063  10.955  18.214  0.00  0.00    +0.000 A 
ATOM     31  C   UNL     1       8.246  11.972  17.697  0.00  0.00    +0.000 A 
ATOM     32  C   UNL     1       8.672  13.306  17.706  0.00  0.00    +0.000 A 
ENDBRANCH  21  30
ENDBRANCH  20  24
ENDBRANCH   1  20
TORSDOF 5
ENDMDL
MODEL 4
REMARK VINA RESULT:      -9.2      0.152      1.214
REMARK  Name = 
REMARK  6 active torsions:
REMARK  status: ('A' for Active; 'I' for Inactive)
REMARK    1  A    between atoms: C_1  and  C_2
REMARK    2  A    between atoms: C_5  and  C_6
REMARK    3  A    between atoms: C_9  and  C_10
REMARK    4  A    between atoms: C_10  and  N_11
REMARK    5  A    between atoms: C_13  and  C_14
REMARK    6  A    between atoms: C_20  and  C_21
REMARK                            x       y       z     vdW  Elec       q    Type
REMARK                         _______ _______ _______ _____ _____    ______ ____
ROOT
ATOM      1  N   UNL     1       6.034   6.188  17.186  0.00  0.00    +0.000 N 
ATOM      2  N   UNL     1       4.953   6.993  17.458  0.00  0.00    +0.000 NA
ATOM      3  C   UNL     1       3.977   6.474  18.142  0.00  0.00    +0.000 A 
ATOM      4  C   UNL     1       4.013   4.990  18.480  0.00  0.00    +0.000 A 
ATOM      5  N   UNL     1       5.087   4.296  18.265  0.00  0.00    +0.000 NA
ATOM      6  C   UNL     1       6.168   4.882  17.663  0.00  0.00    +0.000 A 
ATOM      7  O   UNL     1       7.215   4.254  17.516  0.00  0.00    +0.000 OA
ENDROOT
BRANCH   3   8
ATOM      8  C   UNL     1       2.887   7.380  18.595  0.00  0.00    +0.000 A 
ATOM      9  C   UNL     1       2.365   8.320  17.696  0.00  0.00    +0.000 A 
ATOM     10  C   UNL     1       1.319   9.160  18.088  0.00  0.00    +0.000 A 
ATOM     11  C   UNL     1       0.787   9.059  19.373  0.00  0.00    +0.000 A 
ATOM     12  C   UNL     1       1.319   8.143  20.279  0.00  0.00    +0.000 A 
ATOM     13  C   UNL     1       2.389   7.328  19.902  0.00  0.00    +0.000 A 
ENDBRANCH   3   8
BRANCH   4  14
ATOM     14  C   UNL     1       2.839   4.278  19.057  0.00  0.00    +0.000 A 
ATOM     15  C   UNL     1       1.790   3.811  18.258  0.00  0.00    +0.000 A 
ATOM     16  C   UNL     1       0.638   3.292  18.853  0.00  0.00    +0.000 A 
ATOM     17  C   UNL     1       0.558   3.172  20.240  0.00  0.00    +0.000 A 
ATOM     18  C   UNL     1       1.637   3.555  21.035  0.00  0.00    +0.000 A 
ATOM     19  C   UNL     1       2.776   4.109  20.447  0.00  0.00    +0.000 A 
ENDBRANCH   4  14
BRANCH   1  20
ATOM     20  C   UNL     1       7.185   6.827  16.554  0.00  0.00    +0.000 C 
BRANCH  20  24
ATOM     21  C   UNL     1       8.674   9.575  18.212  0.00  0.00    +0.000 A 
ATOM     22  N   UNL     1       8.869   8.686  19.168  0.00  0.00    +0.000 NA
ATOM     23  N   UNL     1       8.330   7.501  18.715  0.00  0.00    +0.000 NA
ATOM     24  C   UNL     1       7.859   7.745  17.508  0.00  0.00    +0.000 A 
ATOM     25  O   UNL     1       8.017   9.054  17.133  0.00  0.00    +0.000 OA
BRANCH  21  30
ATOM     26  C   UNL     1      10.138  15.175  17.993  0.00  0.00    +0.000 C 
ATOM     27  C   UNL     1       9.761  13.723  18.052  0.00  0.00    +0.000 A 
ATOM     28  C   UNL     1       8.501  13.292  17.628  0.00  0.00    +0.000 A 
ATOM     29  C   UNL     1       8.162  11.938  17.683  0.00  0.00    +0.000 A 
ATOM     30  C   UNL     1       9.068  10.981  18.166  0.00  0.00    +0.000 A 
ATOM     31  C   UNL     1      10.331  11.420  18.592  0.00  0.00    +0.000 A 
ATOM     32  C   UNL     1      10.675  12.777  18.532  0.00  0.00    +0.000 A 
ENDBRANCH  21  30
ENDBRANCH  20  24
ENDBRANCH   1  20
TORSDOF 5
ENDMDL
MODEL 5
REMARK VINA RESULT:      -7.8      5.912      9.708
REMARK  Name = 
REMARK  6 active torsions:
REMARK  status: ('A' for Active; 'I' for Inactive)
REMARK    1  A    between atoms: C_1  and  C_2
REMARK    2  A    between atoms: C_5  and  C_6
REMARK    3  A    between atoms: C_9  and  C_10
REMARK    4  A    between atoms: C_10  and  N_11
REMARK    5  A    between atoms: C_13  and  C_14
REMARK    6  A    between atoms: C_20  and  C_21
REMARK                            x       y       z     vdW  Elec       q    Type
REMARK                         _______ _______ _______ _____ _____    ______ ____
ROOT
ATOM      1  N   UNL     1      -0.733  11.334  18.857  0.00  0.00    +0.000 N 
ATOM      2  N   UNL     1      -1.181  12.183  19.843  0.00  0.00    +0.000 NA
ATOM      3  C   UNL     1      -2.465  12.350  19.951  0.00  0.00    +0.000 A 
ATOM      4  C   UNL     1      -3.386  11.725  18.913  0.00  0.00    +0.000 A 
ATOM      5  N   UNL     1      -2.920  10.876  18.051  0.00  0.00    +0.000 NA
ATOM      6  C   UNL     1      -1.580  10.597  18.025  0.00  0.00    +0.000 A 
ATOM      7  O   UNL     1      -1.135   9.744  17.260  0.00  0.00    +0.000 OA
ENDROOT
BRANCH   3   8
ATOM      8  C   UNL     1      -2.969  13.121  21.120  0.00  0.00    +0.000 A 
ATOM      9  C   UNL     1      -3.247  14.486  20.967  0.00  0.00    +0.000 A 
ATOM     10  C   UNL     1      -3.751  15.224  22.041  0.00  0.00    +0.000 A 
ATOM     11  C   UNL     1      -3.986  14.601  23.267  0.00  0.00    +0.000 A 
ATOM     12  C   UNL     1      -3.688  13.249  23.431  0.00  0.00    +0.000 A 
ATOM     13  C   UNL     1      -3.150  12.519  22.370  0.00  0.00    +0.000 A 
ENDBRANCH   3   8
BRANCH   4  14
ATOM     14  C   UNL     1      -4.837  12.054  18.837  0.00  0.00    +0.000 A 
ATOM     15  C   UNL     1      -5.677  11.961  19.951  0.00  0.00    +0.000 A 
ATOM     16  C   UNL     1      -7.056  12.124  19.801  0.00  0.00    +0.000 A 
ATOM     17  C   UNL     1      -7.591  12.453  18.556  0.00  0.00    +0.000 A 
ATOM     18  C   UNL     1      -6.747  12.634  17.461  0.00  0.00    +0.000 A 
ATOM     19  C   UNL     1      -5.373  12.434  17.598  0.00  0.00    +0.000 A 
ENDBRANCH   4  14
BRANCH   1  20
ATOM     20  C   UNL     1       0.696  11.036  18.847  0.00  0.00    +0.000 C 
BRANCH  20  24
ATOM     21  C   UNL     1       1.656   7.904  20.184  0.00  0.00    +0.000 A 
ATOM     22  N   UNL     1       1.226   8.435  21.313  0.00  0.00    +0.000 NA
ATOM     23  N   UNL     1       0.803   9.712  21.008  0.00  0.00    +0.000 NA
ATOM     24  C   UNL     1       0.989   9.864  19.712  0.00  0.00    +0.000 A 
ATOM     25  O   UNL     1       1.555   8.762  19.125  0.00  0.00    +0.000 OA
BRANCH  21  30
ATOM     26  C   UNL     1       3.833   2.641  19.131  0.00  0.00    +0.000 C 
ATOM     27  C   UNL     1       3.268   4.003  19.407  0.00  0.00    +0.000 A 
ATOM     28  C   UNL     1       3.640   5.105  18.630  0.00  0.00    +0.000 A 
ATOM     29  C   UNL     1       3.104   6.368  18.893  0.00  0.00    +0.000 A 
ATOM     30  C   UNL     1       2.189   6.566  19.938  0.00  0.00    +0.000 A 
ATOM     31  C   UNL     1       1.820   5.457  20.715  0.00  0.00    +0.000 A 
ATOM     32  C   UNL     1       2.352   4.189  20.450  0.00  0.00    +0.000 A 
ENDBRANCH  21  30
ENDBRANCH  20  24
ENDBRANCH   1  20
TORSDOF 5
ENDMDL
MODEL 6
REMARK VINA RESULT:      -7.8      4.579      8.200
REMARK  Name = 
REMARK  6 active torsions:
REMARK  status: ('A' for Active; 'I' for Inactive)
REMARK    1  A    between atoms: C_1  and  C_2
REMARK    2  A    between atoms: C_5  and  C_6
REMARK    3  A    between atoms: C_9  and  C_10
REMARK    4  A    between atoms: C_10  and  N_11
REMARK    5  A    between atoms: C_13  and  C_14
REMARK    6  A    between atoms: C_20  and  C_21
REMARK                            x       y       z     vdW  Elec       q    Type
REMARK                         _______ _______ _______ _____ _____    ______ ____
ROOT
ATOM      1  N   UNL     1       1.339   8.911  18.122  0.00  0.00    +0.000 N 
ATOM      2  N   UNL     1       1.194   7.580  18.441  0.00  0.00    +0.000 NA
ATOM      3  C   UNL     1       2.234   6.814  18.296  0.00  0.00    +0.000 A 
ATOM      4  C   UNL     1       3.494   7.382  17.659  0.00  0.00    +0.000 A 
ATOM      5  N   UNL     1       3.601   8.656  17.445  0.00  0.00    +0.000 NA
ATOM      6  C   UNL     1       2.548   9.486  17.725  0.00  0.00    +0.000 A 
ATOM      7  O   UNL     1       2.661  10.703  17.592  0.00  0.00    +0.000 OA
ENDROOT
BRANCH   3   8
ATOM      8  C   UNL     1       2.143   5.417  18.804  0.00  0.00    +0.000 A 
ATOM      9  C   UNL     1       2.313   5.178  20.174  0.00  0.00    +0.000 A 
ATOM     10  C   UNL     1       2.200   3.880  20.679  0.00  0.00    +0.000 A 
ATOM     11  C   UNL     1       1.911   2.820  19.820  0.00  0.00    +0.000 A 
ATOM     12  C   UNL     1       1.767   3.049  18.453  0.00  0.00    +0.000 A 
ATOM     13  C   UNL     1       1.915   4.340  17.941  0.00  0.00    +0.000 A 
ENDBRANCH   3   8
BRANCH   4  14
ATOM     14  C   UNL     1       4.638   6.519  17.254  0.00  0.00    +0.000 A 
ATOM     15  C   UNL     1       5.001   6.351  15.914  0.00  0.00    +0.000 A 
ATOM     16  C   UNL     1       5.975   5.412  15.568  0.00  0.00    +0.000 A 
ATOM     17  C   UNL     1       6.638   4.691  16.560  0.00  0.00    +0.000 A 
ATOM     18  C   UNL     1       6.341   4.920  17.903  0.00  0.00    +0.000 A 
ATOM     19  C   UNL     1       5.342   5.830  18.252  0.00  0.00    +0.000 A 
ENDBRANCH   4  14
BRANCH   1  20
ATOM     20  C   UNL     1       0.213   9.786  18.435  0.00  0.00    +0.000 C 
BRANCH  20  24
ATOM     21  C   UNL     1      -0.359  11.213  21.622  0.00  0.00    +0.000 A 
ATOM     22  N   UNL     1       0.654  10.442  21.970  0.00  0.00    +0.000 NA
ATOM     23  N   UNL     1       1.035   9.760  20.834  0.00  0.00    +0.000 NA
ATOM     24  C   UNL     1       0.241  10.176  19.868  0.00  0.00    +0.000 A 
ATOM     25  O   UNL     1      -0.692  11.082  20.303  0.00  0.00    +0.000 OA
BRANCH  21  30
ATOM     26  C   UNL     1      -3.310  15.033  24.822  0.00  0.00    +0.000 C 
ATOM     27  C   UNL     1      -2.549  14.041  23.993  0.00  0.00    +0.000 A 
ATOM     28  C   UNL     1      -1.324  14.383  23.411  0.00  0.00    +0.000 A 
ATOM     29  C   UNL     1      -0.621  13.451  22.645  0.00  0.00    +0.000 A 
ATOM     30  C   UNL     1      -1.122  12.157  22.434  0.00  0.00    +0.000 A 
ATOM     31  C   UNL     1      -2.352  11.820  23.019  0.00  0.00    +0.000 A 
ATOM     32  C   UNL     1      -3.056  12.751  23.793  0.00  0.00    +0.000 A 
ENDBRANCH  21  30
ENDBRANCH  20  24
ENDBRANCH   1  20
TORSDOF 5
ENDMDL
MODEL 7
REMARK VINA RESULT:      -7.8      6.012      9.833
REMARK  Name = 
REMARK  6 active torsions:
REMARK  status: ('A' for Active; 'I' for Inactive)
REMARK    1  A    between atoms: C_1  and  C_2
REMARK    2  A    between atoms: C_5  and  C_6
REMARK    3  A    between atoms: C_9  and  C_10
REMARK    4  A    between atoms: C_10  and  N_11
REMARK    5  A    between atoms: C_13  and  C_14
REMARK    6  A    between atoms: C_20  and  C_21
REMARK                            x       y       z     vdW  Elec       q    Type
REMARK                         _______ _______ _______ _____ _____    ______ ____
ROOT
ATOM      1  N   UNL     1      -0.871  11.423  18.808  0.00  0.00    +0.000 N 
ATOM      2  N   UNL     1      -1.365  12.275  19.769  0.00  0.00    +0.000 NA
ATOM      3  C   UNL     1      -2.656  12.396  19.853  0.00  0.00    +0.000 A 
ATOM      4  C   UNL     1      -3.537  11.716  18.815  0.00  0.00    +0.000 A 
ATOM      5  N   UNL     1      -3.025  10.868  17.979  0.00  0.00    +0.000 NA
ATOM      6  C   UNL     1      -1.675  10.638  17.980  0.00  0.00    +0.000 A 
ATOM      7  O   UNL     1      -1.188   9.786  17.240  0.00  0.00    +0.000 OA
ENDROOT
BRANCH   3   8
ATOM      8  C   UNL     1      -3.207  13.172  20.998  0.00  0.00    +0.000 A 
ATOM      9  C   UNL     1      -3.315  12.555  22.251  0.00  0.00    +0.000 A 
ATOM     10  C   UNL     1      -3.799  13.273  23.347  0.00  0.00    +0.000 A 
ATOM     11  C   UNL     1      -4.169  14.610  23.198  0.00  0.00    +0.000 A 
ATOM     12  C   UNL     1      -4.088  15.221  21.948  0.00  0.00    +0.000 A 
ATOM     13  C   UNL     1      -3.639  14.495  20.843  0.00  0.00    +0.000 A 
ENDBRANCH   3   8
BRANCH   4  14
ATOM     14  C   UNL     1      -4.997  11.990  18.710  0.00  0.00    +0.000 A 
ATOM     15  C   UNL     1      -5.568  12.525  17.550  0.00  0.00    +0.000 A 
ATOM     16  C   UNL     1      -6.909  12.914  17.549  0.00  0.00    +0.000 A 
ATOM     17  C   UNL     1      -7.701  12.704  18.678  0.00  0.00    +0.000 A 
ATOM     18  C   UNL     1      -7.158  12.089  19.805  0.00  0.00    +0.000 A 
ATOM     19  C   UNL     1      -5.808  11.734  19.824  0.00  0.00    +0.000 A 
ENDBRANCH   4  14
BRANCH   1  20
ATOM     20  C   UNL     1       0.569  11.179  18.827  0.00  0.00    +0.000 C 
BRANCH  20  24
ATOM     21  C   UNL     1       1.588   8.062  20.157  0.00  0.00    +0.000 A 
ATOM     22  N   UNL     1       1.159   8.587  21.290  0.00  0.00    +0.000 NA
ATOM     23  N   UNL     1       0.715   9.857  20.988  0.00  0.00    +0.000 NA
ATOM     24  C   UNL     1       0.887  10.011  19.690  0.00  0.00    +0.000 A 
ATOM     25  O   UNL     1       1.465   8.918  19.099  0.00  0.00    +0.000 OA
BRANCH  21  30
ATOM     26  C   UNL     1       3.834   2.832  19.087  0.00  0.00    +0.000 C 
ATOM     27  C   UNL     1       3.251   4.185  19.368  0.00  0.00    +0.000 A 
ATOM     28  C   UNL     1       3.576   5.286  18.568  0.00  0.00    +0.000 A 
ATOM     29  C   UNL     1       3.024   6.541  18.835  0.00  0.00    +0.000 A 
ATOM     30  C   UNL     1       2.139   6.732  19.908  0.00  0.00    +0.000 A 
ATOM     31  C   UNL     1       1.818   5.625  20.707  0.00  0.00    +0.000 A 
ATOM     32  C   UNL     1       2.366   4.364  20.438  0.00  0.00    +0.000 A 
ENDBRANCH  21  30
ENDBRANCH  20  24
ENDBRANCH   1  20
TORSDOF 5
ENDMDL
MODEL 8
REMARK VINA RESULT:      -7.8      4.582      8.176
REMARK  Name = 
REMARK  6 active torsions:
REMARK  status: ('A' for Active; 'I' for Inactive)
REMARK    1  A    between atoms: C_1  and  C_2
REMARK    2  A    between atoms: C_5  and  C_6
REMARK    3  A    between atoms: C_9  and  C_10
REMARK    4  A    between atoms: C_10  and  N_11
REMARK    5  A    between atoms: C_13  and  C_14
REMARK    6  A    between atoms: C_20  and  C_21
REMARK                            x       y       z     vdW  Elec       q    Type
REMARK                         _______ _______ _______ _____ _____    ______ ____
ROOT
ATOM      1  N   UNL     1       1.345   8.889  18.146  0.00  0.00    +0.000 N 
ATOM      2  N   UNL     1       1.203   7.564  18.488  0.00  0.00    +0.000 NA
ATOM      3  C   UNL     1       2.242   6.796  18.348  0.00  0.00    +0.000 A 
ATOM      4  C   UNL     1       3.497   7.355  17.693  0.00  0.00    +0.000 A 
ATOM      5  N   UNL     1       3.602   8.625  17.458  0.00  0.00    +0.000 NA
ATOM      6  C   UNL     1       2.551   9.459  17.731  0.00  0.00    +0.000 A 
ATOM      7  O   UNL     1       2.662  10.673  17.578  0.00  0.00    +0.000 OA
ENDROOT
BRANCH   3   8
ATOM      8  C   UNL     1       2.156   5.408  18.879  0.00  0.00    +0.000 A 
ATOM      9  C   UNL     1       1.901   4.354  17.993  0.00  0.00    +0.000 A 
ATOM     10  C   UNL     1       1.847   3.040  18.463  0.00  0.00    +0.000 A 
ATOM     11  C   UNL     1       2.056   2.773  19.816  0.00  0.00    +0.000 A 
ATOM     12  C   UNL     1       2.286   3.821  20.706  0.00  0.00    +0.000 A 
ATOM     13  C   UNL     1       2.303   5.138  20.245  0.00  0.00    +0.000 A 
ENDBRANCH   3   8
BRANCH   4  14
ATOM     14  C   UNL     1       4.640   6.486  17.294  0.00  0.00    +0.000 A 
ATOM     15  C   UNL     1       5.000   6.304  15.955  0.00  0.00    +0.000 A 
ATOM     16  C   UNL     1       5.971   5.361  15.615  0.00  0.00    +0.000 A 
ATOM     17  C   UNL     1       6.635   4.648  16.614  0.00  0.00    +0.000 A 
ATOM     18  C   UNL     1       6.341   4.890  17.955  0.00  0.00    +0.000 A 
ATOM     19  C   UNL     1       5.344   5.805  18.297  0.00  0.00    +0.000 A 
ENDBRANCH   4  14
BRANCH   1  20
ATOM     20  C   UNL     1       0.220   9.769  18.452  0.00  0.00    +0.000 C 
BRANCH  20  24
ATOM     21  C   UNL     1      -0.338  11.226  21.628  0.00  0.00    +0.000 A 
ATOM     22  N   UNL     1       0.631  10.408  21.995  0.00  0.00    +0.000 NA
ATOM     23  N   UNL     1       0.999   9.708  20.866  0.00  0.00    +0.000 NA
ATOM     24  C   UNL     1       0.242  10.159  19.886  0.00  0.00    +0.000 A 
ATOM     25  O   UNL     1      -0.654  11.109  20.304  0.00  0.00    +0.000 OA
BRANCH  21  30
ATOM     26  C   UNL     1      -3.317  15.035  24.815  0.00  0.00    +0.000 C 
ATOM     27  C   UNL     1      -2.542  14.051  23.990  0.00  0.00    +0.000 A 
ATOM     28  C   UNL     1      -3.047  12.771  23.740  0.00  0.00    +0.000 A 
ATOM     29  C   UNL     1      -2.319  11.863  22.967  0.00  0.00    +0.000 A 
ATOM     30  C   UNL     1      -1.070  12.205  22.427  0.00  0.00    +0.000 A 
ATOM     31  C   UNL     1      -0.568  13.490  22.683  0.00  0.00    +0.000 A 
ATOM     32  C   UNL     1      -1.298  14.404  23.454  0.00  0.00    +0.000 A 
ENDBRANCH  21  30
ENDBRANCH  20  24
ENDBRANCH   1  20
TORSDOF 5
ENDMDL
MODEL 9
REMARK VINA RESULT:      -7.8      4.540      8.067
REMARK  Name = 
REMARK  6 active torsions:
REMARK  status: ('A' for Active; 'I' for Inactive)
REMARK    1  A    between atoms: C_1  and  C_2
REMARK    2  A    between atoms: C_5  and  C_6
REMARK    3  A    between atoms: C_9  and  C_10
REMARK    4  A    between atoms: C_10  and  N_11
REMARK    5  A    between atoms: C_13  and  C_14
REMARK    6  A    between atoms: C_20  and  C_21
REMARK                            x       y       z     vdW  Elec       q    Type
REMARK                         _______ _______ _______ _____ _____    ______ ____
ROOT
ATOM      1  N   UNL     1       1.458   8.600  18.216  0.00  0.00    +0.000 N 
ATOM      2  N   UNL     1       1.268   7.308  18.646  0.00  0.00    +0.000 NA
ATOM      3  C   UNL     1       2.276   6.493  18.558  0.00  0.00    +0.000 A 
ATOM      4  C   UNL     1       3.550   6.958  17.866  0.00  0.00    +0.000 A 
ATOM      5  N   UNL     1       3.702   8.205  17.547  0.00  0.00    +0.000 NA
ATOM      6  C   UNL     1       2.684   9.094  17.764  0.00  0.00    +0.000 A 
ATOM      7  O   UNL     1       2.841  10.291  17.529  0.00  0.00    +0.000 OA
ENDROOT
BRANCH   3   8
ATOM      8  C   UNL     1       2.139   5.148  19.182  0.00  0.00    +0.000 A 
ATOM      9  C   UNL     1       2.383   5.005  20.554  0.00  0.00    +0.000 A 
ATOM     10  C   UNL     1       2.230   3.759  21.167  0.00  0.00    +0.000 A 
ATOM     11  C   UNL     1       1.826   2.656  20.416  0.00  0.00    +0.000 A 
ATOM     12  C   UNL     1       1.607   2.788  19.046  0.00  0.00    +0.000 A 
ATOM     13  C   UNL     1       1.795   4.023  18.423  0.00  0.00    +0.000 A 
ENDBRANCH   3   8
BRANCH   4  14
ATOM     14  C   UNL     1       4.657   6.021  17.527  0.00  0.00    +0.000 A 
ATOM     15  C   UNL     1       5.536   5.531  18.498  0.00  0.00    +0.000 A 
ATOM     16  C   UNL     1       6.653   4.785  18.115  0.00  0.00    +0.000 A 
ATOM     17  C   UNL     1       6.855   4.464  16.773  0.00  0.00    +0.000 A 
ATOM     18  C   UNL     1       5.933   4.876  15.812  0.00  0.00    +0.000 A 
ATOM     19  C   UNL     1       4.836   5.655  16.185  0.00  0.00    +0.000 A 
ENDBRANCH   4  14
BRANCH   1  20
ATOM     20  C   UNL     1       0.369   9.541  18.463  0.00  0.00    +0.000 C 
BRANCH  20  24
ATOM     21  C   UNL     1      -0.247  11.080  21.589  0.00  0.00    +0.000 A 
ATOM     22  N   UNL     1       0.719  10.277  21.993  0.00  0.00    +0.000 NA
ATOM     23  N   UNL     1       1.109   9.548  20.890  0.00  0.00    +0.000 NA
ATOM     24  C   UNL     1       0.366   9.969  19.886  0.00  0.00    +0.000 A 
ATOM     25  O   UNL     1      -0.540  10.927  20.263  0.00  0.00    +0.000 OA
BRANCH  21  30
ATOM     26  C   UNL     1      -3.283  14.960  24.635  0.00  0.00    +0.000 C 
ATOM     27  C   UNL     1      -2.493  13.957  23.846  0.00  0.00    +0.000 A 
ATOM     28  C   UNL     1      -2.915  12.628  23.750  0.00  0.00    +0.000 A 
ATOM     29  C   UNL     1      -2.175  11.703  23.008  0.00  0.00    +0.000 A 
ATOM     30  C   UNL     1      -0.995  12.079  22.349  0.00  0.00    +0.000 A 
ATOM     31  C   UNL     1      -0.576  13.414  22.451  0.00  0.00    +0.000 A 
ATOM     32  C   UNL     1      -1.319  14.344  23.188  0.00  0.00    +0.000 A 
ENDBRANCH  21  30
ENDBRANCH  20  24
ENDBRANCH   1  20
TORSDOF 5
ENDMDL
