MODEL 1
REMARK VINA RESULT:      -8.4      0.000      0.000
REMARK  Name = 
REMARK  5 active torsions:
REMARK  status: ('A' for Active; 'I' for Inactive)
REMARK    1  A    between atoms: C_2  and  C_3
REMARK    2  A    between atoms: C_6  and  C_7
REMARK    3  A    between atoms: C_7  and  N_8
REMARK    4  A    between atoms: C_19  and  N_20
REMARK    5  A    between atoms: N_20  and  C_21
REMARK                            x       y       z     vdW  Elec       q    Type
REMARK                         _______ _______ _______ _____ _____    ______ ____
ROOT
ATOM      1  O   UNL     1       1.416   8.066  21.616  0.00  0.00    +0.000 OA
ATOM      2  C   UNL     1       1.500   8.257  20.401  0.00  0.00    +0.000 C 
ATOM      3  N   UNL     1       0.925   9.370  19.784  0.00  0.00    +0.000 N 
ATOM      4  C   UNL     1       0.923   9.714  18.363  0.00  0.00    +0.000 C 
ATOM      5  C   UNL     1       1.870  10.894  18.155  0.00  0.00    +0.000 C 
ATOM      6  C   UNL     1       1.401  12.095  18.977  0.00  0.00    +0.000 C 
ATOM      7  C   UNL     1       1.218  11.750  20.473  0.00  0.00    +0.000 C 
ATOM      8  C   UNL     1       0.385  10.443  20.620  0.00  0.00    +0.000 C 
ENDROOT
BRANCH   2   9
ATOM      9  C   UNL     1       2.224   7.212  19.606  0.00  0.00    +0.000 A 
ATOM     10  C   UNL     1       2.175   5.881  20.036  0.00  0.00    +0.000 A 
ATOM     11  C   UNL     1       2.848   4.878  19.327  0.00  0.00    +0.000 A 
ATOM     12  C   UNL     1       3.569   5.189  18.164  0.00  0.00    +0.000 A 
ATOM     13  C   UNL     1       3.625   6.521  17.747  0.00  0.00    +0.000 A 
ATOM     14  C   UNL     1       3.012   7.523  18.496  0.00  0.00    +0.000 A 
BRANCH  12  15
ATOM     15  C   UNL     1       4.308   4.134  17.379  0.00  0.00    +0.000 C 
BRANCH  15  16
ATOM     16  N   UNL     1       5.733   4.362  17.373  0.00  0.00    +0.000 N 
ATOM     17  C   UNL     1       6.574   4.388  16.308  0.00  0.00    +0.000 A 
ATOM     18  N   UNL     1       7.804   4.496  16.754  0.00  0.00    +0.000 NA
ATOM     19  N   UNL     1       7.705   4.531  18.126  0.00  0.00    +0.000 NA
ATOM     20  N   UNL     1       6.439   4.439  18.513  0.00  0.00    +0.000 NA
ENDBRANCH  15  16
ENDBRANCH  12  15
ENDBRANCH   2   9
BRANCH   7  21
ATOM     21  N   UNL     1       0.529  12.857  21.158  0.00  0.00    +0.000 N 
ATOM     22  H   UNL     1       0.673  13.752  20.694  0.00  0.00    +0.000 HD
BRANCH  21  23
ATOM     23  C   UNL     1      -0.809  12.712  21.541  0.00  0.00    +0.000 A 
ATOM     24  C   UNL     1      -1.214  12.372  22.838  0.00  0.00    +0.000 A 
ATOM     25  C   UNL     1      -2.566  12.304  23.185  0.00  0.00    +0.000 A 
ATOM     26  C   UNL     1      -3.529  12.590  22.234  0.00  0.00    +0.000 A 
ATOM     27  F   UNL     1      -4.826  12.514  22.561  0.00  0.00    +0.000 F 
ATOM     28  C   UNL     1      -3.166  12.968  20.949  0.00  0.00    +0.000 A 
ATOM     29  C   UNL     1      -1.812  13.047  20.613  0.00  0.00    +0.000 A 
ENDBRANCH  21  23
ENDBRANCH   7  21
TORSDOF 5
ENDMDL
MODEL 2
REMARK VINA RESULT:      -8.2      1.691      2.601
REMARK  Name = 
REMARK  5 active torsions:
REMARK  status: ('A' for Active; 'I' for Inactive)
REMARK    1  A    between atoms: C_2  and  C_3
REMARK    2  A    between atoms: C_6  and  C_7
REMARK    3  A    between atoms: C_7  and  N_8
REMARK    4  A    between atoms: C_19  and  N_20
REMARK    5  A    between atoms: N_20  and  C_21
REMARK                            x       y       z     vdW  Elec       q    Type
REMARK                         _______ _______ _______ _____ _____    ______ ____
ROOT
ATOM      1  O   UNL     1       0.658  10.245  18.523  0.00  0.00    +0.000 OA
ATOM      2  C   UNL     1       1.036   9.683  19.553  0.00  0.00    +0.000 C 
ATOM      3  N   UNL     1       0.897  10.273  20.811  0.00  0.00    +0.000 N 
ATOM      4  C   UNL     1       1.314   9.741  22.108  0.00  0.00    +0.000 C 
ATOM      5  C   UNL     1       0.063   9.324  22.879  0.00  0.00    +0.000 C 
ATOM      6  C   UNL     1      -0.852  10.531  23.087  0.00  0.00    +0.000 C 
ATOM      7  C   UNL     1      -1.196  11.245  21.760  0.00  0.00    +0.000 C 
ATOM      8  C   UNL     1       0.102  11.495  20.937  0.00  0.00    +0.000 C 
ENDROOT
BRANCH   2   9
ATOM      9  C   UNL     1       1.685   8.343  19.387  0.00  0.00    +0.000 A 
ATOM     10  C   UNL     1       2.389   8.074  18.207  0.00  0.00    +0.000 A 
ATOM     11  C   UNL     1       3.000   6.829  18.010  0.00  0.00    +0.000 A 
ATOM     12  C   UNL     1       2.931   5.837  19.000  0.00  0.00    +0.000 A 
ATOM     13  C   UNL     1       2.217   6.107  20.170  0.00  0.00    +0.000 A 
ATOM     14  C   UNL     1       1.553   7.320  20.329  0.00  0.00    +0.000 A 
BRANCH  12  15
ATOM     15  C   UNL     1       3.574   4.485  18.817  0.00  0.00    +0.000 C 
BRANCH  15  16
ATOM     16  N   UNL     1       4.959   4.593  18.424  0.00  0.00    +0.000 N 
ATOM     17  C   UNL     1       5.494   4.447  17.185  0.00  0.00    +0.000 A 
ATOM     18  N   UNL     1       6.802   4.496  17.290  0.00  0.00    +0.000 NA
ATOM     19  N   UNL     1       7.065   4.669  18.629  0.00  0.00    +0.000 NA
ATOM     20  N   UNL     1       5.942   4.720  19.333  0.00  0.00    +0.000 NA
ENDBRANCH  15  16
ENDBRANCH  12  15
ENDBRANCH   2   9
BRANCH   7  21
ATOM     21  N   UNL     1      -1.858  12.531  22.043  0.00  0.00    +0.000 N 
ATOM     22  H   UNL     1      -1.802  13.179  21.260  0.00  0.00    +0.000 HD
BRANCH  21  23
ATOM     23  C   UNL     1      -3.142  12.543  22.601  0.00  0.00    +0.000 A 
ATOM     24  C   UNL     1      -3.395  12.412  23.972  0.00  0.00    +0.000 A 
ATOM     25  C   UNL     1      -4.692  12.497  24.486  0.00  0.00    +0.000 A 
ATOM     26  C   UNL     1      -5.751  12.728  23.626  0.00  0.00    +0.000 A 
ATOM     27  F   UNL     1      -6.996  12.799  24.114  0.00  0.00    +0.000 F 
ATOM     28  C   UNL     1      -5.535  12.901  22.266  0.00  0.00    +0.000 A 
ATOM     29  C   UNL     1      -4.234  12.828  21.762  0.00  0.00    +0.000 A 
ENDBRANCH  21  23
ENDBRANCH   7  21
TORSDOF 5
ENDMDL
MODEL 3
REMARK VINA RESULT:      -8.2      4.122     10.319
REMARK  Name = 
REMARK  5 active torsions:
REMARK  status: ('A' for Active; 'I' for Inactive)
REMARK    1  A    between atoms: C_2  and  C_3
REMARK    2  A    between atoms: C_6  and  C_7
REMARK    3  A    between atoms: C_7  and  N_8
REMARK    4  A    between atoms: C_19  and  N_20
REMARK    5  A    between atoms: N_20  and  C_21
REMARK                            x       y       z     vdW  Elec       q    Type
REMARK                         _______ _______ _______ _____ _____    ______ ____
ROOT
ATOM      1  O   UNL     1       1.129  12.100  21.565  0.00  0.00    +0.000 OA
ATOM      2  C   UNL     1       0.074  12.113  20.929  0.00  0.00    +0.000 C 
ATOM      3  N   UNL     1       0.020  11.770  19.576  0.00  0.00    +0.000 N 
ATOM      4  C   UNL     1      -1.145  11.761  18.693  0.00  0.00    +0.000 C 
ATOM      5  C   UNL     1      -1.522  10.308  18.412  0.00  0.00    +0.000 C 
ATOM      6  C   UNL     1      -0.357   9.585  17.736  0.00  0.00    +0.000 C 
ATOM      7  C   UNL     1       0.957   9.702  18.542  0.00  0.00    +0.000 C 
ATOM      8  C   UNL     1       1.204  11.185  18.946  0.00  0.00    +0.000 C 
ENDROOT
BRANCH   2   9
ATOM      9  C   UNL     1      -1.153  12.550  21.672  0.00  0.00    +0.000 A 
ATOM     10  C   UNL     1      -1.673  13.826  21.426  0.00  0.00    +0.000 A 
ATOM     11  C   UNL     1      -2.811  14.275  22.109  0.00  0.00    +0.000 A 
ATOM     12  C   UNL     1      -3.457  13.446  23.038  0.00  0.00    +0.000 A 
ATOM     13  C   UNL     1      -2.927  12.178  23.288  0.00  0.00    +0.000 A 
ATOM     14  C   UNL     1      -1.755  11.766  22.658  0.00  0.00    +0.000 A 
BRANCH  12  15
ATOM     15  C   UNL     1      -4.682  13.900  23.793  0.00  0.00    +0.000 C 
BRANCH  15  16
ATOM     16  N   UNL     1      -5.829  13.068  23.515  0.00  0.00    +0.000 N 
ATOM     17  C   UNL     1      -6.747  13.207  22.526  0.00  0.00    +0.000 A 
ATOM     18  N   UNL     1      -7.694  12.317  22.711  0.00  0.00    +0.000 NA
ATOM     19  N   UNL     1      -7.342  11.625  23.846  0.00  0.00    +0.000 NA
ATOM     20  N   UNL     1      -6.205  12.085  24.351  0.00  0.00    +0.000 NA
ENDBRANCH  15  16
ENDBRANCH  12  15
ENDBRANCH   2   9
BRANCH   7  21
ATOM     21  N   UNL     1       2.085   9.215  17.729  0.00  0.00    +0.000 N 
ATOM     22  H   UNL     1       2.791   9.933  17.572  0.00  0.00    +0.000 HD
BRANCH  21  23
ATOM     23  C   UNL     1       2.689   7.992  18.040  0.00  0.00    +0.000 A 
ATOM     24  C   UNL     1       3.786   7.467  17.345  0.00  0.00    +0.000 A 
ATOM     25  C   UNL     1       4.394   6.272  17.738  0.00  0.00    +0.000 A 
ATOM     26  C   UNL     1       3.914   5.595  18.845  0.00  0.00    +0.000 A 
ATOM     27  F   UNL     1       4.488   4.443  19.217  0.00  0.00    +0.000 F 
ATOM     28  C   UNL     1       2.854   6.103  19.581  0.00  0.00    +0.000 A 
ATOM     29  C   UNL     1       2.259   7.306  19.190  0.00  0.00    +0.000 A 
ENDBRANCH  21  23
ENDBRANCH   7  21
TORSDOF 5
ENDMDL
MODEL 4
REMARK VINA RESULT:      -8.1      3.795      9.955
REMARK  Name = 
REMARK  5 active torsions:
REMARK  status: ('A' for Active; 'I' for Inactive)
REMARK    1  A    between atoms: C_2  and  C_3
REMARK    2  A    between atoms: C_6  and  C_7
REMARK    3  A    between atoms: C_7  and  N_8
REMARK    4  A    between atoms: C_19  and  N_20
REMARK    5  A    between atoms: N_20  and  C_21
REMARK                            x       y       z     vdW  Elec       q    Type
REMARK                         _______ _______ _______ _____ _____    ______ ____
ROOT
ATOM      1  O   UNL     1       3.296   7.992  17.346  0.00  0.00    +0.000 OA
ATOM      2  C   UNL     1       2.590   7.448  18.199  0.00  0.00    +0.000 C 
ATOM      3  N   UNL     1       2.552   6.061  18.354  0.00  0.00    +0.000 N 
ATOM      4  C   UNL     1       1.754   5.281  19.298  0.00  0.00    +0.000 C 
ATOM      5  C   UNL     1       2.688   4.728  20.373  0.00  0.00    +0.000 C 
ATOM      6  C   UNL     1       3.752   3.835  19.735  0.00  0.00    +0.000 C 
ATOM      7  C   UNL     1       4.524   4.552  18.604  0.00  0.00    +0.000 C 
ATOM      8  C   UNL     1       3.523   5.240  17.630  0.00  0.00    +0.000 C 
ENDROOT
BRANCH   2   9
ATOM      9  C   UNL     1       1.743   8.351  19.044  0.00  0.00    +0.000 A 
ATOM     10  C   UNL     1       1.060   9.407  18.429  0.00  0.00    +0.000 A 
ATOM     11  C   UNL     1       0.267  10.279  19.186  0.00  0.00    +0.000 A 
ATOM     12  C   UNL     1       0.133  10.099  20.571  0.00  0.00    +0.000 A 
ATOM     13  C   UNL     1       0.828   9.051  21.181  0.00  0.00    +0.000 A 
ATOM     14  C   UNL     1       1.669   8.232  20.433  0.00  0.00    +0.000 A 
BRANCH  12  15
ATOM     15  C   UNL     1      -0.709  11.022  21.416  0.00  0.00    +0.000 C 
BRANCH  15  16
ATOM     16  N   UNL     1      -0.012  12.244  21.742  0.00  0.00    +0.000 N 
ATOM     17  C   UNL     1      -0.493  13.339  22.384  0.00  0.00    +0.000 A 
ATOM     18  N   UNL     1       0.429  14.272  22.359  0.00  0.00    +0.000 NA
ATOM     19  N   UNL     1       1.495  13.730  21.679  0.00  0.00    +0.000 NA
ATOM     20  N   UNL     1       1.229  12.490  21.289  0.00  0.00    +0.000 NA
ENDBRANCH  15  16
ENDBRANCH  12  15
ENDBRANCH   2   9
BRANCH   7  21
ATOM     21  N   UNL     1       5.345   3.577  17.865  0.00  0.00    +0.000 N 
ATOM     22  H   UNL     1       4.894   2.668  17.788  0.00  0.00    +0.000 HD
BRANCH  21  23
ATOM     23  C   UNL     1       5.929   3.942  16.647  0.00  0.00    +0.000 A 
ATOM     24  C   UNL     1       5.446   3.528  15.399  0.00  0.00    +0.000 A 
ATOM     25  C   UNL     1       6.026   3.975  14.208  0.00  0.00    +0.000 A 
ATOM     26  C   UNL     1       7.091   4.856  14.258  0.00  0.00    +0.000 A 
ATOM     27  F   UNL     1       7.656   5.277  13.119  0.00  0.00    +0.000 F 
ATOM     28  C   UNL     1       7.572   5.319  15.475  0.00  0.00    +0.000 A 
ATOM     29  C   UNL     1       6.978   4.878  16.660  0.00  0.00    +0.000 A 
ENDBRANCH  21  23
ENDBRANCH   7  21
TORSDOF 5
ENDMDL
MODEL 5
REMARK VINA RESULT:      -8.1      4.126     10.230
REMARK  Name = 
REMARK  5 active torsions:
REMARK  status: ('A' for Active; 'I' for Inactive)
REMARK    1  A    between atoms: C_2  and  C_3
REMARK    2  A    between atoms: C_6  and  C_7
REMARK    3  A    between atoms: C_7  and  N_8
REMARK    4  A    between atoms: C_19  and  N_20
REMARK    5  A    between atoms: N_20  and  C_21
REMARK                            x       y       z     vdW  Elec       q    Type
REMARK                         _______ _______ _______ _____ _____    ______ ____
ROOT
ATOM      1  O   UNL     1       1.250  12.287  21.469  0.00  0.00    +0.000 OA
ATOM      2  C   UNL     1       0.187  12.232  20.846  0.00  0.00    +0.000 C 
ATOM      3  N   UNL     1       0.130  11.815  19.514  0.00  0.00    +0.000 N 
ATOM      4  C   UNL     1      -1.045  11.721  18.649  0.00  0.00    +0.000 C 
ATOM      5  C   UNL     1      -1.376  10.243  18.451  0.00  0.00    +0.000 C 
ATOM      6  C   UNL     1      -0.196   9.522  17.800  0.00  0.00    +0.000 C 
ATOM      7  C   UNL     1       1.123   9.725  18.581  0.00  0.00    +0.000 C 
ATOM      8  C   UNL     1       1.325  11.235  18.901  0.00  0.00    +0.000 C 
ENDROOT
BRANCH   2   9
ATOM      9  C   UNL     1      -1.044  12.668  21.581  0.00  0.00    +0.000 A 
ATOM     10  C   UNL     1      -1.643  11.780  22.483  0.00  0.00    +0.000 A 
ATOM     11  C   UNL     1      -2.801  12.146  23.180  0.00  0.00    +0.000 A 
ATOM     12  C   UNL     1      -3.371  13.416  22.997  0.00  0.00    +0.000 A 
ATOM     13  C   UNL     1      -2.777  14.292  22.087  0.00  0.00    +0.000 A 
ATOM     14  C   UNL     1      -1.667  13.895  21.345  0.00  0.00    +0.000 A 
BRANCH  12  15
ATOM     15  C   UNL     1      -4.620  13.840  23.729  0.00  0.00    +0.000 C 
BRANCH  15  16
ATOM     16  N   UNL     1      -5.726  12.948  23.476  0.00  0.00    +0.000 N 
ATOM     17  C   UNL     1      -6.483  12.846  22.355  0.00  0.00    +0.000 A 
ATOM     18  N   UNL     1      -7.462  12.004  22.590  0.00  0.00    +0.000 NA
ATOM     19  N   UNL     1      -7.296  11.589  23.891  0.00  0.00    +0.000 NA
ATOM     20  N   UNL     1      -6.240  12.170  24.445  0.00  0.00    +0.000 NA
ENDBRANCH  15  16
ENDBRANCH  12  15
ENDBRANCH   2   9
BRANCH   7  21
ATOM     21  N   UNL     1       2.257   9.232  17.780  0.00  0.00    +0.000 N 
ATOM     22  H   UNL     1       2.971   9.944  17.636  0.00  0.00    +0.000 HD
BRANCH  21  23
ATOM     23  C   UNL     1       2.845   8.001  18.093  0.00  0.00    +0.000 A 
ATOM     24  C   UNL     1       2.438   7.196  19.164  0.00  0.00    +0.000 A 
ATOM     25  C   UNL     1       3.015   5.943  19.393  0.00  0.00    +0.000 A 
ATOM     26  C   UNL     1       4.000   5.480  18.540  0.00  0.00    +0.000 A 
ATOM     27  F   UNL     1       4.562   4.285  18.764  0.00  0.00    +0.000 F 
ATOM     28  C   UNL     1       4.402   6.233  17.446  0.00  0.00    +0.000 A 
ATOM     29  C   UNL     1       3.812   7.478  17.215  0.00  0.00    +0.000 A 
ENDBRANCH  21  23
ENDBRANCH   7  21
TORSDOF 5
ENDMDL
MODEL 6
REMARK VINA RESULT:      -8.0      4.020     10.224
REMARK  Name = 
REMARK  5 active torsions:
REMARK  status: ('A' for Active; 'I' for Inactive)
REMARK    1  A    between atoms: C_2  and  C_3
REMARK    2  A    between atoms: C_6  and  C_7
REMARK    3  A    between atoms: C_7  and  N_8
REMARK    4  A    between atoms: C_19  and  N_20
REMARK    5  A    between atoms: N_20  and  C_21
REMARK                            x       y       z     vdW  Elec       q    Type
REMARK                         _______ _______ _______ _____ _____    ______ ____
ROOT
ATOM      1  O   UNL     1       1.254  12.169  21.538  0.00  0.00    +0.000 OA
ATOM      2  C   UNL     1       0.194  12.209  20.909  0.00  0.00    +0.000 C 
ATOM      3  N   UNL     1       0.120  11.853  19.560  0.00  0.00    +0.000 N 
ATOM      4  C   UNL     1      -1.053  11.871  18.687  0.00  0.00    +0.000 C 
ATOM      5  C   UNL     1      -1.477  10.427  18.425  0.00  0.00    +0.000 C 
ATOM      6  C   UNL     1      -0.340   9.660  17.749  0.00  0.00    +0.000 C 
ATOM      7  C   UNL     1       0.983   9.745  18.543  0.00  0.00    +0.000 C 
ATOM      8  C   UNL     1       1.279  11.224  18.928  0.00  0.00    +0.000 C 
ENDROOT
BRANCH   2   9
ATOM      9  C   UNL     1      -1.012  12.692  21.656  0.00  0.00    +0.000 A 
ATOM     10  C   UNL     1      -1.685  11.801  22.501  0.00  0.00    +0.000 A 
ATOM     11  C   UNL     1      -2.823  12.211  23.207  0.00  0.00    +0.000 A 
ATOM     12  C   UNL     1      -3.297  13.527  23.092  0.00  0.00    +0.000 A 
ATOM     13  C   UNL     1      -2.628  14.408  22.238  0.00  0.00    +0.000 A 
ATOM     14  C   UNL     1      -1.540  13.973  21.486  0.00  0.00    +0.000 A 
BRANCH  12  15
ATOM     15  C   UNL     1      -4.521  14.000  23.836  0.00  0.00    +0.000 C 
BRANCH  15  16
ATOM     16  N   UNL     1      -5.677  13.185  23.550  0.00  0.00    +0.000 N 
ATOM     17  C   UNL     1      -6.445  12.482  24.420  0.00  0.00    +0.000 A 
ATOM     18  N   UNL     1      -7.312  11.776  23.731  0.00  0.00    +0.000 NA
ATOM     19  N   UNL     1      -7.058  12.056  22.409  0.00  0.00    +0.000 NA
ATOM     20  N   UNL     1      -6.051  12.910  22.288  0.00  0.00    +0.000 NA
ENDBRANCH  15  16
ENDBRANCH  12  15
ENDBRANCH   2   9
BRANCH   7  21
ATOM     21  N   UNL     1       2.089   9.214  17.727  0.00  0.00    +0.000 N 
ATOM     22  H   UNL     1       2.804   9.913  17.537  0.00  0.00    +0.000 HD
BRANCH  21  23
ATOM     23  C   UNL     1       2.676   7.990  18.066  0.00  0.00    +0.000 A 
ATOM     24  C   UNL     1       3.722   7.403  17.342  0.00  0.00    +0.000 A 
ATOM     25  C   UNL     1       4.319   6.210  17.760  0.00  0.00    +0.000 A 
ATOM     26  C   UNL     1       3.880   5.599  18.921  0.00  0.00    +0.000 A 
ATOM     27  F   UNL     1       4.442   4.451  19.318  0.00  0.00    +0.000 F 
ATOM     28  C   UNL     1       2.872   6.171  19.685  0.00  0.00    +0.000 A 
ATOM     29  C   UNL     1       2.289   7.370  19.267  0.00  0.00    +0.000 A 
ENDBRANCH  21  23
ENDBRANCH   7  21
TORSDOF 5
ENDMDL
MODEL 7
REMARK VINA RESULT:      -8.0      1.712      2.733
REMARK  Name = 
REMARK  5 active torsions:
REMARK  status: ('A' for Active; 'I' for Inactive)
REMARK    1  A    between atoms: C_2  and  C_3
REMARK    2  A    between atoms: C_6  and  C_7
REMARK    3  A    between atoms: C_7  and  N_8
REMARK    4  A    between atoms: C_19  and  N_20
REMARK    5  A    between atoms: N_20  and  C_21
REMARK                            x       y       z     vdW  Elec       q    Type
REMARK                         _______ _______ _______ _____ _____    ______ ____
ROOT
ATOM      1  O   UNL     1       0.784  10.257  18.289  0.00  0.00    +0.000 OA
ATOM      2  C   UNL     1       1.161   9.729  19.337  0.00  0.00    +0.000 C 
ATOM      3  N   UNL     1       0.980  10.339  20.580  0.00  0.00    +0.000 N 
ATOM      4  C   UNL     1       1.391   9.847  21.895  0.00  0.00    +0.000 C 
ATOM      5  C   UNL     1       0.141   9.404  22.653  0.00  0.00    +0.000 C 
ATOM      6  C   UNL     1      -0.818  10.583  22.819  0.00  0.00    +0.000 C 
ATOM      7  C   UNL     1      -1.161  11.259  21.471  0.00  0.00    +0.000 C 
ATOM      8  C   UNL     1       0.143  11.536  20.667  0.00  0.00    +0.000 C 
ENDROOT
BRANCH   2   9
ATOM      9  C   UNL     1       1.859   8.408  19.211  0.00  0.00    +0.000 A 
ATOM     10  C   UNL     1       2.660   8.172  18.087  0.00  0.00    +0.000 A 
ATOM     11  C   UNL     1       3.319   6.946  17.927  0.00  0.00    +0.000 A 
ATOM     12  C   UNL     1       3.199   5.941  18.900  0.00  0.00    +0.000 A 
ATOM     13  C   UNL     1       2.388   6.178  20.012  0.00  0.00    +0.000 A 
ATOM     14  C   UNL     1       1.680   7.371  20.129  0.00  0.00    +0.000 A 
BRANCH  12  15
ATOM     15  C   UNL     1       3.891   4.608  18.756  0.00  0.00    +0.000 C 
BRANCH  15  16
ATOM     16  N   UNL     1       5.324   4.751  18.659  0.00  0.00    +0.000 N 
ATOM     17  C   UNL     1       6.133   4.414  17.622  0.00  0.00    +0.000 A 
ATOM     18  N   UNL     1       7.380   4.587  17.995  0.00  0.00    +0.000 NA
ATOM     19  N   UNL     1       7.324   5.035  19.295  0.00  0.00    +0.000 NA
ATOM     20  N   UNL     1       6.068   5.128  19.712  0.00  0.00    +0.000 NA
ENDBRANCH  15  16
ENDBRANCH  12  15
ENDBRANCH   2   9
BRANCH   7  21
ATOM     21  N   UNL     1      -1.871  12.526  21.717  0.00  0.00    +0.000 N 
ATOM     22  H   UNL     1      -1.349  13.335  21.386  0.00  0.00    +0.000 HD
BRANCH  21  23
ATOM     23  C   UNL     1      -3.224  12.642  21.377  0.00  0.00    +0.000 A 
ATOM     24  C   UNL     1      -3.712  12.507  20.071  0.00  0.00    +0.000 A 
ATOM     25  C   UNL     1      -5.081  12.565  19.795  0.00  0.00    +0.000 A 
ATOM     26  C   UNL     1      -5.978  12.747  20.832  0.00  0.00    +0.000 A 
ATOM     27  F   UNL     1      -7.289  12.815  20.569  0.00  0.00    +0.000 F 
ATOM     28  C   UNL     1      -5.535  12.847  22.143  0.00  0.00    +0.000 A 
ATOM     29  C   UNL     1      -4.166  12.774  22.413  0.00  0.00    +0.000 A 
ENDBRANCH  21  23
ENDBRANCH   7  21
TORSDOF 5
ENDMDL
MODEL 8
REMARK VINA RESULT:      -7.9      3.738      9.874
REMARK  Name = 
REMARK  5 active torsions:
REMARK  status: ('A' for Active; 'I' for Inactive)
REMARK    1  A    between atoms: C_2  and  C_3
REMARK    2  A    between atoms: C_6  and  C_7
REMARK    3  A    between atoms: C_7  and  N_8
REMARK    4  A    between atoms: C_19  and  N_20
REMARK    5  A    between atoms: N_20  and  C_21
REMARK                            x       y       z     vdW  Elec       q    Type
REMARK                         _______ _______ _______ _____ _____    ______ ____
ROOT
ATOM      1  O   UNL     1       3.254   8.161  17.787  0.00  0.00    +0.000 OA
ATOM      2  C   UNL     1       2.467   7.617  18.564  0.00  0.00    +0.000 C 
ATOM      3  N   UNL     1       2.373   6.228  18.671  0.00  0.00    +0.000 N 
ATOM      4  C   UNL     1       1.480   5.447  19.526  0.00  0.00    +0.000 C 
ATOM      5  C   UNL     1       2.310   4.831  20.650  0.00  0.00    +0.000 C 
ATOM      6  C   UNL     1       3.392   3.921  20.066  0.00  0.00    +0.000 C 
ATOM      7  C   UNL     1       4.270   4.646  19.021  0.00  0.00    +0.000 C 
ATOM      8  C   UNL     1       3.370   5.396  17.996  0.00  0.00    +0.000 C 
ENDROOT
BRANCH   2   9
ATOM      9  C   UNL     1       1.587   8.523  19.372  0.00  0.00    +0.000 A 
ATOM     10  C   UNL     1       1.525   8.344  20.759  0.00  0.00    +0.000 A 
ATOM     11  C   UNL     1       0.705   9.162  21.547  0.00  0.00    +0.000 A 
ATOM     12  C   UNL     1      -0.054  10.185  20.959  0.00  0.00    +0.000 A 
ATOM     13  C   UNL     1       0.002  10.351  19.573  0.00  0.00    +0.000 A 
ATOM     14  C   UNL     1       0.764   9.488  18.789  0.00  0.00    +0.000 A 
BRANCH  12  15
ATOM     15  C   UNL     1      -0.950  11.082  21.778  0.00  0.00    +0.000 C 
BRANCH  15  16
ATOM     16  N   UNL     1      -0.326  12.350  22.071  0.00  0.00    +0.000 N 
ATOM     17  C   UNL     1      -0.863  13.424  22.703  0.00  0.00    +0.000 A 
ATOM     18  N   UNL     1      -0.001  14.413  22.645  0.00  0.00    +0.000 NA
ATOM     19  N   UNL     1       1.084  13.925  21.954  0.00  0.00    +0.000 NA
ATOM     20  N   UNL     1       0.889  12.665  21.590  0.00  0.00    +0.000 NA
ENDBRANCH  15  16
ENDBRANCH  12  15
ENDBRANCH   2   9
BRANCH   7  21
ATOM     21  N   UNL     1       5.114   3.666  18.315  0.00  0.00    +0.000 N 
ATOM     22  H   UNL     1       4.669   2.753  18.236  0.00  0.00    +0.000 HD
BRANCH  21  23
ATOM     23  C   UNL     1       5.728   4.019  17.108  0.00  0.00    +0.000 A 
ATOM     24  C   UNL     1       5.230   3.661  15.849  0.00  0.00    +0.000 A 
ATOM     25  C   UNL     1       5.845   4.096  14.671  0.00  0.00    +0.000 A 
ATOM     26  C   UNL     1       6.962   4.908  14.746  0.00  0.00    +0.000 A 
ATOM     27  F   UNL     1       7.559   5.317  13.619  0.00  0.00    +0.000 F 
ATOM     28  C   UNL     1       7.461   5.315  15.975  0.00  0.00    +0.000 A 
ATOM     29  C   UNL     1       6.834   4.888  17.147  0.00  0.00    +0.000 A 
ENDBRANCH  21  23
ENDBRANCH   7  21
TORSDOF 5
ENDMDL
MODEL 9
REMARK VINA RESULT:      -7.9      3.967     10.210
REMARK  Name = 
REMARK  5 active torsions:
REMARK  status: ('A' for Active; 'I' for Inactive)
REMARK    1  A    between atoms: C_2  and  C_3
REMARK    2  A    between atoms: C_6  and  C_7
REMARK    3  A    between atoms: C_7  and  N_8
REMARK    4  A    between atoms: C_19  and  N_20
REMARK    5  A    between atoms: N_20  and  C_21
REMARK                            x       y       z     vdW  Elec       q    Type
REMARK                         _______ _______ _______ _____ _____    ______ ____
ROOT
ATOM      1  O   UNL     1      -0.273   9.149  22.870  0.00  0.00    +0.000 OA
ATOM      2  C   UNL     1      -0.203  10.025  22.005  0.00  0.00    +0.000 C 
ATOM      3  N   UNL     1       0.818  10.044  21.052  0.00  0.00    +0.000 N 
ATOM      4  C   UNL     1       1.041  11.023  19.990  0.00  0.00    +0.000 C 
ATOM      5  C   UNL     1       0.687  10.371  18.655  0.00  0.00    +0.000 C 
ATOM      6  C   UNL     1       1.568   9.143  18.420  0.00  0.00    +0.000 C 
ATOM      7  C   UNL     1       1.507   8.140  19.595  0.00  0.00    +0.000 C 
ATOM      8  C   UNL     1       1.709   8.889  20.945  0.00  0.00    +0.000 C 
ENDROOT
BRANCH   2   9
ATOM      9  C   UNL     1      -1.252  11.096  22.046  0.00  0.00    +0.000 A 
ATOM     10  C   UNL     1      -1.794  11.462  23.284  0.00  0.00    +0.000 A 
ATOM     11  C   UNL     1      -2.785  12.450  23.363  0.00  0.00    +0.000 A 
ATOM     12  C   UNL     1      -3.237  13.099  22.203  0.00  0.00    +0.000 A 
ATOM     13  C   UNL     1      -2.701  12.720  20.970  0.00  0.00    +0.000 A 
ATOM     14  C   UNL     1      -1.768  11.688  20.893  0.00  0.00    +0.000 A 
BRANCH  12  15
ATOM     15  C   UNL     1      -4.304  14.164  22.253  0.00  0.00    +0.000 C 
BRANCH  15  16
ATOM     16  N   UNL     1      -5.565  13.645  22.727  0.00  0.00    +0.000 N 
ATOM     17  C   UNL     1      -6.356  14.135  23.716  0.00  0.00    +0.000 A 
ATOM     18  N   UNL     1      -7.342  13.291  23.914  0.00  0.00    +0.000 NA
ATOM     19  N   UNL     1      -7.139  12.260  23.026  0.00  0.00    +0.000 NA
ATOM     20  N   UNL     1      -6.046  12.464  22.302  0.00  0.00    +0.000 NA
ENDBRANCH  15  16
ENDBRANCH  12  15
ENDBRANCH   2   9
BRANCH   7  21
ATOM     21  N   UNL     1       2.557   7.119  19.432  0.00  0.00    +0.000 N 
ATOM     22  H   UNL     1       3.324   7.240  20.092  0.00  0.00    +0.000 HD
BRANCH  21  23
ATOM     23  C   UNL     1       2.203   5.769  19.332  0.00  0.00    +0.000 A 
ATOM     24  C   UNL     1       1.708   5.014  20.402  0.00  0.00    +0.000 A 
ATOM     25  C   UNL     1       1.307   3.685  20.232  0.00  0.00    +0.000 A 
ATOM     26  C   UNL     1       1.386   3.104  18.980  0.00  0.00    +0.000 A 
ATOM     27  F   UNL     1       1.013   1.828  18.817  0.00  0.00    +0.000 F 
ATOM     28  C   UNL     1       1.836   3.833  17.888  0.00  0.00    +0.000 A 
ATOM     29  C   UNL     1       2.222   5.164  18.062  0.00  0.00    +0.000 A 
ENDBRANCH  21  23
ENDBRANCH   7  21
TORSDOF 5
ENDMDL
