MODEL 1
REMARK VINA RESULT:      -8.5      0.000      0.000
REMARK  Name = 
REMARK  7 active torsions:
REMARK  status: ('A' for Active; 'I' for Inactive)
REMARK    1  A    between atoms: C_2  and  C_23
REMARK    2  A    between atoms: N_3  and  C_4
REMARK    3  A    between atoms: N_7  and  C_8
REMARK    4  A    between atoms: C_8  and  C_9
REMARK    5  A    between atoms: C_9  and  C_10
REMARK    6  A    between atoms: C_13  and  O_14
REMARK    7  A    between atoms: O_14  and  C_15
REMARK                            x       y       z     vdW  Elec       q    Type
REMARK                         _______ _______ _______ _____ _____    ______ ____
ROOT
ATOM      1  C   UNL     1       2.618   2.830  18.537  0.00  0.00    +0.000 C 
ATOM      2  C   UNL     1       3.335   2.679  19.871  0.00  0.00    +0.000 C 
ATOM      3  C   UNL     1       2.246   3.025  20.871  0.00  0.00    +0.000 C 
ATOM      4  N   UNL     1       1.526   4.161  20.269  0.00  0.00    +0.000 NA
ATOM      5  C   UNL     1       1.508   3.862  18.818  0.00  0.00    +0.000 C 
ENDROOT
BRANCH   1   8
ATOM      6  O   UNL     1       5.089   4.155  18.829  0.00  0.00    +0.000 OA
ATOM      7  C   UNL     1       4.694   3.869  17.705  0.00  0.00    +0.000 C 
ATOM      8  N   UNL     1       3.520   3.192  17.454  0.00  0.00    +0.000 N 
ATOM      9  H   UNL     1       3.328   2.838  16.526  0.00  0.00    +0.000 HD
BRANCH   7  10
ATOM     10  C   UNL     1       5.519   4.219  16.515  0.00  0.00    +0.000 A 
ATOM     11  C   UNL     1       6.724   4.915  16.642  0.00  0.00    +0.000 A 
ATOM     12  C   UNL     1       7.478   5.221  15.503  0.00  0.00    +0.000 A 
ATOM     13  C   UNL     1       7.031   4.830  14.238  0.00  0.00    +0.000 A 
ATOM     14 CL   UNL     1       8.007   5.256  12.877  0.00  0.00    +0.000 Cl
ATOM     15  C   UNL     1       5.835   4.114  14.112  0.00  0.00    +0.000 A 
ATOM     16 CL   UNL     1       5.227   3.594  12.581  0.00  0.00    +0.000 Cl
ATOM     17  C   UNL     1       5.082   3.804  15.250  0.00  0.00    +0.000 A 
ENDBRANCH   7  10
ENDBRANCH   1   8
BRANCH   4  18
ATOM     18  C   UNL     1       2.204   5.439  20.563  0.00  0.00    +0.000 C 
BRANCH  18  19
ATOM     19  C   UNL     1       2.556   6.242  19.295  0.00  0.00    +0.000 C 
BRANCH  19  20
ATOM     20  C   UNL     1       1.996   7.642  19.360  0.00  0.00    +0.000 A 
ATOM     21  C   UNL     1       2.049   8.468  18.230  0.00  0.00    +0.000 A 
ATOM     22  C   UNL     1       1.513   9.756  18.268  0.00  0.00    +0.000 A 
ATOM     23  C   UNL     1       0.889  10.217  19.425  0.00  0.00    +0.000 A 
ATOM     24  C   UNL     1       0.884   9.420  20.571  0.00  0.00    +0.000 A 
ATOM     25  C   UNL     1       1.431   8.136  20.539  0.00  0.00    +0.000 A 
BRANCH  23  26
ATOM     26  O   UNL     1       0.248  11.421  19.546  0.00  0.00    +0.000 OA
BRANCH  26  27
ATOM     27  C   UNL     1      -1.148  11.365  19.837  0.00  0.00    +0.000 C 
ATOM     28  C   UNL     1      -1.677  12.620  20.522  0.00  0.00    +0.000 C 
ATOM     29  C   UNL     1      -3.134  12.610  20.130  0.00  0.00    +0.000 C 
ATOM     30  N   UNL     1      -3.115  12.253  18.707  0.00  0.00    +0.000 NA
ATOM     31  C   UNL     1      -1.960  11.345  18.533  0.00  0.00    +0.000 C 
ATOM     32  H   UNL     1      -2.927  13.102  18.170  0.00  0.00    +0.000 HD
ENDBRANCH  26  27
ENDBRANCH  23  26
ENDBRANCH  19  20
ENDBRANCH  18  19
ENDBRANCH   4  18
TORSDOF 7
ENDMDL
MODEL 2
REMARK VINA RESULT:      -8.3      0.483      1.019
REMARK  Name = 
REMARK  7 active torsions:
REMARK  status: ('A' for Active; 'I' for Inactive)
REMARK    1  A    between atoms: C_2  and  C_23
REMARK    2  A    between atoms: N_3  and  C_4
REMARK    3  A    between atoms: N_7  and  C_8
REMARK    4  A    between atoms: C_8  and  C_9
REMARK    5  A    between atoms: C_9  and  C_10
REMARK    6  A    between atoms: C_13  and  O_14
REMARK    7  A    between atoms: O_14  and  C_15
REMARK                            x       y       z     vdW  Elec       q    Type
REMARK                         _______ _______ _______ _____ _____    ______ ____
ROOT
ATOM      1  C   UNL     1       2.819   2.788  18.824  0.00  0.00    +0.000 C 
ATOM      2  C   UNL     1       3.589   2.706  20.135  0.00  0.00    +0.000 C 
ATOM      3  C   UNL     1       2.517   3.012  21.166  0.00  0.00    +0.000 C 
ATOM      4  N   UNL     1       1.713   4.093  20.568  0.00  0.00    +0.000 NA
ATOM      5  C   UNL     1       1.663   3.762  19.125  0.00  0.00    +0.000 C 
ENDROOT
BRANCH   1   8
ATOM      6  O   UNL     1       5.359   3.995  19.018  0.00  0.00    +0.000 OA
ATOM      7  C   UNL     1       4.878   3.791  17.910  0.00  0.00    +0.000 C 
ATOM      8  N   UNL     1       3.661   3.177  17.704  0.00  0.00    +0.000 N 
ATOM      9  H   UNL     1       3.392   2.886  16.773  0.00  0.00    +0.000 HD
BRANCH   7  10
ATOM     10  C   UNL     1       5.636   4.177  16.687  0.00  0.00    +0.000 A 
ATOM     11  C   UNL     1       6.832   4.895  16.767  0.00  0.00    +0.000 A 
ATOM     12  C   UNL     1       7.523   5.235  15.598  0.00  0.00    +0.000 A 
ATOM     13  C   UNL     1       7.021   4.855  14.349  0.00  0.00    +0.000 A 
ATOM     14 CL   UNL     1       7.920   5.323  12.950  0.00  0.00    +0.000 Cl
ATOM     15  C   UNL     1       5.834   4.118  14.270  0.00  0.00    +0.000 A 
ATOM     16 CL   UNL     1       5.162   3.611  12.762  0.00  0.00    +0.000 Cl
ATOM     17  C   UNL     1       5.145   3.774  15.439  0.00  0.00    +0.000 A 
ENDBRANCH   7  10
ENDBRANCH   1   8
BRANCH   4  18
ATOM     18  C   UNL     1       2.328   5.413  20.813  0.00  0.00    +0.000 C 
BRANCH  18  19
ATOM     19  C   UNL     1       2.776   6.121  19.520  0.00  0.00    +0.000 C 
BRANCH  19  20
ATOM     20  C   UNL     1       2.130   7.479  19.386  0.00  0.00    +0.000 A 
ATOM     21  C   UNL     1       1.493   8.061  20.488  0.00  0.00    +0.000 A 
ATOM     22  C   UNL     1       0.913   9.326  20.386  0.00  0.00    +0.000 A 
ATOM     23  C   UNL     1       0.994  10.034  19.189  0.00  0.00    +0.000 A 
ATOM     24  C   UNL     1       1.578   9.436  18.071  0.00  0.00    +0.000 A 
ATOM     25  C   UNL     1       2.147   8.165  18.168  0.00  0.00    +0.000 A 
BRANCH  23  26
ATOM     26  O   UNL     1       0.547  11.315  19.002  0.00  0.00    +0.000 OA
BRANCH  26  27
ATOM     27  C   UNL     1      -0.530  11.736  19.838  0.00  0.00    +0.000 C 
ATOM     28  C   UNL     1      -0.541  13.237  20.105  0.00  0.00    +0.000 C 
ATOM     29  C   UNL     1      -2.000  13.500  20.391  0.00  0.00    +0.000 C 
ATOM     30  N   UNL     1      -2.707  12.722  19.367  0.00  0.00    +0.000 NA
ATOM     31  C   UNL     1      -1.871  11.528  19.118  0.00  0.00    +0.000 C 
ATOM     32  H   UNL     1      -2.726  13.274  18.508  0.00  0.00    +0.000 HD
ENDBRANCH  26  27
ENDBRANCH  23  26
ENDBRANCH  19  20
ENDBRANCH  18  19
ENDBRANCH   4  18
TORSDOF 7
ENDMDL
MODEL 3
REMARK VINA RESULT:      -8.3      1.565      2.128
REMARK  Name = 
REMARK  7 active torsions:
REMARK  status: ('A' for Active; 'I' for Inactive)
REMARK    1  A    between atoms: C_2  and  C_23
REMARK    2  A    between atoms: N_3  and  C_4
REMARK    3  A    between atoms: N_7  and  C_8
REMARK    4  A    between atoms: C_8  and  C_9
REMARK    5  A    between atoms: C_9  and  C_10
REMARK    6  A    between atoms: C_13  and  O_14
REMARK    7  A    between atoms: O_14  and  C_15
REMARK                            x       y       z     vdW  Elec       q    Type
REMARK                         _______ _______ _______ _____ _____    ______ ____
ROOT
ATOM      1  C   UNL     1       2.715   2.833  18.885  0.00  0.00    +0.000 C 
ATOM      2  C   UNL     1       3.457   2.752  20.212  0.00  0.00    +0.000 C 
ATOM      3  C   UNL     1       2.364   3.060  21.219  0.00  0.00    +0.000 C 
ATOM      4  N   UNL     1       1.573   4.141  20.603  0.00  0.00    +0.000 NA
ATOM      5  C   UNL     1       1.553   3.808  19.160  0.00  0.00    +0.000 C 
ENDROOT
BRANCH   1   8
ATOM      6  O   UNL     1       5.303   3.923  19.130  0.00  0.00    +0.000 OA
ATOM      7  C   UNL     1       4.821   3.775  18.014  0.00  0.00    +0.000 C 
ATOM      8  N   UNL     1       3.581   3.220  17.781  0.00  0.00    +0.000 N 
ATOM      9  H   UNL     1       3.305   2.970  16.841  0.00  0.00    +0.000 HD
BRANCH   7  10
ATOM     10  C   UNL     1       5.603   4.166  16.807  0.00  0.00    +0.000 A 
ATOM     11  C   UNL     1       6.811   4.861  16.915  0.00  0.00    +0.000 A 
ATOM     12  C   UNL     1       7.524   5.207  15.761  0.00  0.00    +0.000 A 
ATOM     13  C   UNL     1       7.033   4.856  14.500  0.00  0.00    +0.000 A 
ATOM     14 CL   UNL     1       7.960   5.328  13.121  0.00  0.00    +0.000 Cl
ATOM     15  C   UNL     1       5.834   4.141  14.393  0.00  0.00    +0.000 A 
ATOM     16 CL   UNL     1       5.174   3.670  12.868  0.00  0.00    +0.000 Cl
ATOM     17  C   UNL     1       5.123   3.791  15.546  0.00  0.00    +0.000 A 
ENDBRANCH   7  10
ENDBRANCH   1   8
BRANCH   4  18
ATOM     18  C   UNL     1       2.183   5.461  20.860  0.00  0.00    +0.000 C 
BRANCH  18  19
ATOM     19  C   UNL     1       2.743   6.125  19.587  0.00  0.00    +0.000 C 
BRANCH  19  20
ATOM     20  C   UNL     1       2.121   7.482  19.358  0.00  0.00    +0.000 A 
ATOM     21  C   UNL     1       1.520   8.163  20.423  0.00  0.00    +0.000 A 
ATOM     22  C   UNL     1       0.963   9.428  20.231  0.00  0.00    +0.000 A 
ATOM     23  C   UNL     1       1.031  10.037  18.979  0.00  0.00    +0.000 A 
ATOM     24  C   UNL     1       1.578   9.339  17.902  0.00  0.00    +0.000 A 
ATOM     25  C   UNL     1       2.125   8.068  18.088  0.00  0.00    +0.000 A 
BRANCH  23  26
ATOM     26  O   UNL     1       0.606  11.307  18.700  0.00  0.00    +0.000 OA
BRANCH  26  27
ATOM     27  C   UNL     1       1.419  12.369  19.198  0.00  0.00    +0.000 C 
ATOM     28  C   UNL     1       2.498  12.819  18.220  0.00  0.00    +0.000 C 
ATOM     29  C   UNL     1       2.735  14.249  18.640  0.00  0.00    +0.000 C 
ATOM     30  N   UNL     1       1.386  14.782  18.860  0.00  0.00    +0.000 NA
ATOM     31  C   UNL     1       0.580  13.647  19.359  0.00  0.00    +0.000 C 
ATOM     32  H   UNL     1       1.004  15.060  17.954  0.00  0.00    +0.000 HD
ENDBRANCH  26  27
ENDBRANCH  23  26
ENDBRANCH  19  20
ENDBRANCH  18  19
ENDBRANCH   4  18
TORSDOF 7
ENDMDL
MODEL 4
REMARK VINA RESULT:      -8.2      1.505      1.710
REMARK  Name = 
REMARK  7 active torsions:
REMARK  status: ('A' for Active; 'I' for Inactive)
REMARK    1  A    between atoms: C_2  and  C_23
REMARK    2  A    between atoms: N_3  and  C_4
REMARK    3  A    between atoms: N_7  and  C_8
REMARK    4  A    between atoms: C_8  and  C_9
REMARK    5  A    between atoms: C_9  and  C_10
REMARK    6  A    between atoms: C_13  and  O_14
REMARK    7  A    between atoms: O_14  and  C_15
REMARK                            x       y       z     vdW  Elec       q    Type
REMARK                         _______ _______ _______ _____ _____    ______ ____
ROOT
ATOM      1  C   UNL     1       2.724   2.781  18.718  0.00  0.00    +0.000 C 
ATOM      2  C   UNL     1       3.460   2.686  20.048  0.00  0.00    +0.000 C 
ATOM      3  C   UNL     1       2.369   3.014  21.051  0.00  0.00    +0.000 C 
ATOM      4  N   UNL     1       1.601   4.110  20.433  0.00  0.00    +0.000 NA
ATOM      5  C   UNL     1       1.580   3.778  18.989  0.00  0.00    +0.000 C 
ENDROOT
BRANCH   1   8
ATOM      6  O   UNL     1       5.160   4.179  18.956  0.00  0.00    +0.000 OA
ATOM      7  C   UNL     1       4.759   3.865  17.843  0.00  0.00    +0.000 C 
ATOM      8  N   UNL     1       3.601   3.151  17.618  0.00  0.00    +0.000 N 
ATOM      9  H   UNL     1       3.406   2.778  16.698  0.00  0.00    +0.000 HD
BRANCH   7  10
ATOM     10  C   UNL     1       5.557   4.220  16.636  0.00  0.00    +0.000 A 
ATOM     11  C   UNL     1       6.772   4.904  16.741  0.00  0.00    +0.000 A 
ATOM     12  C   UNL     1       7.500   5.215  15.587  0.00  0.00    +0.000 A 
ATOM     13  C   UNL     1       7.019   4.840  14.329  0.00  0.00    +0.000 A 
ATOM     14 CL   UNL     1       7.965   5.271  12.949  0.00  0.00    +0.000 Cl
ATOM     15  C   UNL     1       5.813   4.137  14.226  0.00  0.00    +0.000 A 
ATOM     16 CL   UNL     1       5.164   3.638  12.705  0.00  0.00    +0.000 Cl
ATOM     17  C   UNL     1       5.086   3.821  15.379  0.00  0.00    +0.000 A 
ENDBRANCH   7  10
ENDBRANCH   1   8
BRANCH   4  18
ATOM     18  C   UNL     1       2.234   5.418  20.691  0.00  0.00    +0.000 C 
BRANCH  18  19
ATOM     19  C   UNL     1       2.538   6.207  19.403  0.00  0.00    +0.000 C 
BRANCH  19  20
ATOM     20  C   UNL     1       1.980   7.608  19.473  0.00  0.00    +0.000 A 
ATOM     21  C   UNL     1       2.011   8.430  18.340  0.00  0.00    +0.000 A 
ATOM     22  C   UNL     1       1.477   9.719  18.384  0.00  0.00    +0.000 A 
ATOM     23  C   UNL     1       0.878  10.185  19.553  0.00  0.00    +0.000 A 
ATOM     24  C   UNL     1       0.896   9.392  20.701  0.00  0.00    +0.000 A 
ATOM     25  C   UNL     1       1.441   8.107  20.663  0.00  0.00    +0.000 A 
BRANCH  23  26
ATOM     26  O   UNL     1       0.241  11.389  19.682  0.00  0.00    +0.000 OA
BRANCH  26  27
ATOM     27  C   UNL     1       0.905  12.519  19.117  0.00  0.00    +0.000 C 
ATOM     28  C   UNL     1      -0.028  13.689  18.824  0.00  0.00    +0.000 C 
ATOM     29  C   UNL     1       0.910  14.870  18.888  0.00  0.00    +0.000 C 
ATOM     30  N   UNL     1       1.738  14.601  20.069  0.00  0.00    +0.000 NA
ATOM     31  C   UNL     1       1.874  13.130  20.141  0.00  0.00    +0.000 C 
ATOM     32  H   UNL     1       1.220  14.906  20.895  0.00  0.00    +0.000 HD
ENDBRANCH  26  27
ENDBRANCH  23  26
ENDBRANCH  19  20
ENDBRANCH  18  19
ENDBRANCH   4  18
TORSDOF 7
ENDMDL
MODEL 5
REMARK VINA RESULT:      -8.1      4.882      5.924
REMARK  Name = 
REMARK  7 active torsions:
REMARK  status: ('A' for Active; 'I' for Inactive)
REMARK    1  A    between atoms: C_2  and  C_23
REMARK    2  A    between atoms: N_3  and  C_4
REMARK    3  A    between atoms: N_7  and  C_8
REMARK    4  A    between atoms: C_8  and  C_9
REMARK    5  A    between atoms: C_9  and  C_10
REMARK    6  A    between atoms: C_13  and  O_14
REMARK    7  A    between atoms: O_14  and  C_15
REMARK                            x       y       z     vdW  Elec       q    Type
REMARK                         _______ _______ _______ _____ _____    ______ ____
ROOT
ATOM      1  C   UNL     1       7.853   6.223  18.406  0.00  0.00    +0.000 C 
ATOM      2  C   UNL     1       6.778   5.703  19.349  0.00  0.00    +0.000 C 
ATOM      3  C   UNL     1       5.874   4.917  18.416  0.00  0.00    +0.000 C 
ATOM      4  N   UNL     1       5.791   5.733  17.192  0.00  0.00    +0.000 NA
ATOM      5  C   UNL     1       7.148   6.309  17.038  0.00  0.00    +0.000 C 
ENDROOT
BRANCH   1   8
ATOM      6  O   UNL     1       7.510   8.742  17.189  0.00  0.00    +0.000 OA
ATOM      7  C   UNL     1       8.233   8.648  18.172  0.00  0.00    +0.000 C 
ATOM      8  N   UNL     1       8.441   7.473  18.862  0.00  0.00    +0.000 N 
ATOM      9  H   UNL     1       8.912   7.488  19.757  0.00  0.00    +0.000 HD
BRANCH   7  10
ATOM     10  C   UNL     1       8.917   9.858  18.711  0.00  0.00    +0.000 A 
ATOM     11  C   UNL     1       9.067  10.058  20.086  0.00  0.00    +0.000 A 
ATOM     12  C   UNL     1       9.722  11.202  20.558  0.00  0.00    +0.000 A 
ATOM     13  C   UNL     1      10.229  12.144  19.658  0.00  0.00    +0.000 A 
ATOM     14 CL   UNL     1      11.011  13.537  20.314  0.00  0.00    +0.000 Cl
ATOM     15  C   UNL     1      10.097  11.932  18.281  0.00  0.00    +0.000 A 
ATOM     16 CL   UNL     1      10.705  13.051  17.113  0.00  0.00    +0.000 Cl
ATOM     17  C   UNL     1       9.447  10.787  17.807  0.00  0.00    +0.000 A 
ENDBRANCH   7  10
ENDBRANCH   1   8
BRANCH   4  18
ATOM     18  C   UNL     1       4.757   6.779  17.316  0.00  0.00    +0.000 C 
BRANCH  18  19
ATOM     19  C   UNL     1       3.461   6.272  17.979  0.00  0.00    +0.000 C 
BRANCH  19  20
ATOM     20  C   UNL     1       2.627   7.417  18.500  0.00  0.00    +0.000 A 
ATOM     21  C   UNL     1       2.315   8.492  17.659  0.00  0.00    +0.000 A 
ATOM     22  C   UNL     1       1.525   9.546  18.120  0.00  0.00    +0.000 A 
ATOM     23  C   UNL     1       1.012   9.518  19.415  0.00  0.00    +0.000 A 
ATOM     24  C   UNL     1       1.366   8.477  20.275  0.00  0.00    +0.000 A 
ATOM     25  C   UNL     1       2.167   7.428  19.820  0.00  0.00    +0.000 A 
BRANCH  23  26
ATOM     26  O   UNL     1       0.152  10.445  19.940  0.00  0.00    +0.000 OA
BRANCH  26  27
ATOM     27  C   UNL     1       0.725  11.409  20.822  0.00  0.00    +0.000 C 
ATOM     28  C   UNL     1       0.874  12.792  20.197  0.00  0.00    +0.000 C 
ATOM     29  C   UNL     1       0.845  13.694  21.407  0.00  0.00    +0.000 C 
ATOM     30  N   UNL     1      -0.239  13.147  22.231  0.00  0.00    +0.000 NA
ATOM     31  C   UNL     1      -0.230  11.687  21.994  0.00  0.00    +0.000 C 
ATOM     32  H   UNL     1      -1.124  13.515  21.875  0.00  0.00    +0.000 HD
ENDBRANCH  26  27
ENDBRANCH  23  26
ENDBRANCH  19  20
ENDBRANCH  18  19
ENDBRANCH   4  18
TORSDOF 7
ENDMDL
MODEL 6
REMARK VINA RESULT:      -8.1      1.258      1.693
REMARK  Name = 
REMARK  7 active torsions:
REMARK  status: ('A' for Active; 'I' for Inactive)
REMARK    1  A    between atoms: C_2  and  C_23
REMARK    2  A    between atoms: N_3  and  C_4
REMARK    3  A    between atoms: N_7  and  C_8
REMARK    4  A    between atoms: C_8  and  C_9
REMARK    5  A    between atoms: C_9  and  C_10
REMARK    6  A    between atoms: C_13  and  O_14
REMARK    7  A    between atoms: O_14  and  C_15
REMARK                            x       y       z     vdW  Elec       q    Type
REMARK                         _______ _______ _______ _____ _____    ______ ____
ROOT
ATOM      1  C   UNL     1       2.802   2.766  18.478  0.00  0.00    +0.000 C 
ATOM      2  C   UNL     1       3.540   2.571  19.795  0.00  0.00    +0.000 C 
ATOM      3  C   UNL     1       2.477   2.916  20.822  0.00  0.00    +0.000 C 
ATOM      4  N   UNL     1       1.769   4.081  20.259  0.00  0.00    +0.000 NA
ATOM      5  C   UNL     1       1.719   3.814  18.802  0.00  0.00    +0.000 C 
ENDROOT
BRANCH   1   8
ATOM      6  O   UNL     1       5.139   4.323  18.715  0.00  0.00    +0.000 OA
ATOM      7  C   UNL     1       4.795   3.928  17.608  0.00  0.00    +0.000 C 
ATOM      8  N   UNL     1       3.691   3.134  17.386  0.00  0.00    +0.000 N 
ATOM      9  H   UNL     1       3.550   2.703  16.482  0.00  0.00    +0.000 HD
BRANCH   7  10
ATOM     10  C   UNL     1       5.611   4.270  16.409  0.00  0.00    +0.000 A 
ATOM     11  C   UNL     1       6.795   5.004  16.518  0.00  0.00    +0.000 A 
ATOM     12  C   UNL     1       7.541   5.301  15.372  0.00  0.00    +0.000 A 
ATOM     13  C   UNL     1       7.107   4.863  14.117  0.00  0.00    +0.000 A 
ATOM     14 CL   UNL     1       8.072   5.281  12.746  0.00  0.00    +0.000 Cl
ATOM     15  C   UNL     1       5.932   4.111  14.010  0.00  0.00    +0.000 A 
ATOM     16 CL   UNL     1       5.342   3.532  12.493  0.00  0.00    +0.000 Cl
ATOM     17  C   UNL     1       5.188   3.809  15.156  0.00  0.00    +0.000 A 
ENDBRANCH   7  10
ENDBRANCH   1   8
BRANCH   4  18
ATOM     18  C   UNL     1       2.479   5.338  20.568  0.00  0.00    +0.000 C 
BRANCH  18  19
ATOM     19  C   UNL     1       2.322   6.406  19.469  0.00  0.00    +0.000 C 
BRANCH  19  20
ATOM     20  C   UNL     1       1.773   7.695  20.031  0.00  0.00    +0.000 A 
ATOM     21  C   UNL     1       1.523   7.807  21.404  0.00  0.00    +0.000 A 
ATOM     22  C   UNL     1       1.038   9.000  21.941  0.00  0.00    +0.000 A 
ATOM     23  C   UNL     1       0.829  10.103  21.114  0.00  0.00    +0.000 A 
ATOM     24  C   UNL     1       1.023   9.979  19.738  0.00  0.00    +0.000 A 
ATOM     25  C   UNL     1       1.496   8.782  19.196  0.00  0.00    +0.000 A 
BRANCH  23  26
ATOM     26  O   UNL     1       0.449  11.346  21.543  0.00  0.00    +0.000 OA
BRANCH  26  27
ATOM     27  C   UNL     1      -0.954  11.562  21.686  0.00  0.00    +0.000 C 
ATOM     28  C   UNL     1      -1.460  11.346  23.108  0.00  0.00    +0.000 C 
ATOM     29  C   UNL     1      -2.691  12.220  23.146  0.00  0.00    +0.000 C 
ATOM     30  N   UNL     1      -2.268  13.455  22.476  0.00  0.00    +0.000 NA
ATOM     31  C   UNL     1      -1.288  13.043  21.448  0.00  0.00    +0.000 C 
ATOM     32  H   UNL     1      -1.777  14.034  23.160  0.00  0.00    +0.000 HD
ENDBRANCH  26  27
ENDBRANCH  23  26
ENDBRANCH  19  20
ENDBRANCH  18  19
ENDBRANCH   4  18
TORSDOF 7
ENDMDL
MODEL 7
REMARK VINA RESULT:      -8.0      4.692      5.744
REMARK  Name = 
REMARK  7 active torsions:
REMARK  status: ('A' for Active; 'I' for Inactive)
REMARK    1  A    between atoms: C_2  and  C_23
REMARK    2  A    between atoms: N_3  and  C_4
REMARK    3  A    between atoms: N_7  and  C_8
REMARK    4  A    between atoms: C_8  and  C_9
REMARK    5  A    between atoms: C_9  and  C_10
REMARK    6  A    between atoms: C_13  and  O_14
REMARK    7  A    between atoms: O_14  and  C_15
REMARK                            x       y       z     vdW  Elec       q    Type
REMARK                         _______ _______ _______ _____ _____    ______ ____
ROOT
ATOM      1  C   UNL     1       7.762   6.198  18.491  0.00  0.00    +0.000 C 
ATOM      2  C   UNL     1       6.672   5.732  19.446  0.00  0.00    +0.000 C 
ATOM      3  C   UNL     1       5.747   4.948  18.532  0.00  0.00    +0.000 C 
ATOM      4  N   UNL     1       5.688   5.735  17.287  0.00  0.00    +0.000 NA
ATOM      5  C   UNL     1       7.061   6.268  17.121  0.00  0.00    +0.000 C 
ENDROOT
BRANCH   1   8
ATOM      6  O   UNL     1       7.492   8.693  17.209  0.00  0.00    +0.000 OA
ATOM      7  C   UNL     1       8.211   8.605  18.196  0.00  0.00    +0.000 C 
ATOM      8  N   UNL     1       8.385   7.442  18.916  0.00  0.00    +0.000 N 
ATOM      9  H   UNL     1       8.854   7.467  19.812  0.00  0.00    +0.000 HD
BRANCH   7  10
ATOM     10  C   UNL     1       8.927   9.808  18.706  0.00  0.00    +0.000 A 
ATOM     11  C   UNL     1       9.079  10.041  20.075  0.00  0.00    +0.000 A 
ATOM     12  C   UNL     1       9.765  11.177  20.519  0.00  0.00    +0.000 A 
ATOM     13  C   UNL     1      10.303  12.079  19.596  0.00  0.00    +0.000 A 
ATOM     14 CL   UNL     1      11.123  13.467  20.218  0.00  0.00    +0.000 Cl
ATOM     15  C   UNL     1      10.169  11.835  18.225  0.00  0.00    +0.000 A 
ATOM     16 CL   UNL     1      10.814  12.903  17.030  0.00  0.00    +0.000 Cl
ATOM     17  C   UNL     1       9.488  10.697  17.780  0.00  0.00    +0.000 A 
ENDBRANCH   7  10
ENDBRANCH   1   8
BRANCH   4  18
ATOM     18  C   UNL     1       4.683   6.812  17.384  0.00  0.00    +0.000 C 
BRANCH  18  19
ATOM     19  C   UNL     1       3.464   6.426  18.244  0.00  0.00    +0.000 C 
BRANCH  19  20
ATOM     20  C   UNL     1       2.621   7.634  18.574  0.00  0.00    +0.000 A 
ATOM     21  C   UNL     1       2.000   7.731  19.825  0.00  0.00    +0.000 A 
ATOM     22  C   UNL     1       1.237   8.853  20.153  0.00  0.00    +0.000 A 
ATOM     23  C   UNL     1       1.116   9.903  19.244  0.00  0.00    +0.000 A 
ATOM     24  C   UNL     1       1.686   9.786  17.976  0.00  0.00    +0.000 A 
ATOM     25  C   UNL     1       2.439   8.659  17.641  0.00  0.00    +0.000 A 
BRANCH  23  26
ATOM     26  O   UNL     1       0.476  11.087  19.493  0.00  0.00    +0.000 OA
BRANCH  26  27
ATOM     27  C   UNL     1      -0.942  11.019  19.639  0.00  0.00    +0.000 C 
ATOM     28  C   UNL     1      -1.499  12.023  20.642  0.00  0.00    +0.000 C 
ATOM     29  C   UNL     1      -2.913  12.216  20.151  0.00  0.00    +0.000 C 
ATOM     30  N   UNL     1      -2.770  12.323  18.694  0.00  0.00    +0.000 NA
ATOM     31  C   UNL     1      -1.629  11.454  18.335  0.00  0.00    +0.000 C 
ATOM     32  H   UNL     1      -2.511  13.286  18.472  0.00  0.00    +0.000 HD
ENDBRANCH  26  27
ENDBRANCH  23  26
ENDBRANCH  19  20
ENDBRANCH  18  19
ENDBRANCH   4  18
TORSDOF 7
ENDMDL
MODEL 8
REMARK VINA RESULT:      -8.0      1.243      1.505
REMARK  Name = 
REMARK  7 active torsions:
REMARK  status: ('A' for Active; 'I' for Inactive)
REMARK    1  A    between atoms: C_2  and  C_23
REMARK    2  A    between atoms: N_3  and  C_4
REMARK    3  A    between atoms: N_7  and  C_8
REMARK    4  A    between atoms: C_8  and  C_9
REMARK    5  A    between atoms: C_9  and  C_10
REMARK    6  A    between atoms: C_13  and  O_14
REMARK    7  A    between atoms: O_14  and  C_15
REMARK                            x       y       z     vdW  Elec       q    Type
REMARK                         _______ _______ _______ _____ _____    ______ ____
ROOT
ATOM      1  C   UNL     1       2.382   2.748  17.835  0.00  0.00    +0.000 C 
ATOM      2  C   UNL     1       3.035   2.200  19.097  0.00  0.00    +0.000 C 
ATOM      3  C   UNL     1       2.009   2.526  20.167  0.00  0.00    +0.000 C 
ATOM      4  N   UNL     1       1.517   3.872  19.823  0.00  0.00    +0.000 NA
ATOM      5  C   UNL     1       1.472   3.884  18.342  0.00  0.00    +0.000 C 
ENDROOT
BRANCH   1   8
ATOM      6  O   UNL     1       4.866   3.973  18.355  0.00  0.00    +0.000 OA
ATOM      7  C   UNL     1       4.530   3.776  17.194  0.00  0.00    +0.000 C 
ATOM      8  N   UNL     1       3.355   3.154  16.832  0.00  0.00    +0.000 N 
ATOM      9  H   UNL     1       3.206   2.870  15.873  0.00  0.00    +0.000 HD
BRANCH   7  10
ATOM     10  C   UNL     1       5.431   4.180  16.079  0.00  0.00    +0.000 A 
ATOM     11  C   UNL     1       6.502   5.053  16.287  0.00  0.00    +0.000 A 
ATOM     12  C   UNL     1       7.334   5.407  15.218  0.00  0.00    +0.000 A 
ATOM     13  C   UNL     1       7.099   4.885  13.942  0.00  0.00    +0.000 A 
ATOM     14 CL   UNL     1       8.158   5.377  12.669  0.00  0.00    +0.000 Cl
ATOM     15  C   UNL     1       6.039   3.994  13.738  0.00  0.00    +0.000 A 
ATOM     16 CL   UNL     1       5.696   3.307  12.191  0.00  0.00    +0.000 Cl
ATOM     17  C   UNL     1       5.210   3.637  14.807  0.00  0.00    +0.000 A 
ENDBRANCH   7  10
ENDBRANCH   1   8
BRANCH   4  18
ATOM     18  C   UNL     1       2.409   4.920  20.358  0.00  0.00    +0.000 C 
BRANCH  18  19
ATOM     19  C   UNL     1       1.656   6.015  21.138  0.00  0.00    +0.000 C 
BRANCH  19  20
ATOM     20  C   UNL     1       1.597   7.304  20.355  0.00  0.00    +0.000 A 
ATOM     21  C   UNL     1       2.202   7.383  19.095  0.00  0.00    +0.000 A 
ATOM     22  C   UNL     1       2.136   8.561  18.350  0.00  0.00    +0.000 A 
ATOM     23  C   UNL     1       1.435   9.660  18.844  0.00  0.00    +0.000 A 
ATOM     24  C   UNL     1       0.880   9.605  20.123  0.00  0.00    +0.000 A 
ATOM     25  C   UNL     1       0.956   8.432  20.876  0.00  0.00    +0.000 A 
BRANCH  23  26
ATOM     26  O   UNL     1       1.224  10.828  18.163  0.00  0.00    +0.000 OA
BRANCH  26  27
ATOM     27  C   UNL     1       0.758  11.934  18.936  0.00  0.00    +0.000 C 
ATOM     28  C   UNL     1       1.576  13.205  18.734  0.00  0.00    +0.000 C 
ATOM     29  C   UNL     1       0.577  14.285  19.072  0.00  0.00    +0.000 C 
ATOM     30  N   UNL     1      -0.657  13.846  18.409  0.00  0.00    +0.000 NA
ATOM     31  C   UNL     1      -0.634  12.368  18.452  0.00  0.00    +0.000 C 
ATOM     32  H   UNL     1      -0.608  14.131  17.429  0.00  0.00    +0.000 HD
ENDBRANCH  26  27
ENDBRANCH  23  26
ENDBRANCH  19  20
ENDBRANCH  18  19
ENDBRANCH   4  18
TORSDOF 7
ENDMDL
MODEL 9
REMARK VINA RESULT:      -8.0      4.629      5.630
REMARK  Name = 
REMARK  7 active torsions:
REMARK  status: ('A' for Active; 'I' for Inactive)
REMARK    1  A    between atoms: C_2  and  C_23
REMARK    2  A    between atoms: N_3  and  C_4
REMARK    3  A    between atoms: N_7  and  C_8
REMARK    4  A    between atoms: C_8  and  C_9
REMARK    5  A    between atoms: C_9  and  C_10
REMARK    6  A    between atoms: C_13  and  O_14
REMARK    7  A    between atoms: O_14  and  C_15
REMARK                            x       y       z     vdW  Elec       q    Type
REMARK                         _______ _______ _______ _____ _____    ______ ____
ROOT
ATOM      1  C   UNL     1       6.731   6.489  17.040  0.00  0.00    +0.000 C 
ATOM      2  C   UNL     1       6.608   5.745  18.362  0.00  0.00    +0.000 C 
ATOM      3  C   UNL     1       5.517   4.731  18.069  0.00  0.00    +0.000 C 
ATOM      4  N   UNL     1       4.525   5.463  17.262  0.00  0.00    +0.000 NA
ATOM      5  C   UNL     1       5.336   6.354  16.398  0.00  0.00    +0.000 C 
ENDROOT
BRANCH   1   8
ATOM      6  O   UNL     1       8.654   7.361  18.906  0.00  0.00    +0.000 OA
ATOM      7  C   UNL     1       8.115   8.183  18.176  0.00  0.00    +0.000 C 
ATOM      8  N   UNL     1       7.189   7.859  17.208  0.00  0.00    +0.000 N 
ATOM      9  H   UNL     1       6.904   8.551  16.528  0.00  0.00    +0.000 HD
BRANCH   7  10
ATOM     10  C   UNL     1       8.481   9.624  18.281  0.00  0.00    +0.000 A 
ATOM     11  C   UNL     1       7.924  10.581  17.428  0.00  0.00    +0.000 A 
ATOM     12  C   UNL     1       8.284  11.928  17.559  0.00  0.00    +0.000 A 
ATOM     13  C   UNL     1       9.197  12.319  18.543  0.00  0.00    +0.000 A 
ATOM     14 CL   UNL     1       9.604  13.995  18.636  0.00  0.00    +0.000 Cl
ATOM     15  C   UNL     1       9.738  11.363  19.411  0.00  0.00    +0.000 A 
ATOM     16 CL   UNL     1      10.865  11.777  20.653  0.00  0.00    +0.000 Cl
ATOM     17  C   UNL     1       9.375  10.017  19.284  0.00  0.00    +0.000 A 
ENDBRANCH   7  10
ENDBRANCH   1   8
BRANCH   4  18
ATOM     18  C   UNL     1       3.593   6.221  18.120  0.00  0.00    +0.000 C 
BRANCH  18  19
ATOM     19  C   UNL     1       3.215   7.596  17.535  0.00  0.00    +0.000 C 
BRANCH  19  20
ATOM     20  C   UNL     1       2.224   8.314  18.418  0.00  0.00    +0.000 A 
ATOM     21  C   UNL     1       1.456   9.362  17.897  0.00  0.00    +0.000 A 
ATOM     22  C   UNL     1       0.519  10.019  18.695  0.00  0.00    +0.000 A 
ATOM     23  C   UNL     1       0.318   9.612  20.013  0.00  0.00    +0.000 A 
ATOM     24  C   UNL     1       1.120   8.606  20.554  0.00  0.00    +0.000 A 
ATOM     25  C   UNL     1       2.067   7.956  19.761  0.00  0.00    +0.000 A 
BRANCH  23  26
ATOM     26  O   UNL     1      -0.636  10.117  20.855  0.00  0.00    +0.000 OA
BRANCH  26  27
ATOM     27  C   UNL     1      -0.204  11.132  21.761  0.00  0.00    +0.000 C 
ATOM     28  C   UNL     1      -0.368  12.545  21.213  0.00  0.00    +0.000 C 
ATOM     29  C   UNL     1      -0.492  13.365  22.474  0.00  0.00    +0.000 C 
ATOM     30  N   UNL     1      -1.393  12.576  23.322  0.00  0.00    +0.000 NA
ATOM     31  C   UNL     1      -1.116  11.160  22.997  0.00  0.00    +0.000 C 
ATOM     32  H   UNL     1      -2.353  12.778  23.038  0.00  0.00    +0.000 HD
ENDBRANCH  26  27
ENDBRANCH  23  26
ENDBRANCH  19  20
ENDBRANCH  18  19
ENDBRANCH   4  18
TORSDOF 7
ENDMDL
