MODEL 1
REMARK VINA RESULT:      -9.8      0.000      0.000
REMARK  Name = 
REMARK  7 active torsions:
REMARK  status: ('A' for Active; 'I' for Inactive)
REMARK    1  A    between atoms: C_1  and  N_2
REMARK    2  A    between atoms: C_5  and  S_6
REMARK    3  A    between atoms: S_6  and  N_9
REMARK    4  A    between atoms: C_14  and  C_15
REMARK    5  A    between atoms: C_17  and  C_18
REMARK    6  A    between atoms: N_20  and  C_21
REMARK    7  A    between atoms: C_21  and  C_22
REMARK                            x       y       z     vdW  Elec       q    Type
REMARK                         _______ _______ _______ _____ _____    ______ ____
ROOT
ATOM      1  C   UNL     1       3.381   5.683  17.665  0.00  0.00    +0.000 A 
ATOM      2  C   UNL     1       2.469   6.058  18.621  0.00  0.00    +0.000 A 
ATOM      3  C   UNL     1       2.462   7.479  18.577  0.00  0.00    +0.000 A 
ATOM      4  N   UNL     1       3.262   7.926  17.597  0.00  0.00    +0.000 NA
ATOM      5  O   UNL     1       3.827   6.803  17.030  0.00  0.00    +0.000 OA
ENDROOT
BRANCH   1  11
ATOM      6  N   UNL     1       5.248   4.049  17.981  0.00  0.00    +0.000 NA
ATOM      7  C   UNL     1       5.141   3.802  19.436  0.00  0.00    +0.000 C 
ATOM      8  C   UNL     1       4.061   2.764  19.757  0.00  0.00    +0.000 C 
ATOM      9  C   UNL     1       2.752   2.918  18.990  0.00  0.00    +0.000 C 
ATOM     10  C   UNL     1       2.996   3.206  17.511  0.00  0.00    +0.000 C 
ATOM     11  C   UNL     1       3.978   4.364  17.290  0.00  0.00    +0.000 C 
BRANCH   6  12
ATOM     12  S   UNL     1       6.628   4.904  17.458  0.00  0.00    +0.000 S 
ATOM     13  O   UNL     1       7.795   4.262  18.031  0.00  0.00    +0.000 OA
ATOM     14  O   UNL     1       6.394   6.322  17.631  0.00  0.00    +0.000 OA
BRANCH  12  19
ATOM     15  C   UNL     1       6.113   3.442  12.444  0.00  0.00    +0.000 C 
ATOM     16  N   UNL     1       6.573   4.078  13.654  0.00  0.00    +0.000 N 
ATOM     17  C   UNL     1       7.439   5.132  13.721  0.00  0.00    +0.000 A 
ATOM     18  N   UNL     1       7.613   5.538  14.958  0.00  0.00    +0.000 NA
ATOM     19  C   UNL     1       6.826   4.699  15.730  0.00  0.00    +0.000 A 
ATOM     20  C   UNL     1       6.182   3.773  14.929  0.00  0.00    +0.000 A 
ENDBRANCH  12  19
ENDBRANCH   6  12
ENDBRANCH   1  11
BRANCH   3  21
ATOM     21  C   UNL     1       1.741   8.370  19.474  0.00  0.00    +0.000 C 
ATOM     22  O   UNL     1       1.703   8.175  20.689  0.00  0.00    +0.000 OA
ATOM     23  N   UNL     1       1.122   9.441  18.866  0.00  0.00    +0.000 N 
ATOM     24  H   UNL     1       1.156   9.489  17.855  0.00  0.00    +0.000 HD
BRANCH  23  25
ATOM     25  C   UNL     1       0.387  10.424  19.623  0.00  0.00    +0.000 C 
BRANCH  25  26
ATOM     26  C   UNL     1      -0.935  10.736  18.972  0.00  0.00    +0.000 A 
ATOM     27  C   UNL     1      -1.825  11.646  19.551  0.00  0.00    +0.000 A 
ATOM     28  C   UNL     1      -3.034  11.954  18.917  0.00  0.00    +0.000 A 
ATOM     29  C   UNL     1      -3.356  11.367  17.690  0.00  0.00    +0.000 A 
ATOM     30 CL   UNL     1      -4.855  11.809  16.954  0.00  0.00    +0.000 Cl
ATOM     31  C   UNL     1      -2.470  10.462  17.098  0.00  0.00    +0.000 A 
ATOM     32 CL   UNL     1      -2.784   9.715  15.572  0.00  0.00    +0.000 Cl
ATOM     33  C   UNL     1      -1.269  10.148  17.741  0.00  0.00    +0.000 A 
ENDBRANCH  25  26
ENDBRANCH  23  25
ENDBRANCH   3  21
TORSDOF 6
ENDMDL
MODEL 2
REMARK VINA RESULT:      -9.8      1.188      1.720
REMARK  Name = 
REMARK  7 active torsions:
REMARK  status: ('A' for Active; 'I' for Inactive)
REMARK    1  A    between atoms: C_1  and  N_2
REMARK    2  A    between atoms: C_5  and  S_6
REMARK    3  A    between atoms: S_6  and  N_9
REMARK    4  A    between atoms: C_14  and  C_15
REMARK    5  A    between atoms: C_17  and  C_18
REMARK    6  A    between atoms: N_20  and  C_21
REMARK    7  A    between atoms: C_21  and  C_22
REMARK                            x       y       z     vdW  Elec       q    Type
REMARK                         _______ _______ _______ _____ _____    ______ ____
ROOT
ATOM      1  C   UNL     1       2.807   5.985  18.474  0.00  0.00    +0.000 A 
ATOM      2  C   UNL     1       2.324   7.241  18.200  0.00  0.00    +0.000 A 
ATOM      3  C   UNL     1       1.987   7.783  19.470  0.00  0.00    +0.000 A 
ATOM      4  N   UNL     1       2.324   6.933  20.452  0.00  0.00    +0.000 NA
ATOM      5  O   UNL     1       2.838   5.818  19.825  0.00  0.00    +0.000 OA
ENDROOT
BRANCH   1  11
ATOM      6  N   UNL     1       4.444   4.151  18.011  0.00  0.00    +0.000 NA
ATOM      7  C   UNL     1       4.378   3.408  19.289  0.00  0.00    +0.000 C 
ATOM      8  C   UNL     1       3.183   2.450  19.327  0.00  0.00    +0.000 C 
ATOM      9  C   UNL     1       1.870   3.015  18.795  0.00  0.00    +0.000 C 
ATOM     10  C   UNL     1       2.075   3.789  17.496  0.00  0.00    +0.000 C 
ATOM     11  C   UNL     1       3.196   4.833  17.602  0.00  0.00    +0.000 C 
BRANCH   6  12
ATOM     12  S   UNL     1       5.900   4.979  17.691  0.00  0.00    +0.000 S 
ATOM     13  O   UNL     1       6.950   4.353  18.469  0.00  0.00    +0.000 OA
ATOM     14  O   UNL     1       5.656   6.404  17.772  0.00  0.00    +0.000 OA
BRANCH  12  19
ATOM     15  C   UNL     1       6.136   3.424  12.684  0.00  0.00    +0.000 C 
ATOM     16  N   UNL     1       6.432   4.052  13.947  0.00  0.00    +0.000 N 
ATOM     17  C   UNL     1       7.363   5.031  14.151  0.00  0.00    +0.000 A 
ATOM     18  N   UNL     1       7.356   5.456  15.394  0.00  0.00    +0.000 NA
ATOM     19  C   UNL     1       6.375   4.709  16.027  0.00  0.00    +0.000 A 
ATOM     20  C   UNL     1       5.801   3.818  15.137  0.00  0.00    +0.000 A 
ENDBRANCH  12  19
ENDBRANCH   6  12
ENDBRANCH   1  11
BRANCH   3  21
ATOM     21  C   UNL     1       1.328   9.057  19.721  0.00  0.00    +0.000 C 
ATOM     22  O   UNL     1       0.929   9.371  20.842  0.00  0.00    +0.000 OA
ATOM     23  N   UNL     1       1.199   9.877  18.621  0.00  0.00    +0.000 N 
ATOM     24  H   UNL     1       1.502   9.512  17.726  0.00  0.00    +0.000 HD
BRANCH  23  25
ATOM     25  C   UNL     1       0.587  11.180  18.713  0.00  0.00    +0.000 C 
BRANCH  25  26
ATOM     26  C   UNL     1      -0.898  11.104  18.472  0.00  0.00    +0.000 A 
ATOM     27  C   UNL     1      -1.432  10.191  17.557  0.00  0.00    +0.000 A 
ATOM     28  C   UNL     1      -2.816  10.106  17.369  0.00  0.00    +0.000 A 
ATOM     29  C   UNL     1      -3.679  10.922  18.105  0.00  0.00    +0.000 A 
ATOM     30 CL   UNL     1      -5.377  10.748  17.837  0.00  0.00    +0.000 Cl
ATOM     31  C   UNL     1      -3.157  11.832  19.029  0.00  0.00    +0.000 A 
ATOM     32 CL   UNL     1      -4.158  12.854  19.996  0.00  0.00    +0.000 Cl
ATOM     33  C   UNL     1      -1.773  11.922  19.205  0.00  0.00    +0.000 A 
ENDBRANCH  25  26
ENDBRANCH  23  25
ENDBRANCH   3  21
TORSDOF 6
ENDMDL
MODEL 3
REMARK VINA RESULT:      -9.8      1.097      1.210
REMARK  Name = 
REMARK  7 active torsions:
REMARK  status: ('A' for Active; 'I' for Inactive)
REMARK    1  A    between atoms: C_1  and  N_2
REMARK    2  A    between atoms: C_5  and  S_6
REMARK    3  A    between atoms: S_6  and  N_9
REMARK    4  A    between atoms: C_14  and  C_15
REMARK    5  A    between atoms: C_17  and  C_18
REMARK    6  A    between atoms: N_20  and  C_21
REMARK    7  A    between atoms: C_21  and  C_22
REMARK                            x       y       z     vdW  Elec       q    Type
REMARK                         _______ _______ _______ _____ _____    ______ ____
ROOT
ATOM      1  C   UNL     1       2.662   5.754  18.720  0.00  0.00    +0.000 A 
ATOM      2  C   UNL     1       2.228   7.052  18.612  0.00  0.00    +0.000 A 
ATOM      3  C   UNL     1       1.869   7.425  19.936  0.00  0.00    +0.000 A 
ATOM      4  N   UNL     1       2.148   6.436  20.798  0.00  0.00    +0.000 NA
ATOM      5  O   UNL     1       2.647   5.401  20.035  0.00  0.00    +0.000 OA
ENDROOT
BRANCH   1  11
ATOM      6  N   UNL     1       4.321   4.030  17.987  0.00  0.00    +0.000 NA
ATOM      7  C   UNL     1       4.324   3.144  19.173  0.00  0.00    +0.000 C 
ATOM      8  C   UNL     1       3.154   2.156  19.145  0.00  0.00    +0.000 C 
ATOM      9  C   UNL     1       1.808   2.742  18.732  0.00  0.00    +0.000 C 
ATOM     10  C   UNL     1       1.942   3.665  17.524  0.00  0.00    +0.000 C 
ATOM     11  C   UNL     1       3.042   4.720  17.708  0.00  0.00    +0.000 C 
BRANCH   6  12
ATOM     12  S   UNL     1       5.743   4.930  17.711  0.00  0.00    +0.000 S 
ATOM     13  O   UNL     1       6.798   4.358  18.525  0.00  0.00    +0.000 OA
ATOM     14  O   UNL     1       5.426   6.340  17.778  0.00  0.00    +0.000 OA
BRANCH  12  19
ATOM     15  C   UNL     1       6.130   3.522  12.669  0.00  0.00    +0.000 C 
ATOM     16  N   UNL     1       6.404   4.086  13.967  0.00  0.00    +0.000 N 
ATOM     17  C   UNL     1       7.390   4.987  14.252  0.00  0.00    +0.000 A 
ATOM     18  N   UNL     1       7.348   5.371  15.508  0.00  0.00    +0.000 NA
ATOM     19  C   UNL     1       6.285   4.678  16.064  0.00  0.00    +0.000 A 
ATOM     20  C   UNL     1       5.696   3.861  15.115  0.00  0.00    +0.000 A 
ENDBRANCH  12  19
ENDBRANCH   6  12
ENDBRANCH   1  11
BRANCH   3  21
ATOM     21  C   UNL     1       1.243   8.674  20.344  0.00  0.00    +0.000 C 
ATOM     22  O   UNL     1       0.828   8.848  21.489  0.00  0.00    +0.000 OA
ATOM     23  N   UNL     1       1.163   9.639  19.362  0.00  0.00    +0.000 N 
ATOM     24  H   UNL     1       1.475   9.388  18.432  0.00  0.00    +0.000 HD
BRANCH  23  25
ATOM     25  C   UNL     1       0.588  10.937  19.618  0.00  0.00    +0.000 C 
BRANCH  25  26
ATOM     26  C   UNL     1      -0.797  11.044  19.038  0.00  0.00    +0.000 A 
ATOM     27  C   UNL     1      -1.770  11.847  19.640  0.00  0.00    +0.000 A 
ATOM     28  C   UNL     1      -3.042  11.965  19.070  0.00  0.00    +0.000 A 
ATOM     29  C   UNL     1      -3.348  11.294  17.883  0.00  0.00    +0.000 A 
ATOM     30 CL   UNL     1      -4.931  11.502  17.224  0.00  0.00    +0.000 Cl
ATOM     31  C   UNL     1      -2.380  10.495  17.267  0.00  0.00    +0.000 A 
ATOM     32 CL   UNL     1      -2.672   9.656  15.785  0.00  0.00    +0.000 Cl
ATOM     33  C   UNL     1      -1.114  10.370  17.846  0.00  0.00    +0.000 A 
ENDBRANCH  25  26
ENDBRANCH  23  25
ENDBRANCH   3  21
TORSDOF 6
ENDMDL
MODEL 4
REMARK VINA RESULT:      -9.6      0.598      1.304
REMARK  Name = 
REMARK  7 active torsions:
REMARK  status: ('A' for Active; 'I' for Inactive)
REMARK    1  A    between atoms: C_1  and  N_2
REMARK    2  A    between atoms: C_5  and  S_6
REMARK    3  A    between atoms: S_6  and  N_9
REMARK    4  A    between atoms: C_14  and  C_15
REMARK    5  A    between atoms: C_17  and  C_18
REMARK    6  A    between atoms: N_20  and  C_21
REMARK    7  A    between atoms: C_21  and  C_22
REMARK                            x       y       z     vdW  Elec       q    Type
REMARK                         _______ _______ _______ _____ _____    ______ ____
ROOT
ATOM      1  C   UNL     1       3.439   5.634  17.662  0.00  0.00    +0.000 A 
ATOM      2  C   UNL     1       2.497   6.018  18.584  0.00  0.00    +0.000 A 
ATOM      3  C   UNL     1       2.497   7.440  18.530  0.00  0.00    +0.000 A 
ATOM      4  N   UNL     1       3.332   7.876  17.575  0.00  0.00    +0.000 NA
ATOM      5  O   UNL     1       3.910   6.746  17.035  0.00  0.00    +0.000 OA
ENDROOT
BRANCH   1  11
ATOM      6  N   UNL     1       5.314   4.016  18.017  0.00  0.00    +0.000 NA
ATOM      7  C   UNL     1       5.206   3.801  19.477  0.00  0.00    +0.000 C 
ATOM      8  C   UNL     1       4.131   2.764  19.819  0.00  0.00    +0.000 C 
ATOM      9  C   UNL     1       2.822   2.895  19.048  0.00  0.00    +0.000 C 
ATOM     10  C   UNL     1       3.065   3.151  17.563  0.00  0.00    +0.000 C 
ATOM     11  C   UNL     1       4.043   4.309  17.318  0.00  0.00    +0.000 C 
BRANCH   6  12
ATOM     12  S   UNL     1       6.690   4.866  17.476  0.00  0.00    +0.000 S 
ATOM     13  O   UNL     1       7.863   4.208  18.020  0.00  0.00    +0.000 OA
ATOM     14  O   UNL     1       6.470   6.284  17.669  0.00  0.00    +0.000 OA
BRANCH  12  19
ATOM     15  C   UNL     1       6.094   3.428  12.464  0.00  0.00    +0.000 C 
ATOM     16  N   UNL     1       6.566   4.065  13.668  0.00  0.00    +0.000 N 
ATOM     17  C   UNL     1       7.410   5.137  13.723  0.00  0.00    +0.000 A 
ATOM     18  N   UNL     1       7.604   5.538  14.959  0.00  0.00    +0.000 NA
ATOM     19  C   UNL     1       6.853   4.677  15.742  0.00  0.00    +0.000 A 
ATOM     20  C   UNL     1       6.211   3.742  14.949  0.00  0.00    +0.000 A 
ENDBRANCH  12  19
ENDBRANCH   6  12
ENDBRANCH   1  11
BRANCH   3  21
ATOM     21  C   UNL     1       1.750   8.340  19.396  0.00  0.00    +0.000 C 
ATOM     22  O   UNL     1       1.510   8.060  20.570  0.00  0.00    +0.000 OA
ATOM     23  N   UNL     1       1.348   9.520  18.809  0.00  0.00    +0.000 N 
ATOM     24  H   UNL     1       1.537   9.640  17.821  0.00  0.00    +0.000 HD
BRANCH  23  25
ATOM     25  C   UNL     1       0.617  10.523  19.544  0.00  0.00    +0.000 C 
BRANCH  25  26
ATOM     26  C   UNL     1      -0.738  10.767  18.933  0.00  0.00    +0.000 A 
ATOM     27  C   UNL     1      -1.113  10.141  17.740  0.00  0.00    +0.000 A 
ATOM     28  C   UNL     1      -2.388  10.349  17.203  0.00  0.00    +0.000 A 
ATOM     29  C   UNL     1      -3.306  11.171  17.863  0.00  0.00    +0.000 A 
ATOM     30 CL   UNL     1      -4.869  11.365  17.154  0.00  0.00    +0.000 Cl
ATOM     31  C   UNL     1      -2.945  11.795  19.061  0.00  0.00    +0.000 A 
ATOM     32 CL   UNL     1      -4.031  12.803  19.948  0.00  0.00    +0.000 Cl
ATOM     33  C   UNL     1      -1.666  11.594  19.588  0.00  0.00    +0.000 A 
ENDBRANCH  25  26
ENDBRANCH  23  25
ENDBRANCH   3  21
TORSDOF 6
ENDMDL
MODEL 5
REMARK VINA RESULT:      -9.3      2.811      3.885
REMARK  Name = 
REMARK  7 active torsions:
REMARK  status: ('A' for Active; 'I' for Inactive)
REMARK    1  A    between atoms: C_1  and  N_2
REMARK    2  A    between atoms: C_5  and  S_6
REMARK    3  A    between atoms: S_6  and  N_9
REMARK    4  A    between atoms: C_14  and  C_15
REMARK    5  A    between atoms: C_17  and  C_18
REMARK    6  A    between atoms: N_20  and  C_21
REMARK    7  A    between atoms: C_21  and  C_22
REMARK                            x       y       z     vdW  Elec       q    Type
REMARK                         _______ _______ _______ _____ _____    ______ ____
ROOT
ATOM      1  C   UNL     1       5.409   4.638  18.751  0.00  0.00    +0.000 A 
ATOM      2  C   UNL     1       4.526   5.615  19.143  0.00  0.00    +0.000 A 
ATOM      3  C   UNL     1       3.522   4.923  19.874  0.00  0.00    +0.000 A 
ATOM      4  N   UNL     1       3.829   3.622  19.983  0.00  0.00    +0.000 NA
ATOM      5  O   UNL     1       5.007   3.452  19.287  0.00  0.00    +0.000 OA
ENDROOT
BRANCH   1  11
ATOM      6  N   UNL     1       6.579   5.718  16.822  0.00  0.00    +0.000 NA
ATOM      7  C   UNL     1       6.728   7.096  17.340  0.00  0.00    +0.000 C 
ATOM      8  C   UNL     1       7.944   7.227  18.264  0.00  0.00    +0.000 C 
ATOM      9  C   UNL     1       8.132   6.094  19.267  0.00  0.00    +0.000 C 
ATOM     10  C   UNL     1       7.916   4.728  18.622  0.00  0.00    +0.000 C 
ATOM     11  C   UNL     1       6.596   4.646  17.842  0.00  0.00    +0.000 C 
BRANCH   6  12
ATOM     12  S   UNL     1       5.494   5.511  15.523  0.00  0.00    +0.000 S 
ATOM     13  O   UNL     1       5.084   6.826  15.070  0.00  0.00    +0.000 OA
ATOM     14  O   UNL     1       4.517   4.506  15.884  0.00  0.00    +0.000 OA
BRANCH  12  19
ATOM     15  C   UNL     1       6.900   2.645  11.358  0.00  0.00    +0.000 C 
ATOM     16  N   UNL     1       6.888   3.623  12.416  0.00  0.00    +0.000 N 
ATOM     17  C   UNL     1       7.731   4.693  12.523  0.00  0.00    +0.000 A 
ATOM     18  N   UNL     1       7.431   5.445  13.557  0.00  0.00    +0.000 NA
ATOM     19  C   UNL     1       6.344   4.827  14.153  0.00  0.00    +0.000 A 
ATOM     20  C   UNL     1       6.004   3.679  13.458  0.00  0.00    +0.000 A 
ENDBRANCH  12  19
ENDBRANCH   6  12
ENDBRANCH   1  11
BRANCH   3  21
ATOM     21  C   UNL     1       2.295   5.492  20.411  0.00  0.00    +0.000 C 
ATOM     22  O   UNL     1       1.348   4.785  20.755  0.00  0.00    +0.000 OA
ATOM     23  N   UNL     1       2.281   6.867  20.514  0.00  0.00    +0.000 N 
ATOM     24  H   UNL     1       3.080   7.372  20.151  0.00  0.00    +0.000 HD
BRANCH  23  25
ATOM     25  C   UNL     1       1.144   7.577  21.047  0.00  0.00    +0.000 C 
BRANCH  25  26
ATOM     26  C   UNL     1       1.046   8.963  20.466  0.00  0.00    +0.000 A 
ATOM     27  C   UNL     1       1.357   9.205  19.124  0.00  0.00    +0.000 A 
ATOM     28  C   UNL     1       1.228  10.491  18.589  0.00  0.00    +0.000 A 
ATOM     29  C   UNL     1       0.770  11.544  19.386  0.00  0.00    +0.000 A 
ATOM     30 CL   UNL     1       0.613  13.100  18.654  0.00  0.00    +0.000 Cl
ATOM     31  C   UNL     1       0.447  11.312  20.727  0.00  0.00    +0.000 A 
ATOM     32 CL   UNL     1      -0.150  12.554  21.768  0.00  0.00    +0.000 Cl
ATOM     33  C   UNL     1       0.590  10.028  21.261  0.00  0.00    +0.000 A 
ENDBRANCH  25  26
ENDBRANCH  23  25
ENDBRANCH   3  21
TORSDOF 6
ENDMDL
MODEL 6
REMARK VINA RESULT:      -9.2      2.339      2.955
REMARK  Name = 
REMARK  7 active torsions:
REMARK  status: ('A' for Active; 'I' for Inactive)
REMARK    1  A    between atoms: C_1  and  N_2
REMARK    2  A    between atoms: C_5  and  S_6
REMARK    3  A    between atoms: S_6  and  N_9
REMARK    4  A    between atoms: C_14  and  C_15
REMARK    5  A    between atoms: C_17  and  C_18
REMARK    6  A    between atoms: N_20  and  C_21
REMARK    7  A    between atoms: C_21  and  C_22
REMARK                            x       y       z     vdW  Elec       q    Type
REMARK                         _______ _______ _______ _____ _____    ______ ____
ROOT
ATOM      1  C   UNL     1       2.593   6.483  18.348  0.00  0.00    +0.000 A 
ATOM      2  C   UNL     1       2.464   7.748  17.830  0.00  0.00    +0.000 A 
ATOM      3  C   UNL     1       1.956   8.529  18.904  0.00  0.00    +0.000 A 
ATOM      4  N   UNL     1       1.864   7.792  20.021  0.00  0.00    +0.000 NA
ATOM      5  O   UNL     1       2.266   6.521  19.669  0.00  0.00    +0.000 OA
ENDROOT
BRANCH   1  11
ATOM      6  N   UNL     1       4.034   4.439  18.398  0.00  0.00    +0.000 NA
ATOM      7  C   UNL     1       3.748   3.945  19.763  0.00  0.00    +0.000 C 
ATOM      8  C   UNL     1       2.447   3.136  19.811  0.00  0.00    +0.000 C 
ATOM      9  C   UNL     1       1.275   3.728  19.037  0.00  0.00    +0.000 C 
ATOM     10  C   UNL     1       1.705   4.235  17.663  0.00  0.00    +0.000 C 
ATOM     11  C   UNL     1       2.927   5.162  17.733  0.00  0.00    +0.000 C 
BRANCH   6  12
ATOM     12  S   UNL     1       5.605   5.045  18.127  0.00  0.00    +0.000 S 
ATOM     13  O   UNL     1       6.526   4.279  18.944  0.00  0.00    +0.000 OA
ATOM     14  O   UNL     1       5.568   6.490  18.195  0.00  0.00    +0.000 OA
BRANCH  12  19
ATOM     15  C   UNL     1       5.732   3.578  13.089  0.00  0.00    +0.000 C 
ATOM     16  N   UNL     1       6.104   4.086  14.386  0.00  0.00    +0.000 N 
ATOM     17  C   UNL     1       7.238   4.792  14.670  0.00  0.00    +0.000 A 
ATOM     18  N   UNL     1       7.266   5.180  15.925  0.00  0.00    +0.000 NA
ATOM     19  C   UNL     1       6.093   4.695  16.481  0.00  0.00    +0.000 A 
ATOM     20  C   UNL     1       5.365   3.996  15.534  0.00  0.00    +0.000 A 
ENDBRANCH  12  19
ENDBRANCH   6  12
ENDBRANCH   1  11
BRANCH   3  21
ATOM     21  C   UNL     1       1.539   9.922  18.841  0.00  0.00    +0.000 C 
ATOM     22  O   UNL     1       1.989  10.696  17.997  0.00  0.00    +0.000 OA
ATOM     23  N   UNL     1       0.604  10.298  19.782  0.00  0.00    +0.000 N 
ATOM     24  H   UNL     1       0.334   9.611  20.475  0.00  0.00    +0.000 HD
BRANCH  23  25
ATOM     25  C   UNL     1       0.077  11.640  19.834  0.00  0.00    +0.000 C 
BRANCH  25  26
ATOM     26  C   UNL     1      -0.940  11.784  20.936  0.00  0.00    +0.000 A 
ATOM     27  C   UNL     1      -0.679  11.304  22.223  0.00  0.00    +0.000 A 
ATOM     28  C   UNL     1      -1.618  11.475  23.246  0.00  0.00    +0.000 A 
ATOM     29  C   UNL     1      -2.820  12.143  22.995  0.00  0.00    +0.000 A 
ATOM     30 CL   UNL     1      -3.923  12.338  24.310  0.00  0.00    +0.000 Cl
ATOM     31  C   UNL     1      -3.088  12.635  21.714  0.00  0.00    +0.000 A 
ATOM     32 CL   UNL     1      -4.537  13.494  21.332  0.00  0.00    +0.000 Cl
ATOM     33  C   UNL     1      -2.152  12.451  20.692  0.00  0.00    +0.000 A 
ENDBRANCH  25  26
ENDBRANCH  23  25
ENDBRANCH   3  21
TORSDOF 6
ENDMDL
MODEL 7
REMARK VINA RESULT:      -9.1      1.205      1.419
REMARK  Name = 
REMARK  7 active torsions:
REMARK  status: ('A' for Active; 'I' for Inactive)
REMARK    1  A    between atoms: C_1  and  N_2
REMARK    2  A    between atoms: C_5  and  S_6
REMARK    3  A    between atoms: S_6  and  N_9
REMARK    4  A    between atoms: C_14  and  C_15
REMARK    5  A    between atoms: C_17  and  C_18
REMARK    6  A    between atoms: N_20  and  C_21
REMARK    7  A    between atoms: C_21  and  C_22
REMARK                            x       y       z     vdW  Elec       q    Type
REMARK                         _______ _______ _______ _____ _____    ______ ____
ROOT
ATOM      1  C   UNL     1       2.957   6.082  18.141  0.00  0.00    +0.000 A 
ATOM      2  C   UNL     1       2.808   7.327  17.581  0.00  0.00    +0.000 A 
ATOM      3  C   UNL     1       2.234   8.121  18.612  0.00  0.00    +0.000 A 
ATOM      4  N   UNL     1       2.122   7.414  19.746  0.00  0.00    +0.000 NA
ATOM      5  O   UNL     1       2.579   6.147  19.448  0.00  0.00    +0.000 OA
ENDROOT
BRANCH   1  11
ATOM      6  N   UNL     1       4.572   4.172  18.189  0.00  0.00    +0.000 NA
ATOM      7  C   UNL     1       4.439   3.747  19.600  0.00  0.00    +0.000 C 
ATOM      8  C   UNL     1       3.224   2.838  19.806  0.00  0.00    +0.000 C 
ATOM      9  C   UNL     1       1.945   3.279  19.100  0.00  0.00    +0.000 C 
ATOM     10  C   UNL     1       2.219   3.727  17.667  0.00  0.00    +0.000 C 
ATOM     11  C   UNL     1       3.356   4.755  17.579  0.00  0.00    +0.000 C 
BRANCH   6  12
ATOM     12  S   UNL     1       6.057   4.888  17.751  0.00  0.00    +0.000 S 
ATOM     13  O   UNL     1       7.122   4.120  18.367  0.00  0.00    +0.000 OA
ATOM     14  O   UNL     1       5.961   6.320  17.939  0.00  0.00    +0.000 OA
BRANCH  12  19
ATOM     15  C   UNL     1       7.834   5.253  12.826  0.00  0.00    +0.000 C 
ATOM     16  N   UNL     1       7.093   4.857  13.998  0.00  0.00    +0.000 N 
ATOM     17  C   UNL     1       6.282   3.763  14.095  0.00  0.00    +0.000 A 
ATOM     18  N   UNL     1       5.799   3.624  15.309  0.00  0.00    +0.000 NA
ATOM     19  C   UNL     1       6.320   4.687  16.030  0.00  0.00    +0.000 A 
ATOM     20  C   UNL     1       7.118   5.473  15.219  0.00  0.00    +0.000 A 
ENDBRANCH  12  19
ENDBRANCH   6  12
ENDBRANCH   1  11
BRANCH   3  21
ATOM     21  C   UNL     1       1.776   9.497  18.492  0.00  0.00    +0.000 C 
ATOM     22  O   UNL     1       2.183  10.241  17.600  0.00  0.00    +0.000 OA
ATOM     23  N   UNL     1       0.853   9.893  19.436  0.00  0.00    +0.000 N 
ATOM     24  H   UNL     1       0.619   9.234  20.169  0.00  0.00    +0.000 HD
BRANCH  23  25
ATOM     25  C   UNL     1       0.288  11.220  19.436  0.00  0.00    +0.000 C 
BRANCH  25  26
ATOM     26  C   UNL     1      -1.123  11.212  18.908  0.00  0.00    +0.000 A 
ATOM     27  C   UNL     1      -2.136  11.931  19.550  0.00  0.00    +0.000 A 
ATOM     28  C   UNL     1      -3.434  11.944  19.028  0.00  0.00    +0.000 A 
ATOM     29  C   UNL     1      -3.727  11.251  17.850  0.00  0.00    +0.000 A 
ATOM     30 CL   UNL     1      -5.345  11.328  17.252  0.00  0.00    +0.000 Cl
ATOM     31  C   UNL     1      -2.720  10.536  17.194  0.00  0.00    +0.000 A 
ATOM     32 CL   UNL     1      -2.997   9.679  15.721  0.00  0.00    +0.000 Cl
ATOM     33  C   UNL     1      -1.427  10.516  17.726  0.00  0.00    +0.000 A 
ENDBRANCH  25  26
ENDBRANCH  23  25
ENDBRANCH   3  21
TORSDOF 6
ENDMDL
MODEL 8
REMARK VINA RESULT:      -9.1      2.309      2.650
REMARK  Name = 
REMARK  7 active torsions:
REMARK  status: ('A' for Active; 'I' for Inactive)
REMARK    1  A    between atoms: C_1  and  N_2
REMARK    2  A    between atoms: C_5  and  S_6
REMARK    3  A    between atoms: S_6  and  N_9
REMARK    4  A    between atoms: C_14  and  C_15
REMARK    5  A    between atoms: C_17  and  C_18
REMARK    6  A    between atoms: N_20  and  C_21
REMARK    7  A    between atoms: C_21  and  C_22
REMARK                            x       y       z     vdW  Elec       q    Type
REMARK                         _______ _______ _______ _____ _____    ______ ____
ROOT
ATOM      1  C   UNL     1       2.948   6.284  17.981  0.00  0.00    +0.000 A 
ATOM      2  C   UNL     1       2.645   7.475  17.368  0.00  0.00    +0.000 A 
ATOM      3  C   UNL     1       2.141   8.301  18.410  0.00  0.00    +0.000 A 
ATOM      4  N   UNL     1       2.216   7.669  19.591  0.00  0.00    +0.000 NA
ATOM      5  O   UNL     1       2.724   6.417  19.318  0.00  0.00    +0.000 OA
ENDROOT
BRANCH   1  11
ATOM      6  N   UNL     1       4.567   4.382  18.123  0.00  0.00    +0.000 NA
ATOM      7  C   UNL     1       4.380   3.980  19.535  0.00  0.00    +0.000 C 
ATOM      8  C   UNL     1       3.160   3.069  19.709  0.00  0.00    +0.000 C 
ATOM      9  C   UNL     1       1.909   3.494  18.947  0.00  0.00    +0.000 C 
ATOM     10  C   UNL     1       2.237   3.920  17.518  0.00  0.00    +0.000 C 
ATOM     11  C   UNL     1       3.373   4.950  17.457  0.00  0.00    +0.000 C 
BRANCH   6  12
ATOM     12  S   UNL     1       6.065   5.095  17.730  0.00  0.00    +0.000 S 
ATOM     13  O   UNL     1       7.099   4.394  18.466  0.00  0.00    +0.000 OA
ATOM     14  O   UNL     1       5.934   6.535  17.810  0.00  0.00    +0.000 OA
BRANCH  12  19
ATOM     15  C   UNL     1       6.001   3.419  12.758  0.00  0.00    +0.000 C 
ATOM     16  N   UNL     1       6.374   4.074  13.986  0.00  0.00    +0.000 N 
ATOM     17  C   UNL     1       7.324   5.048  14.112  0.00  0.00    +0.000 A 
ATOM     18  N   UNL     1       7.391   5.502  15.343  0.00  0.00    +0.000 NA
ATOM     19  C   UNL     1       6.442   4.780  16.049  0.00  0.00    +0.000 A 
ATOM     20  C   UNL     1       5.810   3.874  15.216  0.00  0.00    +0.000 A 
ENDBRANCH  12  19
ENDBRANCH   6  12
ENDBRANCH   1  11
BRANCH   3  21
ATOM     21  C   UNL     1       1.574   9.633  18.262  0.00  0.00    +0.000 C 
ATOM     22  O   UNL     1       2.279  10.619  18.053  0.00  0.00    +0.000 OA
ATOM     23  N   UNL     1       0.200   9.700  18.361  0.00  0.00    +0.000 N 
ATOM     24  H   UNL     1      -0.295   8.848  18.594  0.00  0.00    +0.000 HD
BRANCH  23  25
ATOM     25  C   UNL     1      -0.511  10.946  18.216  0.00  0.00    +0.000 C 
BRANCH  25  26
ATOM     26  C   UNL     1      -0.992  11.458  19.548  0.00  0.00    +0.000 A 
ATOM     27  C   UNL     1      -1.799  12.598  19.633  0.00  0.00    +0.000 A 
ATOM     28  C   UNL     1      -2.267  13.042  20.874  0.00  0.00    +0.000 A 
ATOM     29  C   UNL     1      -1.947  12.341  22.041  0.00  0.00    +0.000 A 
ATOM     30 CL   UNL     1      -2.577  12.933  23.536  0.00  0.00    +0.000 Cl
ATOM     31  C   UNL     1      -1.148  11.195  21.967  0.00  0.00    +0.000 A 
ATOM     32 CL   UNL     1      -0.732  10.261  23.359  0.00  0.00    +0.000 Cl
ATOM     33  C   UNL     1      -0.672  10.762  20.726  0.00  0.00    +0.000 A 
ENDBRANCH  25  26
ENDBRANCH  23  25
ENDBRANCH   3  21
TORSDOF 6
ENDMDL
MODEL 9
REMARK VINA RESULT:      -9.1      1.659      1.961
REMARK  Name = 
REMARK  7 active torsions:
REMARK  status: ('A' for Active; 'I' for Inactive)
REMARK    1  A    between atoms: C_1  and  N_2
REMARK    2  A    between atoms: C_5  and  S_6
REMARK    3  A    between atoms: S_6  and  N_9
REMARK    4  A    between atoms: C_14  and  C_15
REMARK    5  A    between atoms: C_17  and  C_18
REMARK    6  A    between atoms: N_20  and  C_21
REMARK    7  A    between atoms: C_21  and  C_22
REMARK                            x       y       z     vdW  Elec       q    Type
REMARK                         _______ _______ _______ _____ _____    ______ ____
ROOT
ATOM      1  C   UNL     1       2.345   6.224  18.725  0.00  0.00    +0.000 A 
ATOM      2  C   UNL     1       2.214   7.385  18.004  0.00  0.00    +0.000 A 
ATOM      3  C   UNL     1       1.846   8.368  18.964  0.00  0.00    +0.000 A 
ATOM      4  N   UNL     1       1.837   7.842  20.198  0.00  0.00    +0.000 NA
ATOM      5  O   UNL     1       2.153   6.509  20.042  0.00  0.00    +0.000 OA
ENDROOT
BRANCH   1  11
ATOM      6  N   UNL     1       3.551   4.076  19.160  0.00  0.00    +0.000 NA
ATOM      7  C   UNL     1       3.141   3.820  20.558  0.00  0.00    +0.000 C 
ATOM      8  C   UNL     1       1.760   3.161  20.632  0.00  0.00    +0.000 C 
ATOM      9  C   UNL     1       0.701   3.747  19.704  0.00  0.00    +0.000 C 
ATOM     10  C   UNL     1       1.255   3.999  18.305  0.00  0.00    +0.000 C 
ATOM     11  C   UNL     1       2.565   4.800  18.326  0.00  0.00    +0.000 C 
BRANCH   6  12
ATOM     12  S   UNL     1       5.191   4.476  18.914  0.00  0.00    +0.000 S 
ATOM     13  O   UNL     1       5.986   3.300  19.212  0.00  0.00    +0.000 OA
ATOM     14  O   UNL     1       5.464   5.746  19.551  0.00  0.00    +0.000 OA
BRANCH  12  19
ATOM     15  C   UNL     1       5.986   3.951  13.753  0.00  0.00    +0.000 C 
ATOM     16  N   UNL     1       5.790   4.510  15.066  0.00  0.00    +0.000 N 
ATOM     17  C   UNL     1       5.528   5.822  15.343  0.00  0.00    +0.000 A 
ATOM     18  N   UNL     1       5.328   6.016  16.626  0.00  0.00    +0.000 NA
ATOM     19  C   UNL     1       5.474   4.768  17.210  0.00  0.00    +0.000 A 
ATOM     20  C   UNL     1       5.777   3.821  16.248  0.00  0.00    +0.000 A 
ENDBRANCH  12  19
ENDBRANCH   6  12
ENDBRANCH   1  11
BRANCH   3  21
ATOM     21  C   UNL     1       1.478   9.750  18.692  0.00  0.00    +0.000 C 
ATOM     22  O   UNL     1       2.096  10.438  17.881  0.00  0.00    +0.000 OA
ATOM     23  N   UNL     1       0.389  10.217  19.398  0.00  0.00    +0.000 N 
ATOM     24  H   UNL     1      -0.021   9.600  20.088  0.00  0.00    +0.000 HD
BRANCH  23  25
ATOM     25  C   UNL     1      -0.110  11.559  19.222  0.00  0.00    +0.000 C 
BRANCH  25  26
ATOM     26  C   UNL     1      -1.555  11.552  18.798  0.00  0.00    +0.000 A 
ATOM     27  C   UNL     1      -2.545  12.119  19.607  0.00  0.00    +0.000 A 
ATOM     28  C   UNL     1      -3.878  12.137  19.184  0.00  0.00    +0.000 A 
ATOM     29  C   UNL     1      -4.232  11.602  17.942  0.00  0.00    +0.000 A 
ATOM     30 CL   UNL     1      -5.893  11.678  17.476  0.00  0.00    +0.000 Cl
ATOM     31  C   UNL     1      -3.249  11.040  17.121  0.00  0.00    +0.000 A 
ATOM     32 CL   UNL     1      -3.602  10.385  15.563  0.00  0.00    +0.000 Cl
ATOM     33  C   UNL     1      -1.920  11.014  17.553  0.00  0.00    +0.000 A 
ENDBRANCH  25  26
ENDBRANCH  23  25
ENDBRANCH   3  21
TORSDOF 6
ENDMDL
