MODEL 1
REMARK VINA RESULT:      -9.1      0.000      0.000
REMARK  Name = 
REMARK  5 active torsions:
REMARK  status: ('A' for Active; 'I' for Inactive)
REMARK    1  A    between atoms: C_1  and  C_2
REMARK    2  A    between atoms: C_4  and  C_5
REMARK    3  A    between atoms: C_11  and  C_12
REMARK    4  A    between atoms: C_12  and  C_14
REMARK    5  A    between atoms: C_26  and  C_27
REMARK                            x       y       z     vdW  Elec       q    Type
REMARK                         _______ _______ _______ _____ _____    ______ ____
ROOT
ATOM      1  C   UNL     1       4.067   2.958  18.206  0.00  0.00    +0.000 C 
ATOM      2  O   UNL     1       3.812   1.917  17.593  0.00  0.00    +0.000 OA
ATOM      3  N   UNL     1       3.310   3.374  19.306  0.00  0.00    +0.000 N 
ATOM      4  C   UNL     1       2.344   2.450  19.895  0.00  0.00    +0.000 C 
ATOM      5  C   UNL     1       0.921   2.998  19.785  0.00  0.00    +0.000 C 
ATOM      6  C   UNL     1       0.833   4.404  20.376  0.00  0.00    +0.000 C 
ATOM      7  C   UNL     1       1.888   5.331  19.749  0.00  0.00    +0.000 C 
ATOM      8  C   UNL     1       3.288   4.730  19.868  0.00  0.00    +0.000 C 
ENDROOT
BRANCH   1  12
ATOM      9  C   UNL     1       6.796   4.876  14.515  0.00  0.00    +0.000 C 
ATOM     10  C   UNL     1       6.494   4.681  15.967  0.00  0.00    +0.000 A 
ATOM     11  C   UNL     1       5.416   3.916  16.353  0.00  0.00    +0.000 A 
ATOM     12  C   UNL     1       5.220   3.779  17.718  0.00  0.00    +0.000 A 
ATOM     13  N   UNL     1       6.022   4.340  18.642  0.00  0.00    +0.000 NA
ATOM     14  C   UNL     1       7.027   5.085  18.163  0.00  0.00    +0.000 A 
ATOM     15  C   UNL     1       7.910   5.772  19.155  0.00  0.00    +0.000 C 
ATOM     16  N   UNL     1       7.279   5.282  16.856  0.00  0.00    +0.000 NA
ENDBRANCH   1  12
BRANCH   7  17
ATOM     17  C   UNL     1       1.870   6.694  20.405  0.00  0.00    +0.000 C 
ATOM     18  O   UNL     1       2.154   6.815  21.601  0.00  0.00    +0.000 OA
BRANCH  17  19
ATOM     19  C   UNL     1       1.618   7.951  19.624  0.00  0.00    +0.000 A 
ATOM     20  C   UNL     1       2.315   7.978  18.397  0.00  0.00    +0.000 A 
ATOM     21  C   UNL     1       2.288   9.096  17.579  0.00  0.00    +0.000 A 
ATOM     22  C   UNL     1       1.712  10.261  18.050  0.00  0.00    +0.000 A 
ATOM     23  C   UNL     1       1.112  10.296  19.310  0.00  0.00    +0.000 A 
ATOM     24  C   UNL     1       0.810  11.542  19.852  0.00  0.00    +0.000 A 
ATOM     25  C   UNL     1       0.306  11.601  21.136  0.00  0.00    +0.000 A 
ATOM     26  C   UNL     1      -0.399  10.521  21.609  0.00  0.00    +0.000 A 
ATOM     27  C   UNL     1      -0.007   9.268  21.156  0.00  0.00    +0.000 A 
ATOM     28  C   UNL     1       0.901   9.114  20.065  0.00  0.00    +0.000 A 
ENDBRANCH  17  19
ENDBRANCH   7  17
TORSDOF 3
ENDMDL
MODEL 2
REMARK VINA RESULT:      -8.8      0.549      1.578
REMARK  Name = 
REMARK  5 active torsions:
REMARK  status: ('A' for Active; 'I' for Inactive)
REMARK    1  A    between atoms: C_1  and  C_2
REMARK    2  A    between atoms: C_4  and  C_5
REMARK    3  A    between atoms: C_11  and  C_12
REMARK    4  A    between atoms: C_12  and  C_14
REMARK    5  A    between atoms: C_26  and  C_27
REMARK                            x       y       z     vdW  Elec       q    Type
REMARK                         _______ _______ _______ _____ _____    ______ ____
ROOT
ATOM      1  C   UNL     1       4.077   3.056  18.087  0.00  0.00    +0.000 C 
ATOM      2  O   UNL     1       3.830   2.024  17.458  0.00  0.00    +0.000 OA
ATOM      3  N   UNL     1       3.337   3.434  19.211  0.00  0.00    +0.000 N 
ATOM      4  C   UNL     1       2.402   2.479  19.801  0.00  0.00    +0.000 C 
ATOM      5  C   UNL     1       0.967   3.001  19.734  0.00  0.00    +0.000 C 
ATOM      6  C   UNL     1       0.864   4.392  20.356  0.00  0.00    +0.000 C 
ATOM      7  C   UNL     1       1.887   5.353  19.726  0.00  0.00    +0.000 C 
ATOM      8  C   UNL     1       3.301   4.777  19.802  0.00  0.00    +0.000 C 
ENDROOT
BRANCH   1  12
ATOM      9  C   UNL     1       7.893   6.141  18.911  0.00  0.00    +0.000 C 
ATOM     10  C   UNL     1       7.003   5.359  17.996  0.00  0.00    +0.000 A 
ATOM     11  C   UNL     1       5.985   4.590  18.514  0.00  0.00    +0.000 A 
ATOM     12  C   UNL     1       5.204   3.910  17.592  0.00  0.00    +0.000 A 
ATOM     13  N   UNL     1       5.395   3.982  16.261  0.00  0.00    +0.000 NA
ATOM     14  C   UNL     1       6.427   4.736  15.863  0.00  0.00    +0.000 A 
ATOM     15  C   UNL     1       6.710   4.799  14.397  0.00  0.00    +0.000 C 
ATOM     16  N   UNL     1       7.244   5.416  16.690  0.00  0.00    +0.000 NA
ENDBRANCH   1  12
BRANCH   7  17
ATOM     17  C   UNL     1       1.857   6.701  20.411  0.00  0.00    +0.000 C 
ATOM     18  O   UNL     1       2.152   6.801  21.606  0.00  0.00    +0.000 OA
BRANCH  17  19
ATOM     19  C   UNL     1       1.578   7.971  19.659  0.00  0.00    +0.000 A 
ATOM     20  C   UNL     1       2.258   8.032  18.424  0.00  0.00    +0.000 A 
ATOM     21  C   UNL     1       2.206   9.166  17.630  0.00  0.00    +0.000 A 
ATOM     22  C   UNL     1       1.622  10.314  18.133  0.00  0.00    +0.000 A 
ATOM     23  C   UNL     1       1.039  10.315  19.401  0.00  0.00    +0.000 A 
ATOM     24  C   UNL     1       0.728  11.546  19.973  0.00  0.00    +0.000 A 
ATOM     25  C   UNL     1       0.242  11.572  21.264  0.00  0.00    +0.000 A 
ATOM     26  C   UNL     1      -0.444  10.474  21.724  0.00  0.00    +0.000 A 
ATOM     27  C   UNL     1      -0.042   9.235  21.240  0.00  0.00    +0.000 A 
ATOM     28  C   UNL     1       0.853   9.115  20.134  0.00  0.00    +0.000 A 
ENDBRANCH  17  19
ENDBRANCH   7  17
TORSDOF 3
ENDMDL
MODEL 3
REMARK VINA RESULT:      -8.3      7.744     10.608
REMARK  Name = 
REMARK  5 active torsions:
REMARK  status: ('A' for Active; 'I' for Inactive)
REMARK    1  A    between atoms: C_1  and  C_2
REMARK    2  A    between atoms: C_4  and  C_5
REMARK    3  A    between atoms: C_11  and  C_12
REMARK    4  A    between atoms: C_12  and  C_14
REMARK    5  A    between atoms: C_26  and  C_27
REMARK                            x       y       z     vdW  Elec       q    Type
REMARK                         _______ _______ _______ _____ _____    ______ ____
ROOT
ATOM      1  C   UNL     1      -4.805  12.512  23.322  0.00  0.00    +0.000 C 
ATOM      2  O   UNL     1      -5.318  12.086  24.360  0.00  0.00    +0.000 OA
ATOM      3  N   UNL     1      -5.574  12.887  22.216  0.00  0.00    +0.000 N 
ATOM      4  C   UNL     1      -7.022  13.004  22.363  0.00  0.00    +0.000 C 
ATOM      5  C   UNL     1      -7.749  12.007  21.459  0.00  0.00    +0.000 C 
ATOM      6  C   UNL     1      -7.287  12.150  20.010  0.00  0.00    +0.000 C 
ATOM      7  C   UNL     1      -5.756  12.052  19.909  0.00  0.00    +0.000 C 
ATOM      8  C   UNL     1      -5.078  13.054  20.844  0.00  0.00    +0.000 C 
ENDROOT
BRANCH   1  12
ATOM      9  C   UNL     1      -0.602  15.173  23.269  0.00  0.00    +0.000 C 
ATOM     10  C   UNL     1      -1.338  13.870  23.261  0.00  0.00    +0.000 A 
ATOM     11  C   UNL     1      -2.714  13.853  23.304  0.00  0.00    +0.000 A 
ATOM     12  C   UNL     1      -3.311  12.602  23.279  0.00  0.00    +0.000 A 
ATOM     13  N   UNL     1      -2.617  11.450  23.208  0.00  0.00    +0.000 NA
ATOM     14  C   UNL     1      -1.284  11.576  23.197  0.00  0.00    +0.000 A 
ATOM     15  C   UNL     1      -0.473  10.320  23.175  0.00  0.00    +0.000 C 
ATOM     16  N   UNL     1      -0.624  12.749  23.234  0.00  0.00    +0.000 NA
ENDBRANCH   1  12
BRANCH   7  17
ATOM     17  C   UNL     1      -5.290  12.296  18.491  0.00  0.00    +0.000 C 
ATOM     18  O   UNL     1      -5.828  13.165  17.798  0.00  0.00    +0.000 OA
BRANCH  17  19
ATOM     19  C   UNL     1      -4.104  11.583  17.908  0.00  0.00    +0.000 A 
ATOM     20  C   UNL     1      -4.464  10.659  16.904  0.00  0.00    +0.000 A 
ATOM     21  C   UNL     1      -3.521   9.833  16.314  0.00  0.00    +0.000 A 
ATOM     22  C   UNL     1      -2.241   9.793  16.837  0.00  0.00    +0.000 A 
ATOM     23  C   UNL     1      -1.886  10.616  17.907  0.00  0.00    +0.000 A 
ATOM     24  C   UNL     1      -0.697  10.337  18.576  0.00  0.00    +0.000 A 
ATOM     25  C   UNL     1      -0.378  11.078  19.695  0.00  0.00    +0.000 A 
ATOM     26  C   UNL     1      -0.868  12.358  19.789  0.00  0.00    +0.000 A 
ATOM     27  C   UNL     1      -2.115  12.597  19.226  0.00  0.00    +0.000 A 
ATOM     28  C   UNL     1      -2.746  11.646  18.369  0.00  0.00    +0.000 A 
ENDBRANCH  17  19
ENDBRANCH   7  17
TORSDOF 3
ENDMDL
MODEL 4
REMARK VINA RESULT:      -8.0      1.562      2.029
REMARK  Name = 
REMARK  5 active torsions:
REMARK  status: ('A' for Active; 'I' for Inactive)
REMARK    1  A    between atoms: C_1  and  C_2
REMARK    2  A    between atoms: C_4  and  C_5
REMARK    3  A    between atoms: C_11  and  C_12
REMARK    4  A    between atoms: C_12  and  C_14
REMARK    5  A    between atoms: C_26  and  C_27
REMARK                            x       y       z     vdW  Elec       q    Type
REMARK                         _______ _______ _______ _____ _____    ______ ____
ROOT
ATOM      1  C   UNL     1       4.306   4.133  18.484  0.00  0.00    +0.000 C 
ATOM      2  O   UNL     1       4.100   2.916  18.508  0.00  0.00    +0.000 OA
ATOM      3  N   UNL     1       3.642   5.014  19.343  0.00  0.00    +0.000 N 
ATOM      4  C   UNL     1       2.862   4.473  20.453  0.00  0.00    +0.000 C 
ATOM      5  C   UNL     1       1.384   4.837  20.316  0.00  0.00    +0.000 C 
ATOM      6  C   UNL     1       1.208   6.345  20.148  0.00  0.00    +0.000 C 
ATOM      7  C   UNL     1       2.071   6.873  18.989  0.00  0.00    +0.000 C 
ATOM      8  C   UNL     1       3.534   6.467  19.164  0.00  0.00    +0.000 C 
ENDROOT
BRANCH   1  12
ATOM      9  C   UNL     1       6.445   3.954  13.996  0.00  0.00    +0.000 C 
ATOM     10  C   UNL     1       6.290   4.550  15.360  0.00  0.00    +0.000 A 
ATOM     11  C   UNL     1       5.360   4.037  16.236  0.00  0.00    +0.000 A 
ATOM     12  C   UNL     1       5.294   4.643  17.481  0.00  0.00    +0.000 A 
ATOM     13  N   UNL     1       6.085   5.669  17.850  0.00  0.00    +0.000 NA
ATOM     14  C   UNL     1       6.937   6.109  16.915  0.00  0.00    +0.000 A 
ATOM     15  C   UNL     1       7.795   7.283  17.263  0.00  0.00    +0.000 C 
ATOM     16  N   UNL     1       7.054   5.590  15.679  0.00  0.00    +0.000 NA
ENDBRANCH   1  12
BRANCH   7  17
ATOM     17  C   UNL     1       1.978   8.380  18.888  0.00  0.00    +0.000 C 
ATOM     18  O   UNL     1       2.945   9.040  18.495  0.00  0.00    +0.000 OA
BRANCH  17  19
ATOM     19  C   UNL     1       0.697   9.118  19.149  0.00  0.00    +0.000 A 
ATOM     20  C   UNL     1       0.088   9.587  17.966  0.00  0.00    +0.000 A 
ATOM     21  C   UNL     1      -1.051  10.374  18.006  0.00  0.00    +0.000 A 
ATOM     22  C   UNL     1      -1.498  10.849  19.226  0.00  0.00    +0.000 A 
ATOM     23  C   UNL     1      -0.846  10.493  20.407  0.00  0.00    +0.000 A 
ATOM     24  C   UNL     1      -1.147  11.213  21.560  0.00  0.00    +0.000 A 
ATOM     25  C   UNL     1      -0.443  10.940  22.714  0.00  0.00    +0.000 A 
ATOM     26  C   UNL     1       0.072   9.677  22.879  0.00  0.00    +0.000 A 
ATOM     27  C   UNL     1       0.487   9.013  21.731  0.00  0.00    +0.000 A 
ATOM     28  C   UNL     1       0.163   9.495  20.427  0.00  0.00    +0.000 A 
ENDBRANCH  17  19
ENDBRANCH   7  17
TORSDOF 3
ENDMDL
MODEL 5
REMARK VINA RESULT:      -8.0      6.765      9.606
REMARK  Name = 
REMARK  5 active torsions:
REMARK  status: ('A' for Active; 'I' for Inactive)
REMARK    1  A    between atoms: C_1  and  C_2
REMARK    2  A    between atoms: C_4  and  C_5
REMARK    3  A    between atoms: C_11  and  C_12
REMARK    4  A    between atoms: C_12  and  C_14
REMARK    5  A    between atoms: C_26  and  C_27
REMARK                            x       y       z     vdW  Elec       q    Type
REMARK                         _______ _______ _______ _____ _____    ______ ____
ROOT
ATOM      1  C   UNL     1      -0.946  10.333  18.430  0.00  0.00    +0.000 C 
ATOM      2  O   UNL     1       0.132  10.173  17.850  0.00  0.00    +0.000 OA
ATOM      3  N   UNL     1      -2.170  10.119  17.790  0.00  0.00    +0.000 N 
ATOM      4  C   UNL     1      -2.185   9.469  16.482  0.00  0.00    +0.000 C 
ATOM      5  C   UNL     1      -2.755  10.400  15.411  0.00  0.00    +0.000 C 
ATOM      6  C   UNL     1      -4.126  10.930  15.825  0.00  0.00    +0.000 C 
ATOM      7  C   UNL     1      -4.068  11.576  17.220  0.00  0.00    +0.000 C 
ATOM      8  C   UNL     1      -3.474  10.613  18.248  0.00  0.00    +0.000 C 
ENDROOT
BRANCH   1  12
ATOM      9  C   UNL     1      -1.651  13.792  21.935  0.00  0.00    +0.000 C 
ATOM     10  C   UNL     1      -1.241  12.420  21.500  0.00  0.00    +0.000 A 
ATOM     11  C   UNL     1      -1.310  12.067  20.171  0.00  0.00    +0.000 A 
ATOM     12  C   UNL     1      -0.898  10.781  19.858  0.00  0.00    +0.000 A 
ATOM     13  N   UNL     1      -0.443   9.904  20.773  0.00  0.00    +0.000 NA
ATOM     14  C   UNL     1      -0.440  10.337  22.040  0.00  0.00    +0.000 A 
ATOM     15  C   UNL     1       0.005   9.377  23.096  0.00  0.00    +0.000 C 
ATOM     16  N   UNL     1      -0.837  11.563  22.432  0.00  0.00    +0.000 NA
ENDBRANCH   1  12
BRANCH   7  17
ATOM     17  C   UNL     1      -5.445  12.008  17.674  0.00  0.00    +0.000 C 
ATOM     18  O   UNL     1      -6.112  12.789  16.989  0.00  0.00    +0.000 OA
BRANCH  17  19
ATOM     19  C   UNL     1      -6.095  11.435  18.900  0.00  0.00    +0.000 A 
ATOM     20  C   UNL     1      -6.618  10.142  18.684  0.00  0.00    +0.000 A 
ATOM     21  C   UNL     1      -7.341   9.484  19.666  0.00  0.00    +0.000 A 
ATOM     22  C   UNL     1      -7.702  10.173  20.810  0.00  0.00    +0.000 A 
ATOM     23  C   UNL     1      -7.294  11.494  21.001  0.00  0.00    +0.000 A 
ATOM     24  C   UNL     1      -7.913  12.227  22.010  0.00  0.00    +0.000 A 
ATOM     25  C   UNL     1      -7.592  13.562  22.151  0.00  0.00    +0.000 A 
ATOM     26  C   UNL     1      -6.348  13.979  21.742  0.00  0.00    +0.000 A 
ATOM     27  C   UNL     1      -5.792  13.322  20.652  0.00  0.00    +0.000 A 
ATOM     28  C   UNL     1      -6.350  12.112  20.140  0.00  0.00    +0.000 A 
ENDBRANCH  17  19
ENDBRANCH   7  17
TORSDOF 3
ENDMDL
MODEL 6
REMARK VINA RESULT:      -7.9      1.536      2.088
REMARK  Name = 
REMARK  5 active torsions:
REMARK  status: ('A' for Active; 'I' for Inactive)
REMARK    1  A    between atoms: C_1  and  C_2
REMARK    2  A    between atoms: C_4  and  C_5
REMARK    3  A    between atoms: C_11  and  C_12
REMARK    4  A    between atoms: C_12  and  C_14
REMARK    5  A    between atoms: C_26  and  C_27
REMARK                            x       y       z     vdW  Elec       q    Type
REMARK                         _______ _______ _______ _____ _____    ______ ____
ROOT
ATOM      1  C   UNL     1       5.463   4.335  17.340  0.00  0.00    +0.000 C 
ATOM      2  O   UNL     1       5.715   3.777  16.268  0.00  0.00    +0.000 OA
ATOM      3  N   UNL     1       4.242   4.159  17.997  0.00  0.00    +0.000 N 
ATOM      4  C   UNL     1       3.329   3.117  17.536  0.00  0.00    +0.000 C 
ATOM      5  C   UNL     1       2.011   3.717  17.046  0.00  0.00    +0.000 C 
ATOM      6  C   UNL     1       1.392   4.615  18.116  0.00  0.00    +0.000 C 
ATOM      7  C   UNL     1       2.399   5.676  18.592  0.00  0.00    +0.000 C 
ATOM      8  C   UNL     1       3.704   5.027  19.052  0.00  0.00    +0.000 C 
ENDROOT
BRANCH   1  12
ATOM      9  C   UNL     1       7.932   8.653  17.449  0.00  0.00    +0.000 C 
ATOM     10  C   UNL     1       7.671   7.270  17.958  0.00  0.00    +0.000 A 
ATOM     11  C   UNL     1       6.683   6.499  17.389  0.00  0.00    +0.000 A 
ATOM     12  C   UNL     1       6.519   5.227  17.915  0.00  0.00    +0.000 A 
ATOM     13  N   UNL     1       7.271   4.738  18.920  0.00  0.00    +0.000 NA
ATOM     14  C   UNL     1       8.186   5.577  19.421  0.00  0.00    +0.000 A 
ATOM     15  C   UNL     1       9.005   5.095  20.575  0.00  0.00    +0.000 C 
ATOM     16  N   UNL     1       8.400   6.831  18.980  0.00  0.00    +0.000 NA
ENDBRANCH   1  12
BRANCH   7  17
ATOM     17  C   UNL     1       1.823   6.500  19.723  0.00  0.00    +0.000 C 
ATOM     18  O   UNL     1       1.758   6.034  20.864  0.00  0.00    +0.000 OA
BRANCH  17  19
ATOM     19  C   UNL     1       1.413   7.932  19.536  0.00  0.00    +0.000 A 
ATOM     20  C   UNL     1       1.984   8.516  18.385  0.00  0.00    +0.000 A 
ATOM     21  C   UNL     1       1.804   9.858  18.093  0.00  0.00    +0.000 A 
ATOM     22  C   UNL     1       1.199  10.675  19.032  0.00  0.00    +0.000 A 
ATOM     23  C   UNL     1       0.723  10.144  20.232  0.00  0.00    +0.000 A 
ATOM     24  C   UNL     1       0.392  11.034  21.250  0.00  0.00    +0.000 A 
ATOM     25  C   UNL     1       0.013  10.525  22.476  0.00  0.00    +0.000 A 
ATOM     26  C   UNL     1      -0.570   9.282  22.513  0.00  0.00    +0.000 A 
ATOM     27  C   UNL     1      -0.140   8.358  21.567  0.00  0.00    +0.000 A 
ATOM     28  C   UNL     1       0.666   8.744  20.454  0.00  0.00    +0.000 A 
ENDBRANCH  17  19
ENDBRANCH   7  17
TORSDOF 3
ENDMDL
MODEL 7
REMARK VINA RESULT:      -7.8      1.538      2.383
REMARK  Name = 
REMARK  5 active torsions:
REMARK  status: ('A' for Active; 'I' for Inactive)
REMARK    1  A    between atoms: C_1  and  C_2
REMARK    2  A    between atoms: C_4  and  C_5
REMARK    3  A    between atoms: C_11  and  C_12
REMARK    4  A    between atoms: C_12  and  C_14
REMARK    5  A    between atoms: C_26  and  C_27
REMARK                            x       y       z     vdW  Elec       q    Type
REMARK                         _______ _______ _______ _____ _____    ______ ____
ROOT
ATOM      1  C   UNL     1       4.328   4.104  18.667  0.00  0.00    +0.000 C 
ATOM      2  O   UNL     1       4.151   2.883  18.698  0.00  0.00    +0.000 OA
ATOM      3  N   UNL     1       3.642   4.973  19.521  0.00  0.00    +0.000 N 
ATOM      4  C   UNL     1       2.875   4.419  20.634  0.00  0.00    +0.000 C 
ATOM      5  C   UNL     1       1.388   4.746  20.494  0.00  0.00    +0.000 C 
ATOM      6  C   UNL     1       1.176   6.249  20.318  0.00  0.00    +0.000 C 
ATOM      7  C   UNL     1       2.027   6.792  19.157  0.00  0.00    +0.000 C 
ATOM      8  C   UNL     1       3.499   6.422  19.335  0.00  0.00    +0.000 C 
ENDROOT
BRANCH   1  12
ATOM      9  C   UNL     1       6.428   3.996  14.158  0.00  0.00    +0.000 C 
ATOM     10  C   UNL     1       6.281   4.573  15.531  0.00  0.00    +0.000 A 
ATOM     11  C   UNL     1       5.362   4.044  16.409  0.00  0.00    +0.000 A 
ATOM     12  C   UNL     1       5.304   4.633  17.663  0.00  0.00    +0.000 A 
ATOM     13  N   UNL     1       6.092   5.659  18.037  0.00  0.00    +0.000 NA
ATOM     14  C   UNL     1       6.933   6.117  17.101  0.00  0.00    +0.000 A 
ATOM     15  C   UNL     1       7.787   7.292  17.455  0.00  0.00    +0.000 C 
ATOM     16  N   UNL     1       7.042   5.614  15.857  0.00  0.00    +0.000 NA
ENDBRANCH   1  12
BRANCH   7  17
ATOM     17  C   UNL     1       1.896   8.295  19.047  0.00  0.00    +0.000 C 
ATOM     18  O   UNL     1       2.244   8.878  18.016  0.00  0.00    +0.000 OA
BRANCH  17  19
ATOM     19  C   UNL     1       1.250   9.119  20.123  0.00  0.00    +0.000 A 
ATOM     20  C   UNL     1       1.419   8.563  21.410  0.00  0.00    +0.000 A 
ATOM     21  C   UNL     1       0.813   9.125  22.522  0.00  0.00    +0.000 A 
ATOM     22  C   UNL     1      -0.108  10.141  22.345  0.00  0.00    +0.000 A 
ATOM     23  C   UNL     1      -0.381  10.636  21.068  0.00  0.00    +0.000 A 
ATOM     24  C   UNL     1      -1.506  11.441  20.909  0.00  0.00    +0.000 A 
ATOM     25  C   UNL     1      -1.846  11.860  19.639  0.00  0.00    +0.000 A 
ATOM     26  C   UNL     1      -0.846  11.984  18.705  0.00  0.00    +0.000 A 
ATOM     27  C   UNL     1       0.214  11.092  18.797  0.00  0.00    +0.000 A 
ATOM     28  C   UNL     1       0.398  10.260  19.944  0.00  0.00    +0.000 A 
ENDBRANCH  17  19
ENDBRANCH   7  17
TORSDOF 3
ENDMDL
MODEL 8
REMARK VINA RESULT:      -7.8      4.322      8.419
REMARK  Name = 
REMARK  5 active torsions:
REMARK  status: ('A' for Active; 'I' for Inactive)
REMARK    1  A    between atoms: C_1  and  C_2
REMARK    2  A    between atoms: C_4  and  C_5
REMARK    3  A    between atoms: C_11  and  C_12
REMARK    4  A    between atoms: C_12  and  C_14
REMARK    5  A    between atoms: C_26  and  C_27
REMARK                            x       y       z     vdW  Elec       q    Type
REMARK                         _______ _______ _______ _____ _____    ______ ____
ROOT
ATOM      1  C   UNL     1       0.338  12.941  21.407  0.00  0.00    +0.000 C 
ATOM      2  O   UNL     1       0.363  13.369  22.564  0.00  0.00    +0.000 OA
ATOM      3  N   UNL     1      -0.086  11.643  21.107  0.00  0.00    +0.000 N 
ATOM      4  C   UNL     1      -0.734  10.848  22.146  0.00  0.00    +0.000 C 
ATOM      5  C   UNL     1       0.080   9.595  22.470  0.00  0.00    +0.000 C 
ATOM      6  C   UNL     1       0.369   8.792  21.203  0.00  0.00    +0.000 C 
ATOM      7  C   UNL     1       1.022   9.677  20.128  0.00  0.00    +0.000 C 
ATOM      8  C   UNL     1       0.180  10.923  19.855  0.00  0.00    +0.000 C 
ENDROOT
BRANCH   1  12
ATOM      9  C   UNL     1      -0.448  16.771  18.331  0.00  0.00    +0.000 C 
ATOM     10  C   UNL     1       0.411  15.677  18.881  0.00  0.00    +0.000 A 
ATOM     11  C   UNL     1      -0.065  14.860  19.882  0.00  0.00    +0.000 A 
ATOM     12  C   UNL     1       0.795  13.866  20.322  0.00  0.00    +0.000 A 
ATOM     13  N   UNL     1       2.028  13.674  19.816  0.00  0.00    +0.000 NA
ATOM     14  C   UNL     1       2.405  14.538  18.864  0.00  0.00    +0.000 A 
ATOM     15  C   UNL     1       3.788  14.397  18.314  0.00  0.00    +0.000 C 
ATOM     16  N   UNL     1       1.640  15.540  18.391  0.00  0.00    +0.000 NA
ENDBRANCH   1  12
BRANCH   7  17
ATOM     17  C   UNL     1       1.214   8.910  18.838  0.00  0.00    +0.000 C 
ATOM     18  O   UNL     1       0.544   9.189  17.840  0.00  0.00    +0.000 OA
BRANCH  17  19
ATOM     19  C   UNL     1       2.283   7.867  18.684  0.00  0.00    +0.000 A 
ATOM     20  C   UNL     1       3.207   8.181  17.665  0.00  0.00    +0.000 A 
ATOM     21  C   UNL     1       4.210   7.297  17.304  0.00  0.00    +0.000 A 
ATOM     22  C   UNL     1       4.201   6.018  17.832  0.00  0.00    +0.000 A 
ATOM     23  C   UNL     1       3.230   5.641  18.761  0.00  0.00    +0.000 A 
ATOM     24  C   UNL     1       3.087   4.285  19.039  0.00  0.00    +0.000 A 
ATOM     25  C   UNL     1       2.068   3.885  19.879  0.00  0.00    +0.000 A 
ATOM     26  C   UNL     1       1.622   4.772  20.828  0.00  0.00    +0.000 A 
ATOM     27  C   UNL     1       1.652   6.120  20.493  0.00  0.00    +0.000 A 
ATOM     28  C   UNL     1       2.345   6.590  19.336  0.00  0.00    +0.000 A 
ENDBRANCH  17  19
ENDBRANCH   7  17
TORSDOF 3
ENDMDL
MODEL 9
REMARK VINA RESULT:      -7.7      7.122     10.475
REMARK  Name = 
REMARK  5 active torsions:
REMARK  status: ('A' for Active; 'I' for Inactive)
REMARK    1  A    between atoms: C_1  and  C_2
REMARK    2  A    between atoms: C_4  and  C_5
REMARK    3  A    between atoms: C_11  and  C_12
REMARK    4  A    between atoms: C_12  and  C_14
REMARK    5  A    between atoms: C_26  and  C_27
REMARK                            x       y       z     vdW  Elec       q    Type
REMARK                         _______ _______ _______ _____ _____    ______ ____
ROOT
ATOM      1  C   UNL     1      -5.379  11.734  18.110  0.00  0.00    +0.000 C 
ATOM      2  O   UNL     1      -6.382  11.298  17.537  0.00  0.00    +0.000 OA
ATOM      3  N   UNL     1      -4.097  11.583  17.574  0.00  0.00    +0.000 N 
ATOM      4  C   UNL     1      -3.950  11.111  16.200  0.00  0.00    +0.000 C 
ATOM      5  C   UNL     1      -3.204   9.778  16.153  0.00  0.00    +0.000 C 
ATOM      6  C   UNL     1      -1.870   9.875  16.891  0.00  0.00    +0.000 C 
ATOM      7  C   UNL     1      -2.070  10.406  18.321  0.00  0.00    +0.000 C 
ATOM      8  C   UNL     1      -2.837  11.728  18.314  0.00  0.00    +0.000 C 
ENDROOT
BRANCH   1  12
ATOM      9  C   UNL     1      -4.608  15.579  21.170  0.00  0.00    +0.000 C 
ATOM     10  C   UNL     1      -5.215  14.249  20.852  0.00  0.00    +0.000 A 
ATOM     11  C   UNL     1      -4.992  13.664  19.625  0.00  0.00    +0.000 A 
ATOM     12  C   UNL     1      -5.583  12.427  19.422  0.00  0.00    +0.000 A 
ATOM     13  N   UNL     1      -6.330  11.800  20.350  0.00  0.00    +0.000 NA
ATOM     14  C   UNL     1      -6.506  12.465  21.499  0.00  0.00    +0.000 A 
ATOM     15  C   UNL     1      -7.375  11.830  22.537  0.00  0.00    +0.000 C 
ATOM     16  N   UNL     1      -5.983  13.675  21.772  0.00  0.00    +0.000 NA
ENDBRANCH   1  12
BRANCH   7  17
ATOM     17  C   UNL     1      -0.741  10.600  19.017  0.00  0.00    +0.000 C 
ATOM     18  O   UNL     1       0.278  10.838  18.362  0.00  0.00    +0.000 OA
BRANCH  17  19
ATOM     19  C   UNL     1      -0.622  10.621  20.514  0.00  0.00    +0.000 A 
ATOM     20  C   UNL     1      -0.351   9.347  21.056  0.00  0.00    +0.000 A 
ATOM     21  C   UNL     1      -0.302   9.143  22.425  0.00  0.00    +0.000 A 
ATOM     22  C   UNL     1      -0.694  10.164  23.272  0.00  0.00    +0.000 A 
ATOM     23  C   UNL     1      -1.077  11.403  22.758  0.00  0.00    +0.000 A 
ATOM     24  C   UNL     1      -1.729  12.289  23.612  0.00  0.00    +0.000 A 
ATOM     25  C   UNL     1      -2.201  13.479  23.097  0.00  0.00    +0.000 A 
ATOM     26  C   UNL     1      -1.564  14.013  22.004  0.00  0.00    +0.000 A 
ATOM     27  C   UNL     1      -1.023  13.117  21.091  0.00  0.00    +0.000 A 
ATOM     28  C   UNL     1      -0.901  11.725  21.387  0.00  0.00    +0.000 A 
ENDBRANCH  17  19
ENDBRANCH   7  17
TORSDOF 3
ENDMDL
