MODEL 1
REMARK VINA RESULT:      -6.6      0.000      0.000
REMARK  Name = 
REMARK  11 active torsions:
REMARK  status: ('A' for Active; 'I' for Inactive)
REMARK    1  A    between atoms: C_1  and  C_2
REMARK    2  A    between atoms: C_2  and  N_3
REMARK    3  A    between atoms: N_3  and  C_4
REMARK    4  A    between atoms: N_3  and  C_6
REMARK    5  A    between atoms: C_4  and  C_5
REMARK    6  A    between atoms: C_6  and  C_7
REMARK    7  A    between atoms: C_14  and  O_15
REMARK    8  A    between atoms: O_15  and  C_16
REMARK    9  A    between atoms: C_17  and  O_18
REMARK   10  A    between atoms: O_18  and  C_19
REMARK   11  A    between atoms: C_22  and  C_23
REMARK                            x       y       z     vdW  Elec       q    Type
REMARK                         _______ _______ _______ _____ _____    ______ ____
ROOT
ATOM      1  C   UNL     1      -1.536  11.960  18.475  0.00  0.00    +0.000 C 
ATOM      2  O   UNL     1      -1.222  12.583  17.456  0.00  0.00    +0.000 OA
ATOM      3  N   UNL     1      -0.596  11.266  19.237  0.00  0.00    +0.000 N 
ATOM      4  C   UNL     1      -0.969  10.526  20.449  0.00  0.00    +0.000 C 
ATOM      5  C   UNL     1       0.157   9.800  21.180  0.00  0.00    +0.000 C 
ATOM      6  C   UNL     1       1.033   9.088  20.199  0.00  0.00    +0.000 A 
ATOM      7  C   UNL     1       1.608   7.860  20.521  0.00  0.00    +0.000 A 
ATOM      8  C   UNL     1       2.371   7.152  19.586  0.00  0.00    +0.000 A 
ATOM      9  C   UNL     1       2.551   7.682  18.295  0.00  0.00    +0.000 A 
ATOM     10  C   UNL     1       2.025   8.952  18.003  0.00  0.00    +0.000 A 
ATOM     11  C   UNL     1       1.281   9.672  18.952  0.00  0.00    +0.000 A 
ATOM     12  C   UNL     1       0.745  11.072  18.654  0.00  0.00    +0.000 C 
ENDROOT
BRANCH  12  13
ATOM     13  C   UNL     1       1.754  12.168  19.027  0.00  0.00    +0.000 A 
ATOM     14  C   UNL     1       1.792  12.650  20.350  0.00  0.00    +0.000 A 
ATOM     15  C   UNL     1       2.633  13.710  20.711  0.00  0.00    +0.000 A 
ATOM     16  C   UNL     1       3.443  14.306  19.749  0.00  0.00    +0.000 A 
ATOM     17 BR   UNL     1       4.554  15.762  20.220  0.00  0.00    +0.000 Br
ATOM     18  C   UNL     1       3.438  13.836  18.440  0.00  0.00    +0.000 A 
ATOM     19  C   UNL     1       2.608  12.767  18.087  0.00  0.00    +0.000 A 
ENDBRANCH  12  13
BRANCH   8  20
ATOM     20  O   UNL     1       2.822   5.969  20.107  0.00  0.00    +0.000 OA
ATOM     21  C   UNL     1       1.893   4.925  20.346  0.00  0.00    +0.000 C 
ENDBRANCH   8  20
BRANCH   9  22
ATOM     22  O   UNL     1       3.233   6.926  17.380  0.00  0.00    +0.000 OA
ATOM     23  C   UNL     1       4.649   7.026  17.336  0.00  0.00    +0.000 C 
ENDBRANCH   9  22
BRANCH   1  24
ATOM     24  C   UNL     1      -3.024  11.852  18.868  0.00  0.00    +0.000 C 
BRANCH  24  25
ATOM     25  N   UNL     1      -3.897  11.416  17.752  0.00  0.00    +0.000 NA
BRANCH  25  27
ATOM     26  C   UNL     1      -3.105   9.847  15.962  0.00  0.00    +0.000 C 
ATOM     27  C   UNL     1      -3.623  10.017  17.387  0.00  0.00    +0.000 C 
ENDBRANCH  25  27
BRANCH  25  28
ATOM     28  C   UNL     1      -5.307  11.730  18.022  0.00  0.00    +0.000 C 
ATOM     29  C   UNL     1      -6.130  10.630  18.683  0.00  0.00    +0.000 C 
ENDBRANCH  25  28
ENDBRANCH  24  25
ENDBRANCH   1  24
TORSDOF 7
ENDMDL
MODEL 2
REMARK VINA RESULT:      -6.5      0.414      1.298
REMARK  Name = 
REMARK  11 active torsions:
REMARK  status: ('A' for Active; 'I' for Inactive)
REMARK    1  A    between atoms: C_1  and  C_2
REMARK    2  A    between atoms: C_2  and  N_3
REMARK    3  A    between atoms: N_3  and  C_4
REMARK    4  A    between atoms: N_3  and  C_6
REMARK    5  A    between atoms: C_4  and  C_5
REMARK    6  A    between atoms: C_6  and  C_7
REMARK    7  A    between atoms: C_14  and  O_15
REMARK    8  A    between atoms: O_15  and  C_16
REMARK    9  A    between atoms: C_17  and  O_18
REMARK   10  A    between atoms: O_18  and  C_19
REMARK   11  A    between atoms: C_22  and  C_23
REMARK                            x       y       z     vdW  Elec       q    Type
REMARK                         _______ _______ _______ _____ _____    ______ ____
ROOT
ATOM      1  C   UNL     1      -1.575  11.831  18.432  0.00  0.00    +0.000 C 
ATOM      2  O   UNL     1      -1.276  12.462  17.413  0.00  0.00    +0.000 OA
ATOM      3  N   UNL     1      -0.620  11.155  19.191  0.00  0.00    +0.000 N 
ATOM      4  C   UNL     1      -0.975  10.406  20.403  0.00  0.00    +0.000 C 
ATOM      5  C   UNL     1       0.166   9.702  21.130  0.00  0.00    +0.000 C 
ATOM      6  C   UNL     1       1.054   9.008  20.146  0.00  0.00    +0.000 A 
ATOM      7  C   UNL     1       1.654   7.792  20.465  0.00  0.00    +0.000 A 
ATOM      8  C   UNL     1       2.429   7.101  19.528  0.00  0.00    +0.000 A 
ATOM      9  C   UNL     1       2.596   7.636  18.238  0.00  0.00    +0.000 A 
ATOM     10  C   UNL     1       2.044   8.896  17.948  0.00  0.00    +0.000 A 
ATOM     11  C   UNL     1       1.288   9.600  18.900  0.00  0.00    +0.000 A 
ATOM     12  C   UNL     1       0.723  10.989  18.605  0.00  0.00    +0.000 C 
ENDROOT
BRANCH  12  13
ATOM     13  C   UNL     1       1.711  12.104  18.978  0.00  0.00    +0.000 A 
ATOM     14  C   UNL     1       1.673  12.656  20.274  0.00  0.00    +0.000 A 
ATOM     15  C   UNL     1       2.493  13.735  20.626  0.00  0.00    +0.000 A 
ATOM     16  C   UNL     1       3.359  14.280  19.683  0.00  0.00    +0.000 A 
ATOM     17 BR   UNL     1       4.443  15.760  20.140  0.00  0.00    +0.000 Br
ATOM     18  C   UNL     1       3.429  13.741  18.403  0.00  0.00    +0.000 A 
ATOM     19  C   UNL     1       2.619  12.654  18.059  0.00  0.00    +0.000 A 
ENDBRANCH  12  13
BRANCH   8  20
ATOM     20  O   UNL     1       2.905   5.926  20.046  0.00  0.00    +0.000 OA
ATOM     21  C   UNL     1       2.105   4.760  19.951  0.00  0.00    +0.000 C 
ENDBRANCH   8  20
BRANCH   9  22
ATOM     22  O   UNL     1       3.291   6.896  17.320  0.00  0.00    +0.000 OA
ATOM     23  C   UNL     1       4.709   6.980  17.312  0.00  0.00    +0.000 C 
ENDBRANCH   9  22
BRANCH   1  24
ATOM     24  C   UNL     1      -3.060  11.693  18.828  0.00  0.00    +0.000 C 
BRANCH  24  25
ATOM     25  N   UNL     1      -3.839  10.838  17.900  0.00  0.00    +0.000 NA
BRANCH  25  27
ATOM     26  C   UNL     1      -6.128  11.811  17.572  0.00  0.00    +0.000 C 
ATOM     27  C   UNL     1      -4.707  11.655  17.037  0.00  0.00    +0.000 C 
ENDBRANCH  25  27
BRANCH  25  28
ATOM     28  C   UNL     1      -2.969   9.887  17.194  0.00  0.00    +0.000 C 
ATOM     29  C   UNL     1      -3.099   9.850  15.675  0.00  0.00    +0.000 C 
ENDBRANCH  25  28
ENDBRANCH  24  25
ENDBRANCH   1  24
TORSDOF 7
ENDMDL
MODEL 3
REMARK VINA RESULT:      -6.4      0.313      1.018
REMARK  Name = 
REMARK  11 active torsions:
REMARK  status: ('A' for Active; 'I' for Inactive)
REMARK    1  A    between atoms: C_1  and  C_2
REMARK    2  A    between atoms: C_2  and  N_3
REMARK    3  A    between atoms: N_3  and  C_4
REMARK    4  A    between atoms: N_3  and  C_6
REMARK    5  A    between atoms: C_4  and  C_5
REMARK    6  A    between atoms: C_6  and  C_7
REMARK    7  A    between atoms: C_14  and  O_15
REMARK    8  A    between atoms: O_15  and  C_16
REMARK    9  A    between atoms: C_17  and  O_18
REMARK   10  A    between atoms: O_18  and  C_19
REMARK   11  A    between atoms: C_22  and  C_23
REMARK                            x       y       z     vdW  Elec       q    Type
REMARK                         _______ _______ _______ _____ _____    ______ ____
ROOT
ATOM      1  C   UNL     1      -1.597  12.009  18.556  0.00  0.00    +0.000 C 
ATOM      2  O   UNL     1      -1.305  12.663  17.550  0.00  0.00    +0.000 OA
ATOM      3  N   UNL     1      -0.636  11.318  19.294  0.00  0.00    +0.000 N 
ATOM      4  C   UNL     1      -0.983  10.541  20.491  0.00  0.00    +0.000 C 
ATOM      5  C   UNL     1       0.163   9.822  21.196  0.00  0.00    +0.000 C 
ATOM      6  C   UNL     1       1.047   9.153  20.192  0.00  0.00    +0.000 A 
ATOM      7  C   UNL     1       1.651   7.931  20.480  0.00  0.00    +0.000 A 
ATOM      8  C   UNL     1       2.422   7.263  19.523  0.00  0.00    +0.000 A 
ATOM      9  C   UNL     1       2.581   7.827  18.244  0.00  0.00    +0.000 A 
ATOM     10  C   UNL     1       2.025   9.092  17.986  0.00  0.00    +0.000 A 
ATOM     11  C   UNL     1       1.273   9.773  18.958  0.00  0.00    +0.000 A 
ATOM     12  C   UNL     1       0.704  11.167  18.698  0.00  0.00    +0.000 C 
ENDROOT
BRANCH  12  13
ATOM     13  C   UNL     1       1.691  12.276  19.089  0.00  0.00    +0.000 A 
ATOM     14  C   UNL     1       2.545  12.819  18.109  0.00  0.00    +0.000 A 
ATOM     15  C   UNL     1       3.521  13.766  18.442  0.00  0.00    +0.000 A 
ATOM     16  C   UNL     1       3.660  14.178  19.763  0.00  0.00    +0.000 A 
ATOM     17 BR   UNL     1       5.000  15.429  20.226  0.00  0.00    +0.000 Br
ATOM     18  C   UNL     1       2.818  13.671  20.747  0.00  0.00    +0.000 A 
ATOM     19  C   UNL     1       1.834  12.737  20.408  0.00  0.00    +0.000 A 
ENDBRANCH  12  13
BRANCH   8  20
ATOM     20  O   UNL     1       2.903   6.078  20.012  0.00  0.00    +0.000 OA
ATOM     21  C   UNL     1       2.021   4.974  20.126  0.00  0.00    +0.000 C 
ENDBRANCH   8  20
BRANCH   9  22
ATOM     22  O   UNL     1       3.272   7.109  17.307  0.00  0.00    +0.000 OA
ATOM     23  C   UNL     1       4.685   7.021  17.423  0.00  0.00    +0.000 C 
ENDBRANCH   9  22
BRANCH   1  24
ATOM     24  C   UNL     1      -3.080  11.858  18.957  0.00  0.00    +0.000 C 
BRANCH  24  25
ATOM     25  N   UNL     1      -3.940  11.372  17.852  0.00  0.00    +0.000 NA
BRANCH  25  27
ATOM     26  C   UNL     1      -3.003   9.845  16.096  0.00  0.00    +0.000 C 
ATOM     27  C   UNL     1      -3.602   9.986  17.493  0.00  0.00    +0.000 C 
ENDBRANCH  25  27
BRANCH  25  28
ATOM     28  C   UNL     1      -5.362  11.618  18.135  0.00  0.00    +0.000 C 
ATOM     29  C   UNL     1      -6.086  12.568  17.188  0.00  0.00    +0.000 C 
ENDBRANCH  25  28
ENDBRANCH  24  25
ENDBRANCH   1  24
TORSDOF 7
ENDMDL
MODEL 4
REMARK VINA RESULT:      -6.3      3.031      6.704
REMARK  Name = 
REMARK  11 active torsions:
REMARK  status: ('A' for Active; 'I' for Inactive)
REMARK    1  A    between atoms: C_1  and  C_2
REMARK    2  A    between atoms: C_2  and  N_3
REMARK    3  A    between atoms: N_3  and  C_4
REMARK    4  A    between atoms: N_3  and  C_6
REMARK    5  A    between atoms: C_4  and  C_5
REMARK    6  A    between atoms: C_6  and  C_7
REMARK    7  A    between atoms: C_14  and  O_15
REMARK    8  A    between atoms: O_15  and  C_16
REMARK    9  A    between atoms: C_17  and  O_18
REMARK   10  A    between atoms: O_18  and  C_19
REMARK   11  A    between atoms: C_22  and  C_23
REMARK                            x       y       z     vdW  Elec       q    Type
REMARK                         _______ _______ _______ _____ _____    ______ ____
ROOT
ATOM      1  C   UNL     1       2.302  12.857  18.772  0.00  0.00    +0.000 C 
ATOM      2  O   UNL     1       3.008  12.295  17.929  0.00  0.00    +0.000 OA
ATOM      3  N   UNL     1       1.122  12.285  19.248  0.00  0.00    +0.000 N 
ATOM      4  C   UNL     1       0.282  12.953  20.251  0.00  0.00    +0.000 C 
ATOM      5  C   UNL     1      -0.989  12.222  20.674  0.00  0.00    +0.000 C 
ATOM      6  C   UNL     1      -1.686  11.665  19.474  0.00  0.00    +0.000 A 
ATOM      7  C   UNL     1      -3.078  11.624  19.418  0.00  0.00    +0.000 A 
ATOM      8  C   UNL     1      -3.741  11.170  18.272  0.00  0.00    +0.000 A 
ATOM      9  C   UNL     1      -2.992  10.759  17.155  0.00  0.00    +0.000 A 
ATOM     10  C   UNL     1      -1.590  10.739  17.247  0.00  0.00    +0.000 A 
ATOM     11  C   UNL     1      -0.927  11.171  18.408  0.00  0.00    +0.000 A 
ATOM     12  C   UNL     1       0.595  11.110  18.530  0.00  0.00    +0.000 C 
ENDROOT
BRANCH  12  13
ATOM     13  C   UNL     1       1.075   9.765  19.095  0.00  0.00    +0.000 A 
ATOM     14  C   UNL     1       1.774   8.873  18.256  0.00  0.00    +0.000 A 
ATOM     15  C   UNL     1       2.149   7.602  18.704  0.00  0.00    +0.000 A 
ATOM     16  C   UNL     1       1.826   7.202  19.997  0.00  0.00    +0.000 A 
ATOM     17 BR   UNL     1       2.297   5.472  20.597  0.00  0.00    +0.000 Br
ATOM     18  C   UNL     1       1.153   8.070  20.851  0.00  0.00    +0.000 A 
ATOM     19  C   UNL     1       0.793   9.346  20.405  0.00  0.00    +0.000 A 
ENDBRANCH  12  13
BRANCH   8  20
ATOM     20  O   UNL     1      -5.100  11.232  18.428  0.00  0.00    +0.000 OA
ATOM     21  C   UNL     1      -5.739  12.497  18.388  0.00  0.00    +0.000 C 
ENDBRANCH   8  20
BRANCH   9  22
ATOM     22  O   UNL     1      -3.672  10.400  16.023  0.00  0.00    +0.000 OA
ATOM     23  C   UNL     1      -2.935  10.180  14.829  0.00  0.00    +0.000 C 
ENDBRANCH   9  22
BRANCH   1  24
ATOM     24  C   UNL     1       2.669  14.281  19.240  0.00  0.00    +0.000 C 
BRANCH  24  25
ATOM     25  N   UNL     1       2.152  15.345  18.347  0.00  0.00    +0.000 NA
BRANCH  25  27
ATOM     26  C   UNL     1      -0.160  16.230  18.753  0.00  0.00    +0.000 C 
ATOM     27  C   UNL     1       1.325  16.304  19.097  0.00  0.00    +0.000 C 
ENDBRANCH  25  27
BRANCH  25  28
ATOM     28  C   UNL     1       3.230  15.940  17.545  0.00  0.00    +0.000 C 
ATOM     29  C   UNL     1       2.895  17.237  16.817  0.00  0.00    +0.000 C 
ENDBRANCH  25  28
ENDBRANCH  24  25
ENDBRANCH   1  24
TORSDOF 7
ENDMDL
MODEL 5
REMARK VINA RESULT:      -6.2      3.150      6.743
REMARK  Name = 
REMARK  11 active torsions:
REMARK  status: ('A' for Active; 'I' for Inactive)
REMARK    1  A    between atoms: C_1  and  C_2
REMARK    2  A    between atoms: C_2  and  N_3
REMARK    3  A    between atoms: N_3  and  C_4
REMARK    4  A    between atoms: N_3  and  C_6
REMARK    5  A    between atoms: C_4  and  C_5
REMARK    6  A    between atoms: C_6  and  C_7
REMARK    7  A    between atoms: C_14  and  O_15
REMARK    8  A    between atoms: O_15  and  C_16
REMARK    9  A    between atoms: C_17  and  O_18
REMARK   10  A    between atoms: O_18  and  C_19
REMARK   11  A    between atoms: C_22  and  C_23
REMARK                            x       y       z     vdW  Elec       q    Type
REMARK                         _______ _______ _______ _____ _____    ______ ____
ROOT
ATOM      1  C   UNL     1       1.839  13.544  19.174  0.00  0.00    +0.000 C 
ATOM      2  O   UNL     1       2.641  13.197  18.302  0.00  0.00    +0.000 OA
ATOM      3  N   UNL     1       0.705  12.791  19.479  0.00  0.00    +0.000 N 
ATOM      4  C   UNL     1      -0.249  13.204  20.517  0.00  0.00    +0.000 C 
ATOM      5  C   UNL     1      -1.454  12.294  20.738  0.00  0.00    +0.000 C 
ATOM      6  C   UNL     1      -2.029  11.873  19.424  0.00  0.00    +0.000 A 
ATOM      7  C   UNL     1      -3.404  11.706  19.272  0.00  0.00    +0.000 A 
ATOM      8  C   UNL     1      -3.959  11.381  18.030  0.00  0.00    +0.000 A 
ATOM      9  C   UNL     1      -3.118  11.230  16.913  0.00  0.00    +0.000 A 
ATOM     10  C   UNL     1      -1.727  11.331  17.092  0.00  0.00    +0.000 A 
ATOM     11  C   UNL     1      -1.171  11.633  18.346  0.00  0.00    +0.000 A 
ATOM     12  C   UNL     1       0.342  11.701  18.555  0.00  0.00    +0.000 C 
ENDROOT
BRANCH  12  13
ATOM     13  C   UNL     1       0.934  10.336  18.933  0.00  0.00    +0.000 A 
ATOM     14  C   UNL     1       1.593   9.572  17.950  0.00  0.00    +0.000 A 
ATOM     15  C   UNL     1       2.067   8.285  18.229  0.00  0.00    +0.000 A 
ATOM     16  C   UNL     1       1.883   7.742  19.497  0.00  0.00    +0.000 A 
ATOM     17 BR   UNL     1       2.488   5.990  19.871  0.00  0.00    +0.000 Br
ATOM     18  C   UNL     1       1.252   8.482  20.491  0.00  0.00    +0.000 A 
ATOM     19  C   UNL     1       0.793   9.774  20.212  0.00  0.00    +0.000 A 
ENDBRANCH  12  13
BRANCH   8  20
ATOM     20  O   UNL     1      -5.324  11.284  18.106  0.00  0.00    +0.000 OA
ATOM     21  C   UNL     1      -6.108  12.440  17.864  0.00  0.00    +0.000 C 
ENDBRANCH   8  20
BRANCH   9  22
ATOM     22  O   UNL     1      -3.700  10.993  15.697  0.00  0.00    +0.000 OA
ATOM     23  C   UNL     1      -3.021  10.159  14.769  0.00  0.00    +0.000 C 
ENDBRANCH   9  22
BRANCH   1  24
ATOM     24  C   UNL     1       2.030  14.903  19.881  0.00  0.00    +0.000 C 
BRANCH  24  25
ATOM     25  N   UNL     1       1.713  16.064  19.017  0.00  0.00    +0.000 NA
BRANCH  25  27
ATOM     26  C   UNL     1      -0.267  17.220  17.999  0.00  0.00    +0.000 C 
ATOM     27  C   UNL     1       0.319  16.496  19.208  0.00  0.00    +0.000 C 
ENDBRANCH  25  27
BRANCH  25  28
ATOM     28  C   UNL     1       2.722  17.124  19.154  0.00  0.00    +0.000 C 
ATOM     29  C   UNL     1       2.658  17.958  20.429  0.00  0.00    +0.000 C 
ENDBRANCH  25  28
ENDBRANCH  24  25
ENDBRANCH   1  24
TORSDOF 7
ENDMDL
MODEL 6
REMARK VINA RESULT:      -6.2      3.044      6.825
REMARK  Name = 
REMARK  11 active torsions:
REMARK  status: ('A' for Active; 'I' for Inactive)
REMARK    1  A    between atoms: C_1  and  C_2
REMARK    2  A    between atoms: C_2  and  N_3
REMARK    3  A    between atoms: N_3  and  C_4
REMARK    4  A    between atoms: N_3  and  C_6
REMARK    5  A    between atoms: C_4  and  C_5
REMARK    6  A    between atoms: C_6  and  C_7
REMARK    7  A    between atoms: C_14  and  O_15
REMARK    8  A    between atoms: O_15  and  C_16
REMARK    9  A    between atoms: C_17  and  O_18
REMARK   10  A    between atoms: O_18  and  C_19
REMARK   11  A    between atoms: C_22  and  C_23
REMARK                            x       y       z     vdW  Elec       q    Type
REMARK                         _______ _______ _______ _____ _____    ______ ____
ROOT
ATOM      1  C   UNL     1       2.155  13.193  19.086  0.00  0.00    +0.000 C 
ATOM      2  O   UNL     1       2.846  12.766  18.156  0.00  0.00    +0.000 OA
ATOM      3  N   UNL     1       0.972  12.566  19.477  0.00  0.00    +0.000 N 
ATOM      4  C   UNL     1       0.150  13.073  20.583  0.00  0.00    +0.000 C 
ATOM      5  C   UNL     1      -1.127  12.299  20.897  0.00  0.00    +0.000 C 
ATOM      6  C   UNL     1      -1.843  11.951  19.630  0.00  0.00    +0.000 A 
ATOM      7  C   UNL     1      -3.235  11.936  19.583  0.00  0.00    +0.000 A 
ATOM      8  C   UNL     1      -3.914  11.681  18.387  0.00  0.00    +0.000 A 
ATOM      9  C   UNL     1      -3.181  11.447  17.210  0.00  0.00    +0.000 A 
ATOM     10  C   UNL     1      -1.778  11.395  17.283  0.00  0.00    +0.000 A 
ATOM     11  C   UNL     1      -1.099  11.626  18.491  0.00  0.00    +0.000 A 
ATOM     12  C   UNL     1       0.423  11.528  18.585  0.00  0.00    +0.000 C 
ENDROOT
BRANCH  12  13
ATOM     13  C   UNL     1       0.889  10.104  18.919  0.00  0.00    +0.000 A 
ATOM     14  C   UNL     1       0.780   9.634  20.244  0.00  0.00    +0.000 A 
ATOM     15  C   UNL     1       1.276   8.378  20.610  0.00  0.00    +0.000 A 
ATOM     16  C   UNL     1       1.894   7.575  19.656  0.00  0.00    +0.000 A 
ATOM     17 BR   UNL     1       2.598   5.892  20.152  0.00  0.00    +0.000 Br
ATOM     18  C   UNL     1       1.998   8.007  18.338  0.00  0.00    +0.000 A 
ATOM     19  C   UNL     1       1.487   9.257  17.973  0.00  0.00    +0.000 A 
ENDBRANCH  12  13
BRANCH   8  20
ATOM     20  O   UNL     1      -5.271  11.733  18.566  0.00  0.00    +0.000 OA
ATOM     21  C   UNL     1      -5.996  10.521  18.680  0.00  0.00    +0.000 C 
ENDBRANCH   8  20
BRANCH   9  22
ATOM     22  O   UNL     1      -3.875  11.283  16.042  0.00  0.00    +0.000 OA
ATOM     23  C   UNL     1      -3.340  10.421  15.048  0.00  0.00    +0.000 C 
ENDBRANCH   9  22
BRANCH   1  24
ATOM     24  C   UNL     1       2.546  14.517  19.774  0.00  0.00    +0.000 C 
BRANCH  24  25
ATOM     25  N   UNL     1       2.887  15.598  18.818  0.00  0.00    +0.000 NA
BRANCH  25  27
ATOM     26  C   UNL     1       0.506  16.357  18.601  0.00  0.00    +0.000 C 
ATOM     27  C   UNL     1       1.947  16.724  18.941  0.00  0.00    +0.000 C 
ENDBRANCH  25  27
BRANCH  25  28
ATOM     28  C   UNL     1       4.310  15.956  18.902  0.00  0.00    +0.000 C 
ATOM     29  C   UNL     1       5.252  15.209  17.964  0.00  0.00    +0.000 C 
ENDBRANCH  25  28
ENDBRANCH  24  25
ENDBRANCH   1  24
TORSDOF 7
ENDMDL
MODEL 7
REMARK VINA RESULT:      -6.1      3.177      6.831
REMARK  Name = 
REMARK  11 active torsions:
REMARK  status: ('A' for Active; 'I' for Inactive)
REMARK    1  A    between atoms: C_1  and  C_2
REMARK    2  A    between atoms: C_2  and  N_3
REMARK    3  A    between atoms: N_3  and  C_4
REMARK    4  A    between atoms: N_3  and  C_6
REMARK    5  A    between atoms: C_4  and  C_5
REMARK    6  A    between atoms: C_6  and  C_7
REMARK    7  A    between atoms: C_14  and  O_15
REMARK    8  A    between atoms: O_15  and  C_16
REMARK    9  A    between atoms: C_17  and  O_18
REMARK   10  A    between atoms: O_18  and  C_19
REMARK   11  A    between atoms: C_22  and  C_23
REMARK                            x       y       z     vdW  Elec       q    Type
REMARK                         _______ _______ _______ _____ _____    ______ ____
ROOT
ATOM      1  C   UNL     1       1.948  13.652  19.001  0.00  0.00    +0.000 C 
ATOM      2  O   UNL     1       2.666  13.244  18.083  0.00  0.00    +0.000 OA
ATOM      3  N   UNL     1       0.820  12.949  19.426  0.00  0.00    +0.000 N 
ATOM      4  C   UNL     1      -0.033  13.432  20.519  0.00  0.00    +0.000 C 
ATOM      5  C   UNL     1      -1.243  12.573  20.873  0.00  0.00    +0.000 C 
ATOM      6  C   UNL     1      -1.936  12.120  19.628  0.00  0.00    +0.000 A 
ATOM      7  C   UNL     1      -3.323  11.993  19.593  0.00  0.00    +0.000 A 
ATOM      8  C   UNL     1      -3.986  11.639  18.413  0.00  0.00    +0.000 A 
ATOM      9  C   UNL     1      -3.243  11.418  17.240  0.00  0.00    +0.000 A 
ATOM     10  C   UNL     1      -1.840  11.480  17.303  0.00  0.00    +0.000 A 
ATOM     11  C   UNL     1      -1.175  11.811  18.495  0.00  0.00    +0.000 A 
ATOM     12  C   UNL     1       0.351  11.837  18.580  0.00  0.00    +0.000 C 
ENDROOT
BRANCH  12  13
ATOM     13  C   UNL     1       0.930  10.468  18.965  0.00  0.00    +0.000 A 
ATOM     14  C   UNL     1       1.566   9.685  17.981  0.00  0.00    +0.000 A 
ATOM     15  C   UNL     1       2.027   8.395  18.269  0.00  0.00    +0.000 A 
ATOM     16  C   UNL     1       1.854   7.868  19.545  0.00  0.00    +0.000 A 
ATOM     17 BR   UNL     1       2.442   6.114  19.930  0.00  0.00    +0.000 Br
ATOM     18  C   UNL     1       1.247   8.628  20.539  0.00  0.00    +0.000 A 
ATOM     19  C   UNL     1       0.801   9.923  20.252  0.00  0.00    +0.000 A 
ENDBRANCH  12  13
BRANCH   8  20
ATOM     20  O   UNL     1      -5.342  11.591  18.602  0.00  0.00    +0.000 OA
ATOM     21  C   UNL     1      -6.068  12.806  18.677  0.00  0.00    +0.000 C 
ENDBRANCH   8  20
BRANCH   9  22
ATOM     22  O   UNL     1      -3.929  11.154  16.086  0.00  0.00    +0.000 OA
ATOM     23  C   UNL     1      -3.240  10.523  15.015  0.00  0.00    +0.000 C 
ENDBRANCH   9  22
BRANCH   1  24
ATOM     24  C   UNL     1       2.237  15.029  19.634  0.00  0.00    +0.000 C 
BRANCH  24  25
ATOM     25  N   UNL     1       1.476  16.136  19.006  0.00  0.00    +0.000 NA
BRANCH  25  27
ATOM     26  C   UNL     1       1.651  16.982  21.361  0.00  0.00    +0.000 C 
ATOM     27  C   UNL     1       0.911  17.031  20.027  0.00  0.00    +0.000 C 
ENDBRANCH  25  27
BRANCH  25  28
ATOM     28  C   UNL     1       2.265  16.798  17.957  0.00  0.00    +0.000 C 
ATOM     29  C   UNL     1       1.554  17.890  17.165  0.00  0.00    +0.000 C 
ENDBRANCH  25  28
ENDBRANCH  24  25
ENDBRANCH   1  24
TORSDOF 7
ENDMDL
MODEL 8
REMARK VINA RESULT:      -6.1      3.267      6.938
REMARK  Name = 
REMARK  11 active torsions:
REMARK  status: ('A' for Active; 'I' for Inactive)
REMARK    1  A    between atoms: C_1  and  C_2
REMARK    2  A    between atoms: C_2  and  N_3
REMARK    3  A    between atoms: N_3  and  C_4
REMARK    4  A    between atoms: N_3  and  C_6
REMARK    5  A    between atoms: C_4  and  C_5
REMARK    6  A    between atoms: C_6  and  C_7
REMARK    7  A    between atoms: C_14  and  O_15
REMARK    8  A    between atoms: O_15  and  C_16
REMARK    9  A    between atoms: C_17  and  O_18
REMARK   10  A    between atoms: O_18  and  C_19
REMARK   11  A    between atoms: C_22  and  C_23
REMARK                            x       y       z     vdW  Elec       q    Type
REMARK                         _______ _______ _______ _____ _____    ______ ____
ROOT
ATOM      1  C   UNL     1       0.890  14.036  19.035  0.00  0.00    +0.000 C 
ATOM      2  O   UNL     1       1.783  13.685  18.258  0.00  0.00    +0.000 OA
ATOM      3  N   UNL     1      -0.199  13.215  19.331  0.00  0.00    +0.000 N 
ATOM      4  C   UNL     1      -1.260  13.631  20.256  0.00  0.00    +0.000 C 
ATOM      5  C   UNL     1      -2.400  12.642  20.479  0.00  0.00    +0.000 C 
ATOM      6  C   UNL     1      -2.836  12.056  19.174  0.00  0.00    +0.000 A 
ATOM      7  C   UNL     1      -4.177  11.756  18.943  0.00  0.00    +0.000 A 
ATOM      8  C   UNL     1      -4.607  11.275  17.702  0.00  0.00    +0.000 A 
ATOM      9  C   UNL     1      -3.672  11.101  16.665  0.00  0.00    +0.000 A 
ATOM     10  C   UNL     1      -2.312  11.341  16.929  0.00  0.00    +0.000 A 
ATOM     11  C   UNL     1      -1.880  11.800  18.185  0.00  0.00    +0.000 A 
ATOM     12  C   UNL     1      -0.399  12.020  18.491  0.00  0.00    +0.000 C 
ENDROOT
BRANCH  12  13
ATOM     13  C   UNL     1       0.271  10.751  19.036  0.00  0.00    +0.000 A 
ATOM     14  C   UNL     1       1.117  10.000  18.195  0.00  0.00    +0.000 A 
ATOM     15  C   UNL     1       1.676   8.791  18.624  0.00  0.00    +0.000 A 
ATOM     16  C   UNL     1       1.391   8.312  19.899  0.00  0.00    +0.000 A 
ATOM     17 BR   UNL     1       2.113   6.661  20.471  0.00  0.00    +0.000 Br
ATOM     18  C   UNL     1       0.575   9.043  20.755  0.00  0.00    +0.000 A 
ATOM     19  C   UNL     1       0.031  10.259  20.329  0.00  0.00    +0.000 A 
ENDBRANCH  12  13
BRANCH   8  20
ATOM     20  O   UNL     1      -5.960  11.065  17.692  0.00  0.00    +0.000 OA
ATOM     21  C   UNL     1      -6.576  10.501  18.837  0.00  0.00    +0.000 C 
ENDBRANCH   8  20
BRANCH   9  22
ATOM     22  O   UNL     1      -4.137  10.708  15.440  0.00  0.00    +0.000 OA
ATOM     23  C   UNL     1      -3.222  10.134  14.517  0.00  0.00    +0.000 C 
ENDBRANCH   9  22
BRANCH   1  24
ATOM     24  C   UNL     1       0.915  15.462  19.622  0.00  0.00    +0.000 C 
BRANCH  24  25
ATOM     25  N   UNL     1       2.216  16.150  19.441  0.00  0.00    +0.000 NA
BRANCH  25  27
ATOM     26  C   UNL     1       2.956  16.866  17.153  0.00  0.00    +0.000 C 
ATOM     27  C   UNL     1       2.124  17.179  18.394  0.00  0.00    +0.000 C 
ENDBRANCH  25  27
BRANCH  25  28
ATOM     28  C   UNL     1       2.761  16.609  20.726  0.00  0.00    +0.000 C 
ATOM     29  C   UNL     1       3.314  18.029  20.757  0.00  0.00    +0.000 C 
ENDBRANCH  25  28
ENDBRANCH  24  25
ENDBRANCH   1  24
TORSDOF 7
ENDMDL
MODEL 9
REMARK VINA RESULT:      -6.1      3.177      6.606
REMARK  Name = 
REMARK  11 active torsions:
REMARK  status: ('A' for Active; 'I' for Inactive)
REMARK    1  A    between atoms: C_1  and  C_2
REMARK    2  A    between atoms: C_2  and  N_3
REMARK    3  A    between atoms: N_3  and  C_4
REMARK    4  A    between atoms: N_3  and  C_6
REMARK    5  A    between atoms: C_4  and  C_5
REMARK    6  A    between atoms: C_6  and  C_7
REMARK    7  A    between atoms: C_14  and  O_15
REMARK    8  A    between atoms: O_15  and  C_16
REMARK    9  A    between atoms: C_17  and  O_18
REMARK   10  A    between atoms: O_18  and  C_19
REMARK   11  A    between atoms: C_22  and  C_23
REMARK                            x       y       z     vdW  Elec       q    Type
REMARK                         _______ _______ _______ _____ _____    ______ ____
ROOT
ATOM      1  C   UNL     1       1.816  13.653  19.285  0.00  0.00    +0.000 C 
ATOM      2  O   UNL     1       2.614  13.313  18.406  0.00  0.00    +0.000 OA
ATOM      3  N   UNL     1       0.684  12.898  19.589  0.00  0.00    +0.000 N 
ATOM      4  C   UNL     1      -0.264  13.302  20.635  0.00  0.00    +0.000 C 
ATOM      5  C   UNL     1      -1.469  12.392  20.855  0.00  0.00    +0.000 C 
ATOM      6  C   UNL     1      -2.052  11.982  19.540  0.00  0.00    +0.000 A 
ATOM      7  C   UNL     1      -3.428  11.818  19.393  0.00  0.00    +0.000 A 
ATOM      8  C   UNL     1      -3.989  11.505  18.151  0.00  0.00    +0.000 A 
ATOM      9  C   UNL     1      -3.154  11.363  17.028  0.00  0.00    +0.000 A 
ATOM     10  C   UNL     1      -1.762  11.462  17.201  0.00  0.00    +0.000 A 
ATOM     11  C   UNL     1      -1.199  11.752  18.455  0.00  0.00    +0.000 A 
ATOM     12  C   UNL     1       0.315  11.817  18.657  0.00  0.00    +0.000 C 
ENDROOT
BRANCH  12  13
ATOM     13  C   UNL     1       0.907  10.448  19.020  0.00  0.00    +0.000 A 
ATOM     14  C   UNL     1       1.518   9.671  18.016  0.00  0.00    +0.000 A 
ATOM     15  C   UNL     1       1.990   8.381  18.284  0.00  0.00    +0.000 A 
ATOM     16  C   UNL     1       1.852   7.848  19.562  0.00  0.00    +0.000 A 
ATOM     17 BR   UNL     1       2.454   6.092  19.923  0.00  0.00    +0.000 Br
ATOM     18  C   UNL     1       1.270   8.601  20.576  0.00  0.00    +0.000 A 
ATOM     19  C   UNL     1       0.814   9.896  20.308  0.00  0.00    +0.000 A 
ENDBRANCH  12  13
BRANCH   8  20
ATOM     20  O   UNL     1      -5.353  11.408  18.233  0.00  0.00    +0.000 OA
ATOM     21  C   UNL     1      -6.134  12.581  18.077  0.00  0.00    +0.000 C 
ENDBRANCH   8  20
BRANCH   9  22
ATOM     22  O   UNL     1      -3.742  11.137  15.814  0.00  0.00    +0.000 OA
ATOM     23  C   UNL     1      -3.133  10.211  14.925  0.00  0.00    +0.000 C 
ENDBRANCH   9  22
BRANCH   1  24
ATOM     24  C   UNL     1       2.012  15.005  20.003  0.00  0.00    +0.000 C 
BRANCH  24  25
ATOM     25  N   UNL     1       1.869  16.174  19.103  0.00  0.00    +0.000 NA
BRANCH  25  27
ATOM     26  C   UNL     1       2.680  17.163  16.945  0.00  0.00    +0.000 C 
ATOM     27  C   UNL     1       2.941  16.196  18.095  0.00  0.00    +0.000 C 
ENDBRANCH  25  27
BRANCH  25  28
ATOM     28  C   UNL     1       0.504  16.273  18.569  0.00  0.00    +0.000 C 
ATOM     29  C   UNL     1      -0.565  16.774  19.533  0.00  0.00    +0.000 C 
ENDBRANCH  25  28
ENDBRANCH  24  25
ENDBRANCH   1  24
TORSDOF 7
ENDMDL
