MODEL 1
REMARK VINA RESULT:      -7.7      0.000      0.000
REMARK  Name = 
REMARK  8 active torsions:
REMARK  status: ('A' for Active; 'I' for Inactive)
REMARK    1  A    between atoms: C_1  and  O_2
REMARK    2  A    between atoms: O_2  and  C_3
REMARK    3  A    between atoms: C_6  and  C_7
REMARK    4  A    between atoms: C_8  and  C_9
REMARK    5  A    between atoms: N_11  and  C_12
REMARK    6  A    between atoms: C_12  and  C_13
REMARK    7  A    between atoms: C_20  and  O_21
REMARK    8  A    between atoms: O_21  and  C_22
REMARK                            x       y       z     vdW  Elec       q    Type
REMARK                         _______ _______ _______ _____ _____    ______ ____
ROOT
ATOM      1  C   UNL     1       9.044   9.581  18.918  0.00  0.00    +0.000 C 
ATOM      2  C   UNL     1       8.290   9.142  17.897  0.00  0.00    +0.000 C 
ENDROOT
BRANCH   1   6
ATOM      3  C   UNL     1      10.467  13.627  19.048  0.00  0.00    +0.000 A 
ATOM      4  C   UNL     1      10.451  12.902  17.857  0.00  0.00    +0.000 A 
ATOM      5  C   UNL     1       9.986  11.584  17.832  0.00  0.00    +0.000 A 
ATOM      6  C   UNL     1       9.520  10.971  19.003  0.00  0.00    +0.000 A 
ATOM      7  C   UNL     1       9.517  11.703  20.207  0.00  0.00    +0.000 A 
ATOM      8  C   UNL     1      10.000  13.022  20.219  0.00  0.00    +0.000 A 
BRANCH   3  10
ATOM      9  C   UNL     1      11.776  15.195  17.824  0.00  0.00    +0.000 C 
ATOM     10  O   UNL     1      10.944  14.904  18.942  0.00  0.00    +0.000 OA
ENDBRANCH   3  10
BRANCH   7  11
ATOM     11  O   UNL     1       9.025  11.059  21.316  0.00  0.00    +0.000 OA
ATOM     12  C   UNL     1       8.388  11.860  22.306  0.00  0.00    +0.000 C 
ENDBRANCH   7  11
ENDBRANCH   1   6
BRANCH   2  13
ATOM     13  C   UNL     1       7.800   7.736  17.874  0.00  0.00    +0.000 C 
ATOM     14  O   UNL     1       8.150   6.902  18.697  0.00  0.00    +0.000 OA
ATOM     15  N   UNL     1       6.903   7.489  16.861  0.00  0.00    +0.000 N 
ATOM     16  H   UNL     1       6.564   8.249  16.287  0.00  0.00    +0.000 HD
BRANCH  15  17
ATOM     17  C   UNL     1       6.222   6.216  16.766  0.00  0.00    +0.000 C 
BRANCH  17  18
ATOM     18  C   UNL     1       5.046   6.132  17.711  0.00  0.00    +0.000 A 
ATOM     19  C   UNL     1       5.034   5.179  18.742  0.00  0.00    +0.000 A 
ATOM     20  C   UNL     1       3.960   5.111  19.635  0.00  0.00    +0.000 A 
ATOM     21  C   UNL     1       2.887   5.987  19.497  0.00  0.00    +0.000 A 
ATOM     22 CL   UNL     1       1.571   5.911  20.604  0.00  0.00    +0.000 Cl
ATOM     23  C   UNL     1       2.877   6.929  18.471  0.00  0.00    +0.000 A 
ATOM     24  C   UNL     1       3.951   6.999  17.578  0.00  0.00    +0.000 A 
ENDBRANCH  17  18
ENDBRANCH  15  17
ENDBRANCH   2  13
TORSDOF 6
ENDMDL
MODEL 2
REMARK VINA RESULT:      -7.7      0.223      1.032
REMARK  Name = 
REMARK  8 active torsions:
REMARK  status: ('A' for Active; 'I' for Inactive)
REMARK    1  A    between atoms: C_1  and  O_2
REMARK    2  A    between atoms: O_2  and  C_3
REMARK    3  A    between atoms: C_6  and  C_7
REMARK    4  A    between atoms: C_8  and  C_9
REMARK    5  A    between atoms: N_11  and  C_12
REMARK    6  A    between atoms: C_12  and  C_13
REMARK    7  A    between atoms: C_20  and  O_21
REMARK    8  A    between atoms: O_21  and  C_22
REMARK                            x       y       z     vdW  Elec       q    Type
REMARK                         _______ _______ _______ _____ _____    ______ ____
ROOT
ATOM      1  C   UNL     1       8.988   9.544  18.918  0.00  0.00    +0.000 C 
ATOM      2  C   UNL     1       8.300   9.087  17.859  0.00  0.00    +0.000 C 
ENDROOT
BRANCH   1   6
ATOM      3  C   UNL     1      10.468  13.570  19.024  0.00  0.00    +0.000 A 
ATOM      4  C   UNL     1      10.422  12.846  17.833  0.00  0.00    +0.000 A 
ATOM      5  C   UNL     1       9.938  11.534  17.816  0.00  0.00    +0.000 A 
ATOM      6  C   UNL     1       9.485  10.927  18.995  0.00  0.00    +0.000 A 
ATOM      7  C   UNL     1       9.513  11.659  20.199  0.00  0.00    +0.000 A 
ATOM      8  C   UNL     1      10.014  12.971  20.202  0.00  0.00    +0.000 A 
BRANCH   3  10
ATOM      9  C   UNL     1      10.792  15.491  17.654  0.00  0.00    +0.000 C 
ATOM     10  O   UNL     1      10.961  14.840  18.910  0.00  0.00    +0.000 OA
ENDBRANCH   3  10
BRANCH   7  11
ATOM     11  O   UNL     1       9.032  11.021  21.317  0.00  0.00    +0.000 OA
ATOM     12  C   UNL     1       8.394  11.826  22.303  0.00  0.00    +0.000 C 
ENDBRANCH   7  11
ENDBRANCH   1   6
BRANCH   2  13
ATOM     13  C   UNL     1       7.785   7.690  17.844  0.00  0.00    +0.000 C 
ATOM     14  O   UNL     1       8.126   6.852  18.666  0.00  0.00    +0.000 OA
ATOM     15  N   UNL     1       6.875   7.456  16.838  0.00  0.00    +0.000 N 
ATOM     16  H   UNL     1       6.546   8.220  16.266  0.00  0.00    +0.000 HD
BRANCH  15  17
ATOM     17  C   UNL     1       6.171   6.195  16.753  0.00  0.00    +0.000 C 
BRANCH  17  18
ATOM     18  C   UNL     1       5.023   6.121  17.731  0.00  0.00    +0.000 A 
ATOM     19  C   UNL     1       3.935   7.000  17.612  0.00  0.00    +0.000 A 
ATOM     20  C   UNL     1       2.856   6.922  18.498  0.00  0.00    +0.000 A 
ATOM     21  C   UNL     1       2.863   5.972  19.516  0.00  0.00    +0.000 A 
ATOM     22 CL   UNL     1       1.530   5.868  20.600  0.00  0.00    +0.000 Cl
ATOM     23  C   UNL     1       3.941   5.101  19.657  0.00  0.00    +0.000 A 
ATOM     24  C   UNL     1       5.020   5.178  18.770  0.00  0.00    +0.000 A 
ENDBRANCH  17  18
ENDBRANCH  15  17
ENDBRANCH   2  13
TORSDOF 6
ENDMDL
MODEL 3
REMARK VINA RESULT:      -7.4      6.734      9.090
REMARK  Name = 
REMARK  8 active torsions:
REMARK  status: ('A' for Active; 'I' for Inactive)
REMARK    1  A    between atoms: C_1  and  O_2
REMARK    2  A    between atoms: O_2  and  C_3
REMARK    3  A    between atoms: C_6  and  C_7
REMARK    4  A    between atoms: C_8  and  C_9
REMARK    5  A    between atoms: N_11  and  C_12
REMARK    6  A    between atoms: C_12  and  C_13
REMARK    7  A    between atoms: C_20  and  O_21
REMARK    8  A    between atoms: O_21  and  C_22
REMARK                            x       y       z     vdW  Elec       q    Type
REMARK                         _______ _______ _______ _____ _____    ______ ____
ROOT
ATOM      1  C   UNL     1       2.660   6.981  18.401  0.00  0.00    +0.000 C 
ATOM      2  C   UNL     1       2.324   8.189  17.921  0.00  0.00    +0.000 C 
ENDROOT
BRANCH   1   6
ATOM      3  C   UNL     1       5.182   4.340  16.149  0.00  0.00    +0.000 A 
ATOM      4  C   UNL     1       5.377   5.721  16.129  0.00  0.00    +0.000 A 
ATOM      5  C   UNL     1       4.545   6.568  16.867  0.00  0.00    +0.000 A 
ATOM      6  C   UNL     1       3.505   6.042  17.646  0.00  0.00    +0.000 A 
ATOM      7  C   UNL     1       3.313   4.647  17.684  0.00  0.00    +0.000 A 
ATOM      8  C   UNL     1       4.149   3.810  16.927  0.00  0.00    +0.000 A 
BRANCH   3  10
ATOM      9  C   UNL     1       6.342   4.116  14.081  0.00  0.00    +0.000 C 
ATOM     10  O   UNL     1       6.060   3.621  15.386  0.00  0.00    +0.000 OA
ENDBRANCH   3  10
BRANCH   7  11
ATOM     11  O   UNL     1       2.295   4.189  18.486  0.00  0.00    +0.000 OA
ATOM     12  C   UNL     1       2.548   3.016  19.253  0.00  0.00    +0.000 C 
ENDBRANCH   7  11
ENDBRANCH   1   6
BRANCH   2  13
ATOM     13  C   UNL     1       1.498   9.120  18.739  0.00  0.00    +0.000 C 
ATOM     14  O   UNL     1       1.318   8.962  19.938  0.00  0.00    +0.000 OA
ATOM     15  N   UNL     1       0.990  10.175  18.017  0.00  0.00    +0.000 N 
ATOM     16  H   UNL     1       1.272  10.313  17.056  0.00  0.00    +0.000 HD
BRANCH  15  17
ATOM     17  C   UNL     1       0.276  11.249  18.673  0.00  0.00    +0.000 C 
BRANCH  17  18
ATOM     18  C   UNL     1      -1.216  11.150  18.460  0.00  0.00    +0.000 A 
ATOM     19  C   UNL     1      -2.085  12.025  19.129  0.00  0.00    +0.000 A 
ATOM     20  C   UNL     1      -3.466  11.956  18.919  0.00  0.00    +0.000 A 
ATOM     21  C   UNL     1      -3.987  11.005  18.047  0.00  0.00    +0.000 A 
ATOM     22 CL   UNL     1      -5.686  10.927  17.779  0.00  0.00    +0.000 Cl
ATOM     23  C   UNL     1      -3.140  10.119  17.385  0.00  0.00    +0.000 A 
ATOM     24  C   UNL     1      -1.759  10.188  17.594  0.00  0.00    +0.000 A 
ENDBRANCH  17  18
ENDBRANCH  15  17
ENDBRANCH   2  13
TORSDOF 6
ENDMDL
MODEL 4
REMARK VINA RESULT:      -7.4      6.650      9.123
REMARK  Name = 
REMARK  8 active torsions:
REMARK  status: ('A' for Active; 'I' for Inactive)
REMARK    1  A    between atoms: C_1  and  O_2
REMARK    2  A    between atoms: O_2  and  C_3
REMARK    3  A    between atoms: C_6  and  C_7
REMARK    4  A    between atoms: C_8  and  C_9
REMARK    5  A    between atoms: N_11  and  C_12
REMARK    6  A    between atoms: C_12  and  C_13
REMARK    7  A    between atoms: C_20  and  O_21
REMARK    8  A    between atoms: O_21  and  C_22
REMARK                            x       y       z     vdW  Elec       q    Type
REMARK                         _______ _______ _______ _____ _____    ______ ____
ROOT
ATOM      1  C   UNL     1       2.677   7.314  18.540  0.00  0.00    +0.000 C 
ATOM      2  C   UNL     1       2.032   8.331  17.945  0.00  0.00    +0.000 C 
ENDROOT
BRANCH   1   6
ATOM      3  C   UNL     1       5.098   4.584  16.283  0.00  0.00    +0.000 A 
ATOM      4  C   UNL     1       5.348   5.956  16.270  0.00  0.00    +0.000 A 
ATOM      5  C   UNL     1       4.548   6.833  17.010  0.00  0.00    +0.000 A 
ATOM      6  C   UNL     1       3.486   6.346  17.784  0.00  0.00    +0.000 A 
ATOM      7  C   UNL     1       3.238   4.959  17.816  0.00  0.00    +0.000 A 
ATOM      8  C   UNL     1       4.042   4.092  17.057  0.00  0.00    +0.000 A 
BRANCH   3  10
ATOM      9  C   UNL     1       6.831   4.536  14.651  0.00  0.00    +0.000 C 
ATOM     10  O   UNL     1       5.948   3.834  15.520  0.00  0.00    +0.000 OA
ENDBRANCH   3  10
BRANCH   7  11
ATOM     11  O   UNL     1       2.201   4.539  18.612  0.00  0.00    +0.000 OA
ATOM     12  C   UNL     1       1.551   3.325  18.249  0.00  0.00    +0.000 C 
ENDBRANCH   7  11
ENDBRANCH   1   6
BRANCH   2  13
ATOM     13  C   UNL     1       1.257   9.309  18.758  0.00  0.00    +0.000 C 
ATOM     14  O   UNL     1       1.212   9.263  19.979  0.00  0.00    +0.000 OA
ATOM     15  N   UNL     1       0.629  10.270  18.000  0.00  0.00    +0.000 N 
ATOM     16  H   UNL     1       0.801  10.323  17.006  0.00  0.00    +0.000 HD
BRANCH  15  17
ATOM     17  C   UNL     1      -0.058  11.378  18.627  0.00  0.00    +0.000 C 
BRANCH  17  18
ATOM     18  C   UNL     1      -1.556  11.285  18.456  0.00  0.00    +0.000 A 
ATOM     19  C   UNL     1      -2.110  10.339  17.578  0.00  0.00    +0.000 A 
ATOM     20  C   UNL     1      -3.496  10.230  17.433  0.00  0.00    +0.000 A 
ATOM     21  C   UNL     1      -4.338  11.071  18.156  0.00  0.00    +0.000 A 
ATOM     22 CL   UNL     1      -6.045  10.928  17.985  0.00  0.00    +0.000 Cl
ATOM     23  C   UNL     1      -3.804  12.024  19.020  0.00  0.00    +0.000 A 
ATOM     24  C   UNL     1      -2.417  12.134  19.167  0.00  0.00    +0.000 A 
ENDBRANCH  17  18
ENDBRANCH  15  17
ENDBRANCH   2  13
TORSDOF 6
ENDMDL
MODEL 5
REMARK VINA RESULT:      -7.3      1.921      2.435
REMARK  Name = 
REMARK  8 active torsions:
REMARK  status: ('A' for Active; 'I' for Inactive)
REMARK    1  A    between atoms: C_1  and  O_2
REMARK    2  A    between atoms: O_2  and  C_3
REMARK    3  A    between atoms: C_6  and  C_7
REMARK    4  A    between atoms: C_8  and  C_9
REMARK    5  A    between atoms: N_11  and  C_12
REMARK    6  A    between atoms: C_12  and  C_13
REMARK    7  A    between atoms: C_20  and  O_21
REMARK    8  A    between atoms: O_21  and  C_22
REMARK                            x       y       z     vdW  Elec       q    Type
REMARK                         _______ _______ _______ _____ _____    ______ ____
ROOT
ATOM      1  C   UNL     1       8.550   9.818  17.974  0.00  0.00    +0.000 C 
ATOM      2  C   UNL     1       8.433   8.628  18.585  0.00  0.00    +0.000 C 
ENDROOT
BRANCH   1   6
ATOM      3  C   UNL     1      10.396  13.138  19.969  0.00  0.00    +0.000 A 
ATOM      4  C   UNL     1      10.714  11.823  20.305  0.00  0.00    +0.000 A 
ATOM      5  C   UNL     1      10.102  10.752  19.646  0.00  0.00    +0.000 A 
ATOM      6  C   UNL     1       9.163  10.983  18.631  0.00  0.00    +0.000 A 
ATOM      7  C   UNL     1       8.850  12.310  18.275  0.00  0.00    +0.000 A 
ATOM      8  C   UNL     1       9.464  13.375  18.955  0.00  0.00    +0.000 A 
BRANCH   3  10
ATOM      9  C   UNL     1      10.348  15.289  20.991  0.00  0.00    +0.000 C 
ATOM     10  O   UNL     1      11.061  14.094  20.685  0.00  0.00    +0.000 OA
ENDBRANCH   3  10
BRANCH   7  11
ATOM     11  O   UNL     1       7.943  12.474  17.256  0.00  0.00    +0.000 OA
ATOM     12  C   UNL     1       7.090  13.612  17.320  0.00  0.00    +0.000 C 
ENDBRANCH   7  11
ENDBRANCH   1   6
BRANCH   2  13
ATOM     13  C   UNL     1       7.840   7.468  17.865  0.00  0.00    +0.000 C 
ATOM     14  O   UNL     1       7.372   7.560  16.739  0.00  0.00    +0.000 OA
ATOM     15  N   UNL     1       7.900   6.294  18.580  0.00  0.00    +0.000 N 
ATOM     16  H   UNL     1       8.405   6.260  19.455  0.00  0.00    +0.000 HD
BRANCH  15  17
ATOM     17  C   UNL     1       7.493   5.040  17.985  0.00  0.00    +0.000 C 
BRANCH  17  18
ATOM     18  C   UNL     1       6.000   4.830  18.073  0.00  0.00    +0.000 A 
ATOM     19  C   UNL     1       5.301   5.199  19.234  0.00  0.00    +0.000 A 
ATOM     20  C   UNL     1       3.915   5.030  19.315  0.00  0.00    +0.000 A 
ATOM     21  C   UNL     1       3.220   4.482  18.240  0.00  0.00    +0.000 A 
ATOM     22 CL   UNL     1       1.513   4.285  18.335  0.00  0.00    +0.000 Cl
ATOM     23  C   UNL     1       3.899   4.097  17.087  0.00  0.00    +0.000 A 
ATOM     24  C   UNL     1       5.286   4.267  17.005  0.00  0.00    +0.000 A 
ENDBRANCH  17  18
ENDBRANCH  15  17
ENDBRANCH   2  13
TORSDOF 6
ENDMDL
MODEL 6
REMARK VINA RESULT:      -7.1      1.572      2.107
REMARK  Name = 
REMARK  8 active torsions:
REMARK  status: ('A' for Active; 'I' for Inactive)
REMARK    1  A    between atoms: C_1  and  O_2
REMARK    2  A    between atoms: O_2  and  C_3
REMARK    3  A    between atoms: C_6  and  C_7
REMARK    4  A    between atoms: C_8  and  C_9
REMARK    5  A    between atoms: N_11  and  C_12
REMARK    6  A    between atoms: C_12  and  C_13
REMARK    7  A    between atoms: C_20  and  O_21
REMARK    8  A    between atoms: O_21  and  C_22
REMARK                            x       y       z     vdW  Elec       q    Type
REMARK                         _______ _______ _______ _____ _____    ______ ____
ROOT
ATOM      1  C   UNL     1       9.034  10.069  18.349  0.00  0.00    +0.000 C 
ATOM      2  C   UNL     1       8.227   9.351  17.551  0.00  0.00    +0.000 C 
ENDROOT
BRANCH   1   6
ATOM      3  C   UNL     1       9.549  14.286  17.744  0.00  0.00    +0.000 A 
ATOM      4  C   UNL     1       8.301  13.680  17.602  0.00  0.00    +0.000 A 
ATOM      5  C   UNL     1       8.150  12.305  17.801  0.00  0.00    +0.000 A 
ATOM      6  C   UNL     1       9.251  11.512  18.154  0.00  0.00    +0.000 A 
ATOM      7  C   UNL     1      10.512  12.119  18.316  0.00  0.00    +0.000 A 
ATOM      8  C   UNL     1      10.650  13.501  18.100  0.00  0.00    +0.000 A 
BRANCH   3  10
ATOM      9  C   UNL     1       8.603  16.419  18.221  0.00  0.00    +0.000 C 
ATOM     10  O   UNL     1       9.566  15.635  17.523  0.00  0.00    +0.000 OA
ENDBRANCH   3  10
BRANCH   7  11
ATOM     11  O   UNL     1      11.547  11.296  18.689  0.00  0.00    +0.000 OA
ATOM     12  C   UNL     1      12.332  11.701  19.805  0.00  0.00    +0.000 C 
ENDBRANCH   7  11
ENDBRANCH   1   6
BRANCH   2  13
ATOM     13  C   UNL     1       8.009   7.901  17.811  0.00  0.00    +0.000 C 
ATOM     14  O   UNL     1       8.429   7.340  18.813  0.00  0.00    +0.000 OA
ATOM     15  N   UNL     1       7.271   7.277  16.832  0.00  0.00    +0.000 N 
ATOM     16  H   UNL     1       6.853   7.820  16.090  0.00  0.00    +0.000 HD
BRANCH  15  17
ATOM     17  C   UNL     1       6.848   5.902  16.984  0.00  0.00    +0.000 C 
BRANCH  17  18
ATOM     18  C   UNL     1       5.589   5.785  17.810  0.00  0.00    +0.000 A 
ATOM     19  C   UNL     1       4.449   6.532  17.472  0.00  0.00    +0.000 A 
ATOM     20  C   UNL     1       3.272   6.410  18.217  0.00  0.00    +0.000 A 
ATOM     21  C   UNL     1       3.230   5.551  19.311  0.00  0.00    +0.000 A 
ATOM     22 CL   UNL     1       1.777   5.393  20.221  0.00  0.00    +0.000 Cl
ATOM     23  C   UNL     1       4.355   4.814  19.669  0.00  0.00    +0.000 A 
ATOM     24  C   UNL     1       5.533   4.933  18.924  0.00  0.00    +0.000 A 
ENDBRANCH  17  18
ENDBRANCH  15  17
ENDBRANCH   2  13
TORSDOF 6
ENDMDL
MODEL 7
REMARK VINA RESULT:      -7.1      1.342      1.588
REMARK  Name = 
REMARK  8 active torsions:
REMARK  status: ('A' for Active; 'I' for Inactive)
REMARK    1  A    between atoms: C_1  and  O_2
REMARK    2  A    between atoms: O_2  and  C_3
REMARK    3  A    between atoms: C_6  and  C_7
REMARK    4  A    between atoms: C_8  and  C_9
REMARK    5  A    between atoms: N_11  and  C_12
REMARK    6  A    between atoms: C_12  and  C_13
REMARK    7  A    between atoms: C_20  and  O_21
REMARK    8  A    between atoms: O_21  and  C_22
REMARK                            x       y       z     vdW  Elec       q    Type
REMARK                         _______ _______ _______ _____ _____    ______ ____
ROOT
ATOM      1  C   UNL     1       8.954   9.487  18.888  0.00  0.00    +0.000 C 
ATOM      2  C   UNL     1       8.312   9.097  17.775  0.00  0.00    +0.000 C 
ENDROOT
BRANCH   1   6
ATOM      3  C   UNL     1      10.436  13.492  19.303  0.00  0.00    +0.000 A 
ATOM      4  C   UNL     1      10.476  12.828  18.078  0.00  0.00    +0.000 A 
ATOM      5  C   UNL     1       9.990  11.522  17.959  0.00  0.00    +0.000 A 
ATOM      6  C   UNL     1       9.448  10.861  19.070  0.00  0.00    +0.000 A 
ATOM      7  C   UNL     1       9.388  11.533  20.308  0.00  0.00    +0.000 A 
ATOM      8  C   UNL     1       9.892  12.840  20.413  0.00  0.00    +0.000 A 
BRANCH   3  10
ATOM      9  C   UNL     1      12.208  14.951  18.667  0.00  0.00    +0.000 C 
ATOM     10  O   UNL     1      10.940  14.763  19.289  0.00  0.00    +0.000 OA
ENDBRANCH   3  10
BRANCH   7  11
ATOM     11  O   UNL     1       8.823  10.844  21.353  0.00  0.00    +0.000 OA
ATOM     12  C   UNL     1       8.406  11.603  22.483  0.00  0.00    +0.000 C 
ENDBRANCH   7  11
ENDBRANCH   1   6
BRANCH   2  13
ATOM     13  C   UNL     1       7.796   7.706  17.653  0.00  0.00    +0.000 C 
ATOM     14  O   UNL     1       7.229   7.298  16.649  0.00  0.00    +0.000 OA
ATOM     15  N   UNL     1       8.048   6.932  18.763  0.00  0.00    +0.000 N 
ATOM     16  H   UNL     1       8.624   7.292  19.510  0.00  0.00    +0.000 HD
BRANCH  15  17
ATOM     17  C   UNL     1       7.737   5.519  18.769  0.00  0.00    +0.000 C 
BRANCH  17  18
ATOM     18  C   UNL     1       6.276   5.260  18.489  0.00  0.00    +0.000 A 
ATOM     19  C   UNL     1       5.892   4.541  17.346  0.00  0.00    +0.000 A 
ATOM     20  C   UNL     1       4.542   4.275  17.093  0.00  0.00    +0.000 A 
ATOM     21  C   UNL     1       3.568   4.735  17.974  0.00  0.00    +0.000 A 
ATOM     22 CL   UNL     1       1.908   4.397  17.668  0.00  0.00    +0.000 Cl
ATOM     23  C   UNL     1       3.931   5.462  19.105  0.00  0.00    +0.000 A 
ATOM     24  C   UNL     1       5.281   5.728  19.360  0.00  0.00    +0.000 A 
ENDBRANCH  17  18
ENDBRANCH  15  17
ENDBRANCH   2  13
TORSDOF 6
ENDMDL
MODEL 8
REMARK VINA RESULT:      -7.0      6.723      8.967
REMARK  Name = 
REMARK  8 active torsions:
REMARK  status: ('A' for Active; 'I' for Inactive)
REMARK    1  A    between atoms: C_1  and  O_2
REMARK    2  A    between atoms: O_2  and  C_3
REMARK    3  A    between atoms: C_6  and  C_7
REMARK    4  A    between atoms: C_8  and  C_9
REMARK    5  A    between atoms: N_11  and  C_12
REMARK    6  A    between atoms: C_12  and  C_13
REMARK    7  A    between atoms: C_20  and  O_21
REMARK    8  A    between atoms: O_21  and  C_22
REMARK                            x       y       z     vdW  Elec       q    Type
REMARK                         _______ _______ _______ _____ _____    ______ ____
ROOT
ATOM      1  C   UNL     1       2.472   7.307  18.439  0.00  0.00    +0.000 C 
ATOM      2  C   UNL     1       2.336   7.360  19.774  0.00  0.00    +0.000 C 
ENDROOT
BRANCH   1   6
ATOM      3  C   UNL     1       5.096   4.550  16.458  0.00  0.00    +0.000 A 
ATOM      4  C   UNL     1       5.329   5.925  16.424  0.00  0.00    +0.000 A 
ATOM      5  C   UNL     1       4.463   6.810  17.073  0.00  0.00    +0.000 A 
ATOM      6  C   UNL     1       3.350   6.330  17.776  0.00  0.00    +0.000 A 
ATOM      7  C   UNL     1       3.117   4.941  17.829  0.00  0.00    +0.000 A 
ATOM      8  C   UNL     1       3.989   4.065  17.161  0.00  0.00    +0.000 A 
BRANCH   3  10
ATOM      9  C   UNL     1       7.023   4.485  15.061  0.00  0.00    +0.000 C 
ATOM     10  O   UNL     1       6.013   3.791  15.786  0.00  0.00    +0.000 OA
ENDBRANCH   3  10
BRANCH   7  11
ATOM     11  O   UNL     1       2.026   4.528  18.554  0.00  0.00    +0.000 OA
ATOM     12  C   UNL     1       1.462   3.264  18.220  0.00  0.00    +0.000 C 
ENDBRANCH   7  11
ENDBRANCH   1   6
BRANCH   2  13
ATOM     13  C   UNL     1       1.405   8.342  20.396  0.00  0.00    +0.000 C 
ATOM     14  O   UNL     1       0.996   8.228  21.543  0.00  0.00    +0.000 OA
ATOM     15  N   UNL     1       1.083   9.390  19.565  0.00  0.00    +0.000 N 
ATOM     16  H   UNL     1       1.546   9.489  18.672  0.00  0.00    +0.000 HD
BRANCH  15  17
ATOM     17  C   UNL     1       0.299  10.506  20.046  0.00  0.00    +0.000 C 
BRANCH  17  18
ATOM     18  C   UNL     1      -0.943  10.726  19.215  0.00  0.00    +0.000 A 
ATOM     19  C   UNL     1      -1.914  11.653  19.626  0.00  0.00    +0.000 A 
ATOM     20  C   UNL     1      -3.054  11.880  18.849  0.00  0.00    +0.000 A 
ATOM     21  C   UNL     1      -3.237  11.175  17.664  0.00  0.00    +0.000 A 
ATOM     22 CL   UNL     1      -4.636  11.463  16.702  0.00  0.00    +0.000 Cl
ATOM     23  C   UNL     1      -2.291  10.241  17.249  0.00  0.00    +0.000 A 
ATOM     24  C   UNL     1      -1.149  10.014  18.024  0.00  0.00    +0.000 A 
ENDBRANCH  17  18
ENDBRANCH  15  17
ENDBRANCH   2  13
TORSDOF 6
ENDMDL
MODEL 9
REMARK VINA RESULT:      -6.9      6.235      9.133
REMARK  Name = 
REMARK  8 active torsions:
REMARK  status: ('A' for Active; 'I' for Inactive)
REMARK    1  A    between atoms: C_1  and  O_2
REMARK    2  A    between atoms: O_2  and  C_3
REMARK    3  A    between atoms: C_6  and  C_7
REMARK    4  A    between atoms: C_8  and  C_9
REMARK    5  A    between atoms: N_11  and  C_12
REMARK    6  A    between atoms: C_12  and  C_13
REMARK    7  A    between atoms: C_20  and  O_21
REMARK    8  A    between atoms: O_21  and  C_22
REMARK                            x       y       z     vdW  Elec       q    Type
REMARK                         _______ _______ _______ _____ _____    ______ ____
ROOT
ATOM      1  C   UNL     1       2.683   7.332  18.535  0.00  0.00    +0.000 C 
ATOM      2  C   UNL     1       2.107   8.396  17.951  0.00  0.00    +0.000 C 
ENDROOT
BRANCH   1   6
ATOM      3  C   UNL     1       5.093   4.596  16.274  0.00  0.00    +0.000 A 
ATOM      4  C   UNL     1       5.303   5.973  16.207  0.00  0.00    +0.000 A 
ATOM      5  C   UNL     1       4.508   6.852  16.949  0.00  0.00    +0.000 A 
ATOM      6  C   UNL     1       3.490   6.362  17.779  0.00  0.00    +0.000 A 
ATOM      7  C   UNL     1       3.283   4.971  17.864  0.00  0.00    +0.000 A 
ATOM      8  C   UNL     1       4.082   4.102  17.102  0.00  0.00    +0.000 A 
BRANCH   3  10
ATOM      9  C   UNL     1       6.769   4.542  14.583  0.00  0.00    +0.000 C 
ATOM     10  O   UNL     1       5.935   3.844  15.502  0.00  0.00    +0.000 OA
ENDBRANCH   3  10
BRANCH   7  11
ATOM     11  O   UNL     1       2.288   4.549  18.713  0.00  0.00    +0.000 OA
ATOM     12  C   UNL     1       1.429   3.514  18.247  0.00  0.00    +0.000 C 
ENDBRANCH   7  11
ENDBRANCH   1   6
BRANCH   2  13
ATOM     13  C   UNL     1       1.331   9.372  18.765  0.00  0.00    +0.000 C 
ATOM     14  O   UNL     1       1.004   9.153  19.923  0.00  0.00    +0.000 OA
ATOM     15  N   UNL     1       1.052  10.541  18.094  0.00  0.00    +0.000 N 
ATOM     16  H   UNL     1       1.451  10.708  17.181  0.00  0.00    +0.000 HD
BRANCH  15  17
ATOM     17  C   UNL     1       0.423  11.654  18.771  0.00  0.00    +0.000 C 
BRANCH  17  18
ATOM     18  C   UNL     1       1.237  12.920  18.654  0.00  0.00    +0.000 A 
ATOM     19  C   UNL     1       2.593  12.859  18.293  0.00  0.00    +0.000 A 
ATOM     20  C   UNL     1       3.347  14.028  18.158  0.00  0.00    +0.000 A 
ATOM     21  C   UNL     1       2.755  15.266  18.393  0.00  0.00    +0.000 A 
ATOM     22 CL   UNL     1       3.681  16.706  18.215  0.00  0.00    +0.000 Cl
ATOM     23  C   UNL     1       1.415  15.344  18.765  0.00  0.00    +0.000 A 
ATOM     24  C   UNL     1       0.659  14.175  18.899  0.00  0.00    +0.000 A 
ENDBRANCH  17  18
ENDBRANCH  15  17
ENDBRANCH   2  13
TORSDOF 6
ENDMDL
