MODEL 1
REMARK VINA RESULT:      -6.4      0.000      0.000
REMARK  Name = 
REMARK  11 active torsions:
REMARK  status: ('A' for Active; 'I' for Inactive)
REMARK    1  A    between atoms: C_4  and  C_5
REMARK    2  A    between atoms: C_8  and  O_9
REMARK    3  A    between atoms: C_10  and  O_11
REMARK    4  A    between atoms: C_15  and  C_16
REMARK    5  A    between atoms: C_18  and  C_19
REMARK    6  A    between atoms: C_19  and  O_20
REMARK    7  A    between atoms: C_21  and  O_22
REMARK    8  A    between atoms: C_23  and  O_24
REMARK    9  A    between atoms: C_25  and  O_26
REMARK   10  A    between atoms: C_27  and  O_28
REMARK   11  A    between atoms: C_30  and  O_31
REMARK                            x       y       z     vdW  Elec       q    Type
REMARK                         _______ _______ _______ _____ _____    ______ ____
ROOT
ATOM      1  O   UNL     1      -2.438   9.720  15.721  0.00  0.00    +0.000 OA
ATOM      2  C   UNL     1      -2.522  10.218  16.834  0.00  0.00    +0.000 A 
ATOM      3  C   UNL     1      -1.469   9.925  17.811  0.00  0.00    +0.000 A 
ATOM      4  C   UNL     1      -1.572  10.366  19.070  0.00  0.00    +0.000 A 
ATOM      5  O   UNL     1      -2.629  11.145  19.523  0.00  0.00    +0.000 OA
ATOM      6  C   UNL     1      -3.625  11.523  18.630  0.00  0.00    +0.000 A 
ATOM      7  C   UNL     1      -4.663  12.367  19.137  0.00  0.00    +0.000 A 
ATOM      8  C   UNL     1      -5.637  12.802  18.227  0.00  0.00    +0.000 A 
ATOM      9  C   UNL     1      -5.642  12.363  16.901  0.00  0.00    +0.000 A 
ATOM     10  C   UNL     1      -4.637  11.512  16.437  0.00  0.00    +0.000 A 
ATOM     11  C   UNL     1      -3.615  11.102  17.293  0.00  0.00    +0.000 A 
ENDROOT
BRANCH   4  12
ATOM     12  C   UNL     1      -0.520  10.047  20.071  0.00  0.00    +0.000 A 
ATOM     13  C   UNL     1       0.714   9.486  19.691  0.00  0.00    +0.000 A 
ATOM     14  C   UNL     1       1.698   9.163  20.638  0.00  0.00    +0.000 A 
ATOM     15  C   UNL     1       1.453   9.402  21.982  0.00  0.00    +0.000 A 
ATOM     16  C   UNL     1       0.244   9.960  22.376  0.00  0.00    +0.000 A 
ATOM     17  C   UNL     1      -0.730  10.291  21.442  0.00  0.00    +0.000 A 
BRANCH  15  18
ATOM     18  O   UNL     1       2.364   9.102  22.955  0.00  0.00    +0.000 OA
ATOM     19  H   UNL     1       1.883   8.796  23.743  0.00  0.00    +0.000 HD
ENDBRANCH  15  18
BRANCH  16  20
ATOM     20  O   UNL     1      -0.005  10.188  23.700  0.00  0.00    +0.000 OA
ATOM     21  H   UNL     1       0.481  11.011  23.908  0.00  0.00    +0.000 HD
ENDBRANCH  16  20
ENDBRANCH   4  12
BRANCH   7  22
ATOM     22  C   UNL     1      -4.678  12.698  20.613  0.00  0.00    +0.000 C 
ATOM     23  O   UNL     1      -6.005  12.768  21.192  0.00  0.00    +0.000 OA
ATOM     24  C   UNL     1      -5.926  12.606  22.634  0.00  0.00    +0.000 C 
ATOM     25  C   UNL     1      -5.024  13.673  23.299  0.00  0.00    +0.000 C 
ATOM     26  C   UNL     1      -3.696  13.851  22.536  0.00  0.00    +0.000 C 
ATOM     27  C   UNL     1      -3.956  14.000  21.025  0.00  0.00    +0.000 C 
BRANCH  25  28
ATOM     28  O   UNL     1      -4.785  13.286  24.660  0.00  0.00    +0.000 OA
ATOM     29  H   UNL     1      -5.583  13.465  25.186  0.00  0.00    +0.000 HD
ENDBRANCH  25  28
BRANCH  26  30
ATOM     30  O   UNL     1      -2.954  14.946  23.080  0.00  0.00    +0.000 OA
ATOM     31  H   UNL     1      -2.089  14.982  22.633  0.00  0.00    +0.000 HD
ENDBRANCH  26  30
BRANCH  27  32
ATOM     32  O   UNL     1      -2.738  14.261  20.339  0.00  0.00    +0.000 OA
ATOM     33  H   UNL     1      -2.926  14.831  19.575  0.00  0.00    +0.000 HD
ENDBRANCH  27  32
BRANCH  24  34
ATOM     34  C   UNL     1      -7.335  12.619  23.250  0.00  0.00    +0.000 C 
BRANCH  34  35
ATOM     35  O   UNL     1      -7.647  11.371  23.862  0.00  0.00    +0.000 OA
ATOM     36  H   UNL     1      -8.616  11.288  23.848  0.00  0.00    +0.000 HD
ENDBRANCH  34  35
ENDBRANCH  24  34
ENDBRANCH   7  22
BRANCH   8  37
ATOM     37  O   UNL     1      -6.635  13.673  18.564  0.00  0.00    +0.000 OA
ATOM     38  H   UNL     1      -6.512  14.495  18.057  0.00  0.00    +0.000 HD
ENDBRANCH   8  37
BRANCH  10  39
ATOM     39  O   UNL     1      -4.668  11.102  15.139  0.00  0.00    +0.000 OA
ATOM     40  H   UNL     1      -5.021  10.199  15.073  0.00  0.00    +0.000 HD
ENDBRANCH  10  39
TORSDOF 11
ENDMDL
MODEL 2
REMARK VINA RESULT:      -6.2      2.623      5.892
REMARK  Name = 
REMARK  11 active torsions:
REMARK  status: ('A' for Active; 'I' for Inactive)
REMARK    1  A    between atoms: C_4  and  C_5
REMARK    2  A    between atoms: C_8  and  O_9
REMARK    3  A    between atoms: C_10  and  O_11
REMARK    4  A    between atoms: C_15  and  C_16
REMARK    5  A    between atoms: C_18  and  C_19
REMARK    6  A    between atoms: C_19  and  O_20
REMARK    7  A    between atoms: C_21  and  O_22
REMARK    8  A    between atoms: C_23  and  O_24
REMARK    9  A    between atoms: C_25  and  O_26
REMARK   10  A    between atoms: C_27  and  O_28
REMARK   11  A    between atoms: C_30  and  O_31
REMARK                            x       y       z     vdW  Elec       q    Type
REMARK                         _______ _______ _______ _____ _____    ______ ____
ROOT
ATOM      1  O   UNL     1      -1.514  15.042  24.558  0.00  0.00    +0.000 OA
ATOM      2  C   UNL     1      -2.087  14.524  23.610  0.00  0.00    +0.000 A 
ATOM      3  C   UNL     1      -1.300  13.712  22.678  0.00  0.00    +0.000 A 
ATOM      4  C   UNL     1      -1.866  13.211  21.573  0.00  0.00    +0.000 A 
ATOM      5  O   UNL     1      -3.207  13.383  21.255  0.00  0.00    +0.000 OA
ATOM      6  C   UNL     1      -4.029  14.080  22.133  0.00  0.00    +0.000 A 
ATOM      7  C   UNL     1      -5.411  14.184  21.782  0.00  0.00    +0.000 A 
ATOM      8  C   UNL     1      -6.257  14.833  22.694  0.00  0.00    +0.000 A 
ATOM      9  C   UNL     1      -5.757  15.427  23.854  0.00  0.00    +0.000 A 
ATOM     10  C   UNL     1      -4.398  15.343  24.159  0.00  0.00    +0.000 A 
ATOM     11  C   UNL     1      -3.530  14.655  23.311  0.00  0.00    +0.000 A 
ENDROOT
BRANCH   4  12
ATOM     12  C   UNL     1      -1.064  12.409  20.611  0.00  0.00    +0.000 A 
ATOM     13  C   UNL     1      -1.087  11.002  20.625  0.00  0.00    +0.000 A 
ATOM     14  C   UNL     1      -0.313  10.245  19.732  0.00  0.00    +0.000 A 
ATOM     15  C   UNL     1       0.494  10.896  18.812  0.00  0.00    +0.000 A 
ATOM     16  C   UNL     1       0.526  12.283  18.778  0.00  0.00    +0.000 A 
ATOM     17  C   UNL     1      -0.246  13.038  19.654  0.00  0.00    +0.000 A 
BRANCH  15  18
ATOM     18  O   UNL     1       1.279  10.219  17.922  0.00  0.00    +0.000 OA
ATOM     19  H   UNL     1       1.321   9.287  18.196  0.00  0.00    +0.000 HD
ENDBRANCH  15  18
BRANCH  16  20
ATOM     20  O   UNL     1       1.328  12.928  17.880  0.00  0.00    +0.000 OA
ATOM     21  H   UNL     1       1.669  12.220  17.297  0.00  0.00    +0.000 HD
ENDBRANCH  16  20
ENDBRANCH   4  12
BRANCH   7  22
ATOM     22  C   UNL     1      -5.868  13.639  20.447  0.00  0.00    +0.000 C 
ATOM     23  O   UNL     1      -6.570  14.601  19.622  0.00  0.00    +0.000 OA
ATOM     24  C   UNL     1      -6.541  14.177  18.232  0.00  0.00    +0.000 C 
ATOM     25  C   UNL     1      -7.170  12.778  18.029  0.00  0.00    +0.000 C 
ATOM     26  C   UNL     1      -6.670  11.770  19.084  0.00  0.00    +0.000 C 
ATOM     27  C   UNL     1      -6.760  12.378  20.497  0.00  0.00    +0.000 C 
BRANCH  25  28
ATOM     28  O   UNL     1      -6.862  12.325  16.703  0.00  0.00    +0.000 OA
ATOM     29  H   UNL     1      -6.915  13.079  16.090  0.00  0.00    +0.000 HD
ENDBRANCH  25  28
BRANCH  26  30
ATOM     30  O   UNL     1      -7.382  10.535  18.968  0.00  0.00    +0.000 OA
ATOM     31  H   UNL     1      -6.967  10.008  18.261  0.00  0.00    +0.000 HD
ENDBRANCH  26  30
BRANCH  27  32
ATOM     32  O   UNL     1      -6.389  11.411  21.473  0.00  0.00    +0.000 OA
ATOM     33  H   UNL     1      -6.803  11.649  22.319  0.00  0.00    +0.000 HD
ENDBRANCH  27  32
BRANCH  24  34
ATOM     34  C   UNL     1      -7.232  15.222  17.340  0.00  0.00    +0.000 C 
BRANCH  34  35
ATOM     35  O   UNL     1      -6.817  15.104  15.983  0.00  0.00    +0.000 OA
ATOM     36  H   UNL     1      -6.999  14.187  15.715  0.00  0.00    +0.000 HD
ENDBRANCH  34  35
ENDBRANCH  24  34
ENDBRANCH   7  22
BRANCH   8  37
ATOM     37  O   UNL     1      -7.609  14.930  22.516  0.00  0.00    +0.000 OA
ATOM     38  H   UNL     1      -7.808  15.801  22.128  0.00  0.00    +0.000 HD
ENDBRANCH   8  37
BRANCH  10  39
ATOM     39  O   UNL     1      -3.940  15.930  25.300  0.00  0.00    +0.000 OA
ATOM     40  H   UNL     1      -3.894  16.895  25.193  0.00  0.00    +0.000 HD
ENDBRANCH  10  39
TORSDOF 11
ENDMDL
MODEL 3
REMARK VINA RESULT:      -6.2      0.553      1.151
REMARK  Name = 
REMARK  11 active torsions:
REMARK  status: ('A' for Active; 'I' for Inactive)
REMARK    1  A    between atoms: C_4  and  C_5
REMARK    2  A    between atoms: C_8  and  O_9
REMARK    3  A    between atoms: C_10  and  O_11
REMARK    4  A    between atoms: C_15  and  C_16
REMARK    5  A    between atoms: C_18  and  C_19
REMARK    6  A    between atoms: C_19  and  O_20
REMARK    7  A    between atoms: C_21  and  O_22
REMARK    8  A    between atoms: C_23  and  O_24
REMARK    9  A    between atoms: C_25  and  O_26
REMARK   10  A    between atoms: C_27  and  O_28
REMARK   11  A    between atoms: C_30  and  O_31
REMARK                            x       y       z     vdW  Elec       q    Type
REMARK                         _______ _______ _______ _____ _____    ______ ____
ROOT
ATOM      1  O   UNL     1      -2.290   9.661  15.717  0.00  0.00    +0.000 OA
ATOM      2  C   UNL     1      -2.435  10.167  16.821  0.00  0.00    +0.000 A 
ATOM      3  C   UNL     1      -1.426   9.897  17.850  0.00  0.00    +0.000 A 
ATOM      4  C   UNL     1      -1.597  10.346  19.098  0.00  0.00    +0.000 A 
ATOM      5  O   UNL     1      -2.687  11.111  19.493  0.00  0.00    +0.000 OA
ATOM      6  C   UNL     1      -3.644  11.468  18.550  0.00  0.00    +0.000 A 
ATOM      7  C   UNL     1      -4.717  12.299  18.999  0.00  0.00    +0.000 A 
ATOM      8  C   UNL     1      -5.653  12.712  18.039  0.00  0.00    +0.000 A 
ATOM      9  C   UNL     1      -5.587  12.263  16.719  0.00  0.00    +0.000 A 
ATOM     10  C   UNL     1      -4.548  11.425  16.311  0.00  0.00    +0.000 A 
ATOM     11  C   UNL     1      -3.563  11.037  17.218  0.00  0.00    +0.000 A 
ENDROOT
BRANCH   4  12
ATOM     12  C   UNL     1      -0.591  10.051  20.152  0.00  0.00    +0.000 A 
ATOM     13  C   UNL     1      -0.515  10.812  21.334  0.00  0.00    +0.000 A 
ATOM     14  C   UNL     1       0.449  10.548  22.318  0.00  0.00    +0.000 A 
ATOM     15  C   UNL     1       1.352   9.512  22.126  0.00  0.00    +0.000 A 
ATOM     16  C   UNL     1       1.289   8.747  20.970  0.00  0.00    +0.000 A 
ATOM     17  C   UNL     1       0.330   8.997  19.996  0.00  0.00    +0.000 A 
BRANCH  15  18
ATOM     18  O   UNL     1       2.321   9.209  23.040  0.00  0.00    +0.000 OA
ATOM     19  H   UNL     1       2.098   8.358  23.453  0.00  0.00    +0.000 HD
ENDBRANCH  15  18
BRANCH  16  20
ATOM     20  O   UNL     1       2.183   7.732  20.772  0.00  0.00    +0.000 OA
ATOM     21  H   UNL     1       2.822   8.086  20.121  0.00  0.00    +0.000 HD
ENDBRANCH  16  20
ENDBRANCH   4  12
BRANCH   7  22
ATOM     22  C   UNL     1      -4.810  12.641  20.470  0.00  0.00    +0.000 C 
ATOM     23  O   UNL     1      -6.162  12.662  20.991  0.00  0.00    +0.000 OA
ATOM     24  C   UNL     1      -6.138  12.515  22.437  0.00  0.00    +0.000 C 
ATOM     25  C   UNL     1      -5.309  13.622  23.130  0.00  0.00    +0.000 C 
ATOM     26  C   UNL     1      -3.958  13.848  22.422  0.00  0.00    +0.000 C 
ATOM     27  C   UNL     1      -4.159  13.975  20.900  0.00  0.00    +0.000 C 
BRANCH  25  28
ATOM     28  O   UNL     1      -5.113  13.256  24.503  0.00  0.00    +0.000 OA
ATOM     29  H   UNL     1      -5.420  13.983  25.072  0.00  0.00    +0.000 HD
ENDBRANCH  25  28
BRANCH  26  30
ATOM     30  O   UNL     1      -3.284  14.976  22.986  0.00  0.00    +0.000 OA
ATOM     31  H   UNL     1      -3.229  14.850  23.951  0.00  0.00    +0.000 HD
ENDBRANCH  26  30
BRANCH  27  32
ATOM     32  O   UNL     1      -2.923  14.279  20.263  0.00  0.00    +0.000 OA
ATOM     33  H   UNL     1      -2.709  15.212  20.429  0.00  0.00    +0.000 HD
ENDBRANCH  27  32
BRANCH  24  34
ATOM     34  C   UNL     1      -7.572  12.476  22.992  0.00  0.00    +0.000 C 
BRANCH  34  35
ATOM     35  O   UNL     1      -7.726  11.445  23.964  0.00  0.00    +0.000 OA
ATOM     36  H   UNL     1      -7.023  11.577  24.623  0.00  0.00    +0.000 HD
ENDBRANCH  34  35
ENDBRANCH  24  34
ENDBRANCH   7  22
BRANCH   8  37
ATOM     37  O   UNL     1      -6.679  13.570  18.320  0.00  0.00    +0.000 OA
ATOM     38  H   UNL     1      -6.302  14.411  18.635  0.00  0.00    +0.000 HD
ENDBRANCH   8  37
BRANCH  10  39
ATOM     39  O   UNL     1      -4.509  11.005  15.016  0.00  0.00    +0.000 OA
ATOM     40  H   UNL     1      -5.231  11.408  14.504  0.00  0.00    +0.000 HD
ENDBRANCH  10  39
TORSDOF 11
ENDMDL
MODEL 4
REMARK VINA RESULT:      -6.0      2.336      2.428
REMARK  Name = 
REMARK  11 active torsions:
REMARK  status: ('A' for Active; 'I' for Inactive)
REMARK    1  A    between atoms: C_4  and  C_5
REMARK    2  A    between atoms: C_8  and  O_9
REMARK    3  A    between atoms: C_10  and  O_11
REMARK    4  A    between atoms: C_15  and  C_16
REMARK    5  A    between atoms: C_18  and  C_19
REMARK    6  A    between atoms: C_19  and  O_20
REMARK    7  A    between atoms: C_21  and  O_22
REMARK    8  A    between atoms: C_23  and  O_24
REMARK    9  A    between atoms: C_25  and  O_26
REMARK   10  A    between atoms: C_27  and  O_28
REMARK   11  A    between atoms: C_30  and  O_31
REMARK                            x       y       z     vdW  Elec       q    Type
REMARK                         _______ _______ _______ _____ _____    ______ ____
ROOT
ATOM      1  O   UNL     1      -2.226  10.628  16.164  0.00  0.00    +0.000 OA
ATOM      2  C   UNL     1      -2.393  11.288  17.180  0.00  0.00    +0.000 A 
ATOM      3  C   UNL     1      -1.212  11.815  17.871  0.00  0.00    +0.000 A 
ATOM      4  C   UNL     1      -1.342  12.456  19.039  0.00  0.00    +0.000 A 
ATOM      5  O   UNL     1      -2.568  12.699  19.645  0.00  0.00    +0.000 OA
ATOM      6  C   UNL     1      -3.734  12.293  19.007  0.00  0.00    +0.000 A 
ATOM      7  C   UNL     1      -4.970  12.615  19.649  0.00  0.00    +0.000 A 
ATOM      8  C   UNL     1      -6.152  12.262  18.981  0.00  0.00    +0.000 A 
ATOM      9  C   UNL     1      -6.123  11.552  17.778  0.00  0.00    +0.000 A 
ATOM     10  C   UNL     1      -4.904  11.220  17.186  0.00  0.00    +0.000 A 
ATOM     11  C   UNL     1      -3.705  11.603  17.786  0.00  0.00    +0.000 A 
ENDROOT
BRANCH   4  12
ATOM     12  C   UNL     1      -0.146  12.966  19.758  0.00  0.00    +0.000 A 
ATOM     13  C   UNL     1       1.160  12.659  19.328  0.00  0.00    +0.000 A 
ATOM     14  C   UNL     1       2.290  13.121  20.020  0.00  0.00    +0.000 A 
ATOM     15  C   UNL     1       2.121  13.901  21.154  0.00  0.00    +0.000 A 
ATOM     16  C   UNL     1       0.842  14.220  21.589  0.00  0.00    +0.000 A 
ATOM     17  C   UNL     1      -0.281  13.774  20.903  0.00  0.00    +0.000 A 
BRANCH  15  18
ATOM     18  O   UNL     1       3.178  14.375  21.878  0.00  0.00    +0.000 OA
ATOM     19  H   UNL     1       3.569  13.634  22.371  0.00  0.00    +0.000 HD
ENDBRANCH  15  18
BRANCH  16  20
ATOM     20  O   UNL     1       0.671  14.980  22.712  0.00  0.00    +0.000 OA
ATOM     21  H   UNL     1       0.220  14.389  23.347  0.00  0.00    +0.000 HD
ENDBRANCH  16  20
ENDBRANCH   4  12
BRANCH   7  22
ATOM     22  C   UNL     1      -4.935  13.263  21.016  0.00  0.00    +0.000 C 
ATOM     23  O   UNL     1      -6.029  12.877  21.885  0.00  0.00    +0.000 OA
ATOM     24  C   UNL     1      -5.676  13.135  23.271  0.00  0.00    +0.000 C 
ATOM     25  C   UNL     1      -5.326  14.621  23.524  0.00  0.00    +0.000 C 
ATOM     26  C   UNL     1      -4.379  15.175  22.440  0.00  0.00    +0.000 C 
ATOM     27  C   UNL     1      -4.892  14.807  21.034  0.00  0.00    +0.000 C 
BRANCH  25  28
ATOM     28  O   UNL     1      -4.736  14.738  24.826  0.00  0.00    +0.000 OA
ATOM     29  H   UNL     1      -5.415  14.554  25.499  0.00  0.00    +0.000 HD
ENDBRANCH  25  28
BRANCH  26  30
ATOM     30  O   UNL     1      -4.198  16.584  22.611  0.00  0.00    +0.000 OA
ATOM     31  H   UNL     1      -3.932  16.749  23.534  0.00  0.00    +0.000 HD
ENDBRANCH  26  30
BRANCH  27  32
ATOM     32  O   UNL     1      -4.068  15.403  20.038  0.00  0.00    +0.000 OA
ATOM     33  H   UNL     1      -3.240  15.695  20.453  0.00  0.00    +0.000 HD
ENDBRANCH  27  32
BRANCH  24  34
ATOM     34  C   UNL     1      -6.807  12.673  24.205  0.00  0.00    +0.000 C 
BRANCH  34  35
ATOM     35  O   UNL     1      -7.512  13.782  24.756  0.00  0.00    +0.000 OA
ATOM     36  H   UNL     1      -8.440  13.505  24.844  0.00  0.00    +0.000 HD
ENDBRANCH  34  35
ENDBRANCH  24  34
ENDBRANCH   7  22
BRANCH   8  37
ATOM     37  O   UNL     1      -7.396  12.581  19.448  0.00  0.00    +0.000 OA
ATOM     38  H   UNL     1      -8.055  12.296  18.790  0.00  0.00    +0.000 HD
ENDBRANCH   8  37
BRANCH  10  39
ATOM     39  O   UNL     1      -4.908  10.529  16.012  0.00  0.00    +0.000 OA
ATOM     40  H   UNL     1      -4.295   9.776  16.055  0.00  0.00    +0.000 HD
ENDBRANCH  10  39
TORSDOF 11
ENDMDL
MODEL 5
REMARK VINA RESULT:      -6.0      4.565      7.655
REMARK  Name = 
REMARK  11 active torsions:
REMARK  status: ('A' for Active; 'I' for Inactive)
REMARK    1  A    between atoms: C_4  and  C_5
REMARK    2  A    between atoms: C_8  and  O_9
REMARK    3  A    between atoms: C_10  and  O_11
REMARK    4  A    between atoms: C_15  and  C_16
REMARK    5  A    between atoms: C_18  and  C_19
REMARK    6  A    between atoms: C_19  and  O_20
REMARK    7  A    between atoms: C_21  and  O_22
REMARK    8  A    between atoms: C_23  and  O_24
REMARK    9  A    between atoms: C_25  and  O_26
REMARK   10  A    between atoms: C_27  and  O_28
REMARK   11  A    between atoms: C_30  and  O_31
REMARK                            x       y       z     vdW  Elec       q    Type
REMARK                         _______ _______ _______ _____ _____    ______ ____
ROOT
ATOM      1  O   UNL     1      -2.291  11.503  23.451  0.00  0.00    +0.000 OA
ATOM      2  C   UNL     1      -1.358  11.801  22.719  0.00  0.00    +0.000 A 
ATOM      3  C   UNL     1      -0.758  10.750  21.891  0.00  0.00    +0.000 A 
ATOM      4  C   UNL     1       0.328  11.007  21.153  0.00  0.00    +0.000 A 
ATOM      5  O   UNL     1       0.927  12.259  21.085  0.00  0.00    +0.000 OA
ATOM      6  C   UNL     1       0.365  13.319  21.786  0.00  0.00    +0.000 A 
ATOM      7  C   UNL     1       0.991  14.596  21.640  0.00  0.00    +0.000 A 
ATOM      8  C   UNL     1       0.394  15.683  22.296  0.00  0.00    +0.000 A 
ATOM      9  C   UNL     1      -0.717  15.511  23.125  0.00  0.00    +0.000 A 
ATOM     10  C   UNL     1      -1.291  14.248  23.279  0.00  0.00    +0.000 A 
ATOM     11  C   UNL     1      -0.766  13.150  22.598  0.00  0.00    +0.000 A 
ENDROOT
BRANCH   4  12
ATOM     12  C   UNL     1       0.956   9.937  20.334  0.00  0.00    +0.000 A 
ATOM     13  C   UNL     1       1.231  10.121  18.966  0.00  0.00    +0.000 A 
ATOM     14  C   UNL     1       1.802   9.104  18.187  0.00  0.00    +0.000 A 
ATOM     15  C   UNL     1       2.107   7.886  18.777  0.00  0.00    +0.000 A 
ATOM     16  C   UNL     1       1.849   7.687  20.126  0.00  0.00    +0.000 A 
ATOM     17  C   UNL     1       1.292   8.695  20.905  0.00  0.00    +0.000 A 
BRANCH  15  18
ATOM     18  O   UNL     1       2.655   6.851  18.074  0.00  0.00    +0.000 OA
ATOM     19  H   UNL     1       2.499   6.027  18.567  0.00  0.00    +0.000 HD
ENDBRANCH  15  18
BRANCH  16  20
ATOM     20  O   UNL     1       2.138   6.485  20.709  0.00  0.00    +0.000 OA
ATOM     21  H   UNL     1       2.278   5.872  19.959  0.00  0.00    +0.000 HD
ENDBRANCH  16  20
ENDBRANCH   4  12
BRANCH   7  22
ATOM     22  C   UNL     1       2.271  14.694  20.838  0.00  0.00    +0.000 C 
ATOM     23  O   UNL     1       3.240  15.627  21.378  0.00  0.00    +0.000 OA
ATOM     24  C   UNL     1       4.564  15.317  20.866  0.00  0.00    +0.000 C 
ATOM     25  C   UNL     1       4.626  15.357  19.321  0.00  0.00    +0.000 C 
ATOM     26  C   UNL     1       3.432  14.615  18.685  0.00  0.00    +0.000 C 
ATOM     27  C   UNL     1       2.110  15.052  19.343  0.00  0.00    +0.000 C 
BRANCH  25  28
ATOM     28  O   UNL     1       5.870  14.783  18.896  0.00  0.00    +0.000 OA
ATOM     29  H   UNL     1       5.707  13.885  18.560  0.00  0.00    +0.000 HD
ENDBRANCH  25  28
BRANCH  26  30
ATOM     30  O   UNL     1       3.431  14.800  17.266  0.00  0.00    +0.000 OA
ATOM     31  H   UNL     1       4.285  15.191  17.008  0.00  0.00    +0.000 HD
ENDBRANCH  26  30
BRANCH  27  32
ATOM     32  O   UNL     1       1.007  14.438  18.688  0.00  0.00    +0.000 OA
ATOM     33  H   UNL     1       0.452  15.131  18.297  0.00  0.00    +0.000 HD
ENDBRANCH  27  32
BRANCH  24  34
ATOM     34  C   UNL     1       5.609  16.264  21.480  0.00  0.00    +0.000 C 
BRANCH  34  35
ATOM     35  O   UNL     1       6.912  15.689  21.454  0.00  0.00    +0.000 OA
ATOM     36  H   UNL     1       7.411  16.098  22.182  0.00  0.00    +0.000 HD
ENDBRANCH  34  35
ENDBRANCH  24  34
ENDBRANCH   7  22
BRANCH   8  37
ATOM     37  O   UNL     1       0.846  16.967  22.174  0.00  0.00    +0.000 OA
ATOM     38  H   UNL     1       0.386  17.387  21.425  0.00  0.00    +0.000 HD
ENDBRANCH   8  37
BRANCH  10  39
ATOM     39  O   UNL     1      -2.375  14.112  24.093  0.00  0.00    +0.000 OA
ATOM     40  H   UNL     1      -3.080  14.727  23.830  0.00  0.00    +0.000 HD
ENDBRANCH  10  39
TORSDOF 11
ENDMDL
MODEL 6
REMARK VINA RESULT:      -5.9      4.595      7.582
REMARK  Name = 
REMARK  11 active torsions:
REMARK  status: ('A' for Active; 'I' for Inactive)
REMARK    1  A    between atoms: C_4  and  C_5
REMARK    2  A    between atoms: C_8  and  O_9
REMARK    3  A    between atoms: C_10  and  O_11
REMARK    4  A    between atoms: C_15  and  C_16
REMARK    5  A    between atoms: C_18  and  C_19
REMARK    6  A    between atoms: C_19  and  O_20
REMARK    7  A    between atoms: C_21  and  O_22
REMARK    8  A    between atoms: C_23  and  O_24
REMARK    9  A    between atoms: C_25  and  O_26
REMARK   10  A    between atoms: C_27  and  O_28
REMARK   11  A    between atoms: C_30  and  O_31
REMARK                            x       y       z     vdW  Elec       q    Type
REMARK                         _______ _______ _______ _____ _____    ______ ____
ROOT
ATOM      1  O   UNL     1      -2.535  11.816  23.723  0.00  0.00    +0.000 OA
ATOM      2  C   UNL     1      -1.612  12.096  22.971  0.00  0.00    +0.000 A 
ATOM      3  C   UNL     1      -1.002  11.019  22.185  0.00  0.00    +0.000 A 
ATOM      4  C   UNL     1       0.074  11.261  21.427  0.00  0.00    +0.000 A 
ATOM      5  O   UNL     1       0.653  12.518  21.300  0.00  0.00    +0.000 OA
ATOM      6  C   UNL     1       0.080  13.599  21.959  0.00  0.00    +0.000 A 
ATOM      7  C   UNL     1       0.685  14.878  21.752  0.00  0.00    +0.000 A 
ATOM      8  C   UNL     1       0.076  15.982  22.366  0.00  0.00    +0.000 A 
ATOM      9  C   UNL     1      -1.025  15.829  23.211  0.00  0.00    +0.000 A 
ATOM     10  C   UNL     1      -1.578  14.566  23.425  0.00  0.00    +0.000 A 
ATOM     11  C   UNL     1      -1.041  13.448  22.787  0.00  0.00    +0.000 A 
ENDROOT
BRANCH   4  12
ATOM     12  C   UNL     1       0.712  10.166  20.650  0.00  0.00    +0.000 A 
ATOM     13  C   UNL     1       1.053   8.939  21.249  0.00  0.00    +0.000 A 
ATOM     14  C   UNL     1       1.677   7.914  20.522  0.00  0.00    +0.000 A 
ATOM     15  C   UNL     1       1.965   8.110  19.180  0.00  0.00    +0.000 A 
ATOM     16  C   UNL     1       1.631   9.311  18.570  0.00  0.00    +0.000 A 
ATOM     17  C   UNL     1       1.005  10.327  19.282  0.00  0.00    +0.000 A 
BRANCH  15  18
ATOM     18  O   UNL     1       2.580   7.157  18.418  0.00  0.00    +0.000 OA
ATOM     19  H   UNL     1       3.507   7.088  18.701  0.00  0.00    +0.000 HD
ENDBRANCH  15  18
BRANCH  16  20
ATOM     20  O   UNL     1       1.923   9.513  17.250  0.00  0.00    +0.000 OA
ATOM     21  H   UNL     1       2.050  10.479  17.167  0.00  0.00    +0.000 HD
ENDBRANCH  16  20
ENDBRANCH   4  12
BRANCH   7  22
ATOM     22  C   UNL     1       1.957  14.960  20.936  0.00  0.00    +0.000 C 
ATOM     23  O   UNL     1       2.787  16.107  21.245  0.00  0.00    +0.000 OA
ATOM     24  C   UNL     1       4.150  15.866  20.802  0.00  0.00    +0.000 C 
ATOM     25  C   UNL     1       4.236  15.569  19.286  0.00  0.00    +0.000 C 
ATOM     26  C   UNL     1       3.161  14.555  18.844  0.00  0.00    +0.000 C 
ATOM     27  C   UNL     1       1.780  14.952  19.401  0.00  0.00    +0.000 C 
BRANCH  25  28
ATOM     28  O   UNL     1       5.551  15.082  18.988  0.00  0.00    +0.000 OA
ATOM     29  H   UNL     1       5.479  14.204  18.575  0.00  0.00    +0.000 HD
ENDBRANCH  25  28
BRANCH  26  30
ATOM     30  O   UNL     1       3.163  14.419  17.420  0.00  0.00    +0.000 OA
ATOM     31  H   UNL     1       3.476  13.523  17.198  0.00  0.00    +0.000 HD
ENDBRANCH  26  30
BRANCH  27  32
ATOM     32  O   UNL     1       0.778  14.069  18.910  0.00  0.00    +0.000 OA
ATOM     33  H   UNL     1      -0.085  14.364  19.241  0.00  0.00    +0.000 HD
ENDBRANCH  27  32
BRANCH  24  34
ATOM     34  C   UNL     1       5.051  17.054  21.179  0.00  0.00    +0.000 C 
BRANCH  34  35
ATOM     35  O   UNL     1       5.250  17.928  20.071  0.00  0.00    +0.000 OA
ATOM     36  H   UNL     1       5.263  17.369  19.275  0.00  0.00    +0.000 HD
ENDBRANCH  34  35
ENDBRANCH  24  34
ENDBRANCH   7  22
BRANCH   8  37
ATOM     37  O   UNL     1       0.507  17.267  22.185  0.00  0.00    +0.000 OA
ATOM     38  H   UNL     1       1.476  17.284  22.283  0.00  0.00    +0.000 HD
ENDBRANCH   8  37
BRANCH  10  39
ATOM     39  O   UNL     1      -2.654  14.449  24.253  0.00  0.00    +0.000 OA
ATOM     40  H   UNL     1      -2.724  15.224  24.834  0.00  0.00    +0.000 HD
ENDBRANCH  10  39
TORSDOF 11
ENDMDL
MODEL 7
REMARK VINA RESULT:      -5.9      2.899      6.765
REMARK  Name = 
REMARK  11 active torsions:
REMARK  status: ('A' for Active; 'I' for Inactive)
REMARK    1  A    between atoms: C_4  and  C_5
REMARK    2  A    between atoms: C_8  and  O_9
REMARK    3  A    between atoms: C_10  and  O_11
REMARK    4  A    between atoms: C_15  and  C_16
REMARK    5  A    between atoms: C_18  and  C_19
REMARK    6  A    between atoms: C_19  and  O_20
REMARK    7  A    between atoms: C_21  and  O_22
REMARK    8  A    between atoms: C_23  and  O_24
REMARK    9  A    between atoms: C_25  and  O_26
REMARK   10  A    between atoms: C_27  and  O_28
REMARK   11  A    between atoms: C_30  and  O_31
REMARK                            x       y       z     vdW  Elec       q    Type
REMARK                         _______ _______ _______ _____ _____    ______ ____
ROOT
ATOM      1  O   UNL     1      -6.612  12.378  22.665  0.00  0.00    +0.000 OA
ATOM      2  C   UNL     1      -5.676  12.840  22.027  0.00  0.00    +0.000 A 
ATOM      3  C   UNL     1      -5.329  12.215  20.747  0.00  0.00    +0.000 A 
ATOM      4  C   UNL     1      -4.252  12.624  20.066  0.00  0.00    +0.000 A 
ATOM      5  O   UNL     1      -3.431  13.663  20.485  0.00  0.00    +0.000 OA
ATOM      6  C   UNL     1      -3.745  14.348  21.653  0.00  0.00    +0.000 A 
ATOM      7  C   UNL     1      -2.896  15.442  22.010  0.00  0.00    +0.000 A 
ATOM      8  C   UNL     1      -3.244  16.176  23.154  0.00  0.00    +0.000 A 
ATOM      9  C   UNL     1      -4.324  15.804  23.957  0.00  0.00    +0.000 A 
ATOM     10  C   UNL     1      -5.119  14.712  23.606  0.00  0.00    +0.000 A 
ATOM     11  C   UNL     1      -4.846  13.990  22.444  0.00  0.00    +0.000 A 
ENDROOT
BRANCH   4  12
ATOM     12  C   UNL     1      -3.879  11.975  18.781  0.00  0.00    +0.000 A 
ATOM     13  C   UNL     1      -4.808  11.827  17.734  0.00  0.00    +0.000 A 
ATOM     14  C   UNL     1      -4.464  11.193  16.530  0.00  0.00    +0.000 A 
ATOM     15  C   UNL     1      -3.178  10.701  16.364  0.00  0.00    +0.000 A 
ATOM     16  C   UNL     1      -2.246  10.843  17.383  0.00  0.00    +0.000 A 
ATOM     17  C   UNL     1      -2.579  11.478  18.574  0.00  0.00    +0.000 A 
BRANCH  15  18
ATOM     18  O   UNL     1      -2.781  10.066  15.221  0.00  0.00    +0.000 OA
ATOM     19  H   UNL     1      -2.623  10.737  14.536  0.00  0.00    +0.000 HD
ENDBRANCH  15  18
BRANCH  16  20
ATOM     20  O   UNL     1      -0.982  10.349  17.228  0.00  0.00    +0.000 OA
ATOM     21  H   UNL     1      -0.399  11.023  17.633  0.00  0.00    +0.000 HD
ENDBRANCH  16  20
ENDBRANCH   4  12
BRANCH   7  22
ATOM     22  C   UNL     1      -1.663  15.711  21.176  0.00  0.00    +0.000 C 
ATOM     23  O   UNL     1      -0.467  15.974  21.952  0.00  0.00    +0.000 OA
ATOM     24  C   UNL     1       0.713  15.744  21.136  0.00  0.00    +0.000 C 
ATOM     25  C   UNL     1       0.731  16.621  19.862  0.00  0.00    +0.000 C 
ATOM     26  C   UNL     1      -0.635  16.610  19.145  0.00  0.00    +0.000 C 
ATOM     27  C   UNL     1      -1.775  16.861  20.150  0.00  0.00    +0.000 C 
BRANCH  25  28
ATOM     28  O   UNL     1       1.769  16.145  18.993  0.00  0.00    +0.000 OA
ATOM     29  H   UNL     1       2.101  16.888  18.459  0.00  0.00    +0.000 HD
ENDBRANCH  25  28
BRANCH  26  30
ATOM     30  O   UNL     1      -0.635  17.547  18.064  0.00  0.00    +0.000 OA
ATOM     31  H   UNL     1      -1.560  17.753  17.838  0.00  0.00    +0.000 HD
ENDBRANCH  26  30
BRANCH  27  32
ATOM     32  O   UNL     1      -3.021  16.946  19.469  0.00  0.00    +0.000 OA
ATOM     33  H   UNL     1      -3.444  17.789  19.699  0.00  0.00    +0.000 HD
ENDBRANCH  27  32
BRANCH  24  34
ATOM     34  C   UNL     1       1.988  15.962  21.968  0.00  0.00    +0.000 C 
BRANCH  34  35
ATOM     35  O   UNL     1       2.580  14.723  22.349  0.00  0.00    +0.000 OA
ATOM     36  H   UNL     1       3.195  14.478  21.636  0.00  0.00    +0.000 HD
ENDBRANCH  34  35
ENDBRANCH  24  34
ENDBRANCH   7  22
BRANCH   8  37
ATOM     37  O   UNL     1      -2.562  17.290  23.560  0.00  0.00    +0.000 OA
ATOM     38  H   UNL     1      -3.148  17.820  24.129  0.00  0.00    +0.000 HD
ENDBRANCH   8  37
BRANCH  10  39
ATOM     39  O   UNL     1      -6.167  14.375  24.408  0.00  0.00    +0.000 OA
ATOM     40  H   UNL     1      -7.005  14.434  23.919  0.00  0.00    +0.000 HD
ENDBRANCH  10  39
TORSDOF 11
ENDMDL
MODEL 8
REMARK VINA RESULT:      -5.9      2.215      5.714
REMARK  Name = 
REMARK  11 active torsions:
REMARK  status: ('A' for Active; 'I' for Inactive)
REMARK    1  A    between atoms: C_4  and  C_5
REMARK    2  A    between atoms: C_8  and  O_9
REMARK    3  A    between atoms: C_10  and  O_11
REMARK    4  A    between atoms: C_15  and  C_16
REMARK    5  A    between atoms: C_18  and  C_19
REMARK    6  A    between atoms: C_19  and  O_20
REMARK    7  A    between atoms: C_21  and  O_22
REMARK    8  A    between atoms: C_23  and  O_24
REMARK    9  A    between atoms: C_25  and  O_26
REMARK   10  A    between atoms: C_27  and  O_28
REMARK   11  A    between atoms: C_30  and  O_31
REMARK                            x       y       z     vdW  Elec       q    Type
REMARK                         _______ _______ _______ _____ _____    ______ ____
ROOT
ATOM      1  O   UNL     1      -1.330  14.284  24.476  0.00  0.00    +0.000 OA
ATOM      2  C   UNL     1      -1.986  13.901  23.518  0.00  0.00    +0.000 A 
ATOM      3  C   UNL     1      -1.332  13.045  22.524  0.00  0.00    +0.000 A 
ATOM      4  C   UNL     1      -1.981  12.686  21.409  0.00  0.00    +0.000 A 
ATOM      5  O   UNL     1      -3.293  13.052  21.136  0.00  0.00    +0.000 OA
ATOM      6  C   UNL     1      -3.997  13.802  22.071  0.00  0.00    +0.000 A 
ATOM      7  C   UNL     1      -5.359  14.107  21.763  0.00  0.00    +0.000 A 
ATOM      8  C   UNL     1      -6.093  14.811  22.729  0.00  0.00    +0.000 A 
ATOM      9  C   UNL     1      -5.496  15.268  23.906  0.00  0.00    +0.000 A 
ATOM     10  C   UNL     1      -4.154  14.987  24.170  0.00  0.00    +0.000 A 
ATOM     11  C   UNL     1      -3.403  14.238  23.265  0.00  0.00    +0.000 A 
ENDROOT
BRANCH   4  12
ATOM     12  C   UNL     1      -1.312  11.841  20.385  0.00  0.00    +0.000 A 
ATOM     13  C   UNL     1      -1.656  11.924  19.022  0.00  0.00    +0.000 A 
ATOM     14  C   UNL     1      -1.042  11.110  18.058  0.00  0.00    +0.000 A 
ATOM     15  C   UNL     1      -0.071  10.201  18.454  0.00  0.00    +0.000 A 
ATOM     16  C   UNL     1       0.285  10.109  19.792  0.00  0.00    +0.000 A 
ATOM     17  C   UNL     1      -0.313  10.919  20.750  0.00  0.00    +0.000 A 
BRANCH  15  18
ATOM     18  O   UNL     1       0.558   9.373  17.568  0.00  0.00    +0.000 OA
ATOM     19  H   UNL     1       1.361   9.819  17.248  0.00  0.00    +0.000 HD
ENDBRANCH  15  18
BRANCH  16  20
ATOM     20  O   UNL     1       1.233   9.207  20.188  0.00  0.00    +0.000 OA
ATOM     21  H   UNL     1       2.088   9.642  19.992  0.00  0.00    +0.000 HD
ENDBRANCH  16  20
ENDBRANCH   4  12
BRANCH   7  22
ATOM     22  C   UNL     1      -5.910  13.703  20.413  0.00  0.00    +0.000 C 
ATOM     23  O   UNL     1      -6.755  14.705  19.793  0.00  0.00    +0.000 OA
ATOM     24  C   UNL     1      -6.838  14.465  18.362  0.00  0.00    +0.000 C 
ATOM     25  C   UNL     1      -7.388  13.058  18.029  0.00  0.00    +0.000 C 
ATOM     26  C   UNL     1      -6.718  11.967  18.889  0.00  0.00    +0.000 C 
ATOM     27  C   UNL     1      -6.706  12.380  20.373  0.00  0.00    +0.000 C 
BRANCH  25  28
ATOM     28  O   UNL     1      -7.185  12.806  16.632  0.00  0.00    +0.000 OA
ATOM     29  H   UNL     1      -7.949  12.313  16.284  0.00  0.00    +0.000 HD
ENDBRANCH  25  28
BRANCH  26  30
ATOM     30  O   UNL     1      -7.353  10.704  18.671  0.00  0.00    +0.000 OA
ATOM     31  H   UNL     1      -7.625  10.345  19.535  0.00  0.00    +0.000 HD
ENDBRANCH  26  30
BRANCH  27  32
ATOM     32  O   UNL     1      -6.175  11.328  21.172  0.00  0.00    +0.000 OA
ATOM     33  H   UNL     1      -6.889  10.704  21.378  0.00  0.00    +0.000 HD
ENDBRANCH  27  32
BRANCH  24  34
ATOM     34  C   UNL     1      -7.684  15.558  17.686  0.00  0.00    +0.000 C 
BRANCH  34  35
ATOM     35  O   UNL     1      -6.865  16.492  16.988  0.00  0.00    +0.000 OA
ATOM     36  H   UNL     1      -7.179  17.378  17.237  0.00  0.00    +0.000 HD
ENDBRANCH  34  35
ENDBRANCH  24  34
ENDBRANCH   7  22
BRANCH   8  37
ATOM     37  O   UNL     1      -7.423  15.097  22.593  0.00  0.00    +0.000 OA
ATOM     38  H   UNL     1      -7.875  14.306  22.249  0.00  0.00    +0.000 HD
ENDBRANCH   8  37
BRANCH  10  39
ATOM     39  O   UNL     1      -3.601  15.444  25.328  0.00  0.00    +0.000 OA
ATOM     40  H   UNL     1      -4.186  15.263  26.082  0.00  0.00    +0.000 HD
ENDBRANCH  10  39
TORSDOF 11
ENDMDL
MODEL 9
REMARK VINA RESULT:      -5.8      2.469      5.775
REMARK  Name = 
REMARK  11 active torsions:
REMARK  status: ('A' for Active; 'I' for Inactive)
REMARK    1  A    between atoms: C_4  and  C_5
REMARK    2  A    between atoms: C_8  and  O_9
REMARK    3  A    between atoms: C_10  and  O_11
REMARK    4  A    between atoms: C_15  and  C_16
REMARK    5  A    between atoms: C_18  and  C_19
REMARK    6  A    between atoms: C_19  and  O_20
REMARK    7  A    between atoms: C_21  and  O_22
REMARK    8  A    between atoms: C_23  and  O_24
REMARK    9  A    between atoms: C_25  and  O_26
REMARK   10  A    between atoms: C_27  and  O_28
REMARK   11  A    between atoms: C_30  and  O_31
REMARK                            x       y       z     vdW  Elec       q    Type
REMARK                         _______ _______ _______ _____ _____    ______ ____
ROOT
ATOM      1  O   UNL     1      -1.099  15.888  24.436  0.00  0.00    +0.000 OA
ATOM      2  C   UNL     1      -1.766  15.111  23.769  0.00  0.00    +0.000 A 
ATOM      3  C   UNL     1      -1.081  14.001  23.098  0.00  0.00    +0.000 A 
ATOM      4  C   UNL     1      -1.755  13.187  22.278  0.00  0.00    +0.000 A 
ATOM      5  O   UNL     1      -3.118  13.302  22.037  0.00  0.00    +0.000 OA
ATOM      6  C   UNL     1      -3.844  14.285  22.698  0.00  0.00    +0.000 A 
ATOM      7  C   UNL     1      -5.252  14.325  22.453  0.00  0.00    +0.000 A 
ATOM      8  C   UNL     1      -6.000  15.276  23.163  0.00  0.00    +0.000 A 
ATOM      9  C   UNL     1      -5.385  16.200  24.011  0.00  0.00    +0.000 A 
ATOM     10  C   UNL     1      -4.004  16.163  24.209  0.00  0.00    +0.000 A 
ATOM     11  C   UNL     1      -3.229  15.196  23.569  0.00  0.00    +0.000 A 
ENDROOT
BRANCH   4  12
ATOM     12  C   UNL     1      -1.058  12.078  21.574  0.00  0.00    +0.000 A 
ATOM     13  C   UNL     1      -0.737  10.875  22.231  0.00  0.00    +0.000 A 
ATOM     14  C   UNL     1      -0.059   9.837  21.574  0.00  0.00    +0.000 A 
ATOM     15  C   UNL     1       0.304   9.996  20.244  0.00  0.00    +0.000 A 
ATOM     16  C   UNL     1      -0.008  11.173  19.579  0.00  0.00    +0.000 A 
ATOM     17  C   UNL     1      -0.689  12.201  20.221  0.00  0.00    +0.000 A 
BRANCH  15  18
ATOM     18  O   UNL     1       0.975   9.029  19.550  0.00  0.00    +0.000 OA
ATOM     19  H   UNL     1       0.455   8.208  19.588  0.00  0.00    +0.000 HD
ENDBRANCH  15  18
BRANCH  16  20
ATOM     20  O   UNL     1       0.357  11.339  18.272  0.00  0.00    +0.000 OA
ATOM     21  H   UNL     1      -0.414  11.765  17.849  0.00  0.00    +0.000 HD
ENDBRANCH  16  20
ENDBRANCH   4  12
BRANCH   7  22
ATOM     22  C   UNL     1      -5.840  13.388  21.421  0.00  0.00    +0.000 C 
ATOM     23  O   UNL     1      -6.407  14.056  20.266  0.00  0.00    +0.000 OA
ATOM     24  C   UNL     1      -6.499  13.128  19.152  0.00  0.00    +0.000 C 
ATOM     25  C   UNL     1      -7.354  11.883  19.490  0.00  0.00    +0.000 C 
ATOM     26  C   UNL     1      -6.986  11.297  20.868  0.00  0.00    +0.000 C 
ATOM     27  C   UNL     1      -6.923  12.411  21.931  0.00  0.00    +0.000 C 
BRANCH  25  28
ATOM     28  O   UNL     1      -7.172  10.908  18.454  0.00  0.00    +0.000 OA
ATOM     29  H   UNL     1      -7.854  10.219  18.543  0.00  0.00    +0.000 HD
ENDBRANCH  25  28
BRANCH  26  30
ATOM     30  O   UNL     1      -7.892  10.248  21.220  0.00  0.00    +0.000 OA
ATOM     31  H   UNL     1      -8.671  10.647  21.648  0.00  0.00    +0.000 HD
ENDBRANCH  26  30
BRANCH  27  32
ATOM     32  O   UNL     1      -6.679  11.852  23.216  0.00  0.00    +0.000 OA
ATOM     33  H   UNL     1      -6.191  12.499  23.749  0.00  0.00    +0.000 HD
ENDBRANCH  27  32
BRANCH  24  34
ATOM     34  C   UNL     1      -7.043  13.843  17.905  0.00  0.00    +0.000 C 
BRANCH  34  35
ATOM     35  O   UNL     1      -6.383  15.087  17.689  0.00  0.00    +0.000 OA
ATOM     36  H   UNL     1      -5.932  15.311  18.521  0.00  0.00    +0.000 HD
ENDBRANCH  34  35
ENDBRANCH  24  34
ENDBRANCH   7  22
BRANCH   8  37
ATOM     37  O   UNL     1      -7.361  15.367  23.080  0.00  0.00    +0.000 OA
ATOM     38  H   UNL     1      -7.711  14.506  22.789  0.00  0.00    +0.000 HD
ENDBRANCH   8  37
BRANCH  10  39
ATOM     39  O   UNL     1      -3.433  17.076  25.043  0.00  0.00    +0.000 OA
ATOM     40  H   UNL     1      -3.598  16.841  25.972  0.00  0.00    +0.000 HD
ENDBRANCH  10  39
TORSDOF 11
ENDMDL
