MODEL 1
REMARK VINA RESULT:      -8.0      0.000      0.000
REMARK  Name = 
REMARK  18 active torsions:
REMARK  status: ('A' for Active; 'I' for Inactive)
REMARK    1  A    between atoms: N_1  and  C_2
REMARK    2  A    between atoms: C_2  and  C_3
REMARK    3  A    between atoms: C_3  and  C_4
REMARK    4  A    between atoms: C_4  and  C_5
REMARK    5  A    between atoms: C_5  and  C_6
REMARK    6  A    between atoms: C_6  and  N_7
REMARK    7  A    between atoms: C_6  and  C_20
REMARK    8  A    between atoms: N_7  and  C_8
REMARK    9  A    between atoms: C_8  and  C_9
REMARK   10  A    between atoms: C_8  and  C_17
REMARK   11  A    between atoms: C_9  and  C_10
REMARK   12  A    between atoms: C_10  and  C_11
REMARK   13  A    between atoms: C_17  and  O_19
REMARK   14  A    between atoms: N_22  and  CA_23
REMARK   15  A    between atoms: CA_23  and  CB_24
REMARK   16  A    between atoms: CA_23  and  C_34
REMARK   17  A    between atoms: CB_24  and  CG_25
REMARK   18  A    between atoms: C_34  and  OXT_36
REMARK                            x       y       z     vdW  Elec       q    Type
REMARK                         _______ _______ _______ _____ _____    ______ ____
ROOT
ATOM      1  C   UNK A   1       4.677   5.993  17.153  0.00  0.00    +0.000 C 
ENDROOT
BRANCH   1   2
ATOM      2  C   UNK A   1       3.371   5.789  17.936  0.00  0.00    +0.000 C 
ATOM      3  O   UNK A   1       2.493   4.999  17.565  0.00  0.00    +0.000 OA
ATOM      4  N   TRP A   2       3.175   6.558  19.063  0.00  0.00    +0.000 N 
ATOM      5  H   TRP A   2       3.926   7.151  19.402  0.00  0.00    +0.000 HD
BRANCH   4   6
ATOM      6  CA  TRP A   2       1.876   6.568  19.763  0.00  0.00    +0.000 C 
BRANCH   6   7
ATOM      7  C   TRP A   2       1.696   5.239  20.605  0.00  0.00    +0.000 C 
ATOM      8  O   TRP A   2       0.786   4.429  20.421  0.00  0.00    +0.000 OA
BRANCH   7   9
ATOM      9  OXT TRP A   2       2.639   4.984  21.529  0.00  0.00    +0.000 OA
ATOM     10  HXT TRP A   2       3.006   5.799  21.944  0.00  0.00    +0.000 HD
ENDBRANCH   7   9
ENDBRANCH   6   7
BRANCH   6  11
ATOM     11  CB  TRP A   2       1.687   7.695  20.787  0.00  0.00    +0.000 C 
BRANCH  11  12
ATOM     12  CG  TRP A   2       0.626   8.765  20.913  0.00  0.00    +0.000 A 
ATOM     13  CD1 TRP A   2       0.135   8.993  22.198  0.00  0.00    +0.000 A 
ATOM     14  NE1 TRP A   2      -0.258  10.288  22.273  0.00  0.00    +0.000 N 
ATOM     15  CE2 TRP A   2      -0.411  10.787  21.009  0.00  0.00    +0.000 A 
ATOM     16  CZ2 TRP A   2      -0.898  12.046  20.637  0.00  0.00    +0.000 A 
ATOM     17  CH2 TRP A   2      -1.209  12.236  19.299  0.00  0.00    +0.000 A 
ATOM     18  CZ3 TRP A   2      -0.980  11.216  18.380  0.00  0.00    +0.000 A 
ATOM     19  CE3 TRP A   2      -0.329  10.015  18.751  0.00  0.00    +0.000 A 
ATOM     20  CD2 TRP A   2      -0.022   9.776  20.111  0.00  0.00    +0.000 A 
ATOM     21  HE1 TRP A   2      -0.487  10.784  23.124  0.00  0.00    +0.000 HD
ENDBRANCH  11  12
ENDBRANCH   6  11
ENDBRANCH   4   6
ENDBRANCH   1   2
BRANCH   1  22
ATOM     22  N   UNK A   1       5.778   6.575  17.970  0.00  0.00    +0.000 NA
ATOM     23  H   UNK A   1       5.592   7.584  18.028  0.00  0.00    +0.000 HD
BRANCH  22  24
ATOM     24  C   UNK A   1       7.258   6.422  17.622  0.00  0.00    +0.000 C 
BRANCH  24  25
ATOM     25  C   UNK A   1       7.602   5.020  18.214  0.00  0.00    +0.000 C 
ATOM     26  O   UNK A   1       8.289   4.153  17.694  0.00  0.00    +0.000 OA
BRANCH  25  27
ATOM     27  O   UNK A   1       7.007   4.826  19.430  0.00  0.00    +0.000 OA
ATOM     28  H   UNK A   1       7.170   5.643  19.957  0.00  0.00    +0.000 HD
ENDBRANCH  25  27
ENDBRANCH  24  25
BRANCH  24  29
ATOM     29  C   UNK A   1       8.215   7.554  18.132  0.00  0.00    +0.000 C 
BRANCH  29  30
ATOM     30  C   UNK A   1       8.004   9.102  17.905  0.00  0.00    +0.000 C 
BRANCH  30  31
ATOM     31  C   UNK A   1       8.848  10.255  18.457  0.00  0.00    +0.000 A 
ATOM     32  C   UNK A   1       8.906  11.477  17.730  0.00  0.00    +0.000 A 
ATOM     33  C   UNK A   1       9.492  12.641  18.253  0.00  0.00    +0.000 A 
ATOM     34  C   UNK A   1      10.031  12.627  19.534  0.00  0.00    +0.000 A 
ATOM     35  C   UNK A   1       9.979  11.440  20.273  0.00  0.00    +0.000 A 
ATOM     36  C   UNK A   1       9.393  10.271  19.742  0.00  0.00    +0.000 A 
ENDBRANCH  30  31
ENDBRANCH  29  30
ENDBRANCH  24  29
ENDBRANCH  22  24
ENDBRANCH   1  22
BRANCH   1  37
ATOM     37  C   UNK A   1       5.117   4.780  16.308  0.00  0.00    +0.000 C 
BRANCH  37  38
ATOM     38  C   UNK A   1       5.492   5.021  14.831  0.00  0.00    +0.000 C 
BRANCH  38  39
ATOM     39  C   UNK A   1       6.840   4.475  14.346  0.00  0.00    +0.000 C 
BRANCH  39  40
ATOM     40  C   UNK A   1       6.747   4.148  12.846  0.00  0.00    +0.000 C 
BRANCH  40  41
ATOM     41  N   UNK A   1       6.044   2.894  12.607  0.00  0.00    +0.000 NA
ATOM     42  H   UNK A   1       6.231   2.258  13.384  0.00  0.00    +0.000 HD
ATOM     43  H   UNK A   1       6.431   2.435  11.782  0.00  0.00    +0.000 HD
ENDBRANCH  40  41
ENDBRANCH  39  40
ENDBRANCH  38  39
ENDBRANCH  37  38
ENDBRANCH   1  37
TORSDOF 18
ENDMDL
MODEL 2
REMARK VINA RESULT:      -7.9      3.563      5.842
REMARK  Name = 
REMARK  18 active torsions:
REMARK  status: ('A' for Active; 'I' for Inactive)
REMARK    1  A    between atoms: N_1  and  C_2
REMARK    2  A    between atoms: C_2  and  C_3
REMARK    3  A    between atoms: C_3  and  C_4
REMARK    4  A    between atoms: C_4  and  C_5
REMARK    5  A    between atoms: C_5  and  C_6
REMARK    6  A    between atoms: C_6  and  N_7
REMARK    7  A    between atoms: C_6  and  C_20
REMARK    8  A    between atoms: N_7  and  C_8
REMARK    9  A    between atoms: C_8  and  C_9
REMARK   10  A    between atoms: C_8  and  C_17
REMARK   11  A    between atoms: C_9  and  C_10
REMARK   12  A    between atoms: C_10  and  C_11
REMARK   13  A    between atoms: C_17  and  O_19
REMARK   14  A    between atoms: N_22  and  CA_23
REMARK   15  A    between atoms: CA_23  and  CB_24
REMARK   16  A    between atoms: CA_23  and  C_34
REMARK   17  A    between atoms: CB_24  and  CG_25
REMARK   18  A    between atoms: C_34  and  OXT_36
REMARK                            x       y       z     vdW  Elec       q    Type
REMARK                         _______ _______ _______ _____ _____    ______ ____
ROOT
ATOM      1  C   UNK A   1       2.896   6.373  18.581  0.00  0.00    +0.000 C 
ENDROOT
BRANCH   1   2
ATOM      2  C   UNK A   1       2.179   7.629  19.099  0.00  0.00    +0.000 C 
ATOM      3  O   UNK A   1       2.015   7.847  20.306  0.00  0.00    +0.000 OA
ATOM      4  N   TRP A   2       1.669   8.505  18.165  0.00  0.00    +0.000 N 
ATOM      5  H   TRP A   2       1.867   8.358  17.181  0.00  0.00    +0.000 HD
BRANCH   4   6
ATOM      6  CA  TRP A   2       0.803   9.630  18.566  0.00  0.00    +0.000 C 
BRANCH   6   7
ATOM      7  C   TRP A   2       1.621  10.986  18.551  0.00  0.00    +0.000 C 
ATOM      8  O   TRP A   2       1.637  11.789  19.484  0.00  0.00    +0.000 OA
BRANCH   7   9
ATOM      9  OXT TRP A   2       2.375  11.216  17.460  0.00  0.00    +0.000 OA
ATOM     10  HXT TRP A   2       3.340  11.254  17.656  0.00  0.00    +0.000 HD
ENDBRANCH   7   9
ENDBRANCH   6   7
BRANCH   6  11
ATOM     11  CB  TRP A   2      -0.397   9.900  17.649  0.00  0.00    +0.000 C 
BRANCH  11  12
ATOM     12  CG  TRP A   2      -1.615  10.778  17.827  0.00  0.00    +0.000 A 
ATOM     13  CD1 TRP A   2      -2.602  10.662  16.849  0.00  0.00    +0.000 A 
ATOM     14  NE1 TRP A   2      -3.795  10.954  17.422  0.00  0.00    +0.000 N 
ATOM     15  CE2 TRP A   2      -3.581  11.625  18.594  0.00  0.00    +0.000 A 
ATOM     16  CZ2 TRP A   2      -4.538  12.197  19.442  0.00  0.00    +0.000 A 
ATOM     17  CH2 TRP A   2      -4.077  13.050  20.433  0.00  0.00    +0.000 A 
ATOM     18  CZ3 TRP A   2      -2.710  13.263  20.588  0.00  0.00    +0.000 A 
ATOM     19  CE3 TRP A   2      -1.756  12.543  19.831  0.00  0.00    +0.000 A 
ATOM     20  CD2 TRP A   2      -2.190  11.685  18.792  0.00  0.00    +0.000 A 
ATOM     21  HE1 TRP A   2      -4.703  10.782  17.010  0.00  0.00    +0.000 HD
ENDBRANCH  11  12
ENDBRANCH   6  11
ENDBRANCH   4   6
ENDBRANCH   1   2
BRANCH   1  22
ATOM     22  N   UNK A   1       4.333   6.305  18.964  0.00  0.00    +0.000 NA
ATOM     23  H   UNK A   1       4.679   7.273  18.962  0.00  0.00    +0.000 HD
BRANCH  22  24
ATOM     24  C   UNK A   1       5.368   5.469  18.213  0.00  0.00    +0.000 C 
BRANCH  24  25
ATOM     25  C   UNK A   1       6.675   5.742  19.021  0.00  0.00    +0.000 C 
ATOM     26  O   UNK A   1       6.969   5.286  20.116  0.00  0.00    +0.000 OA
BRANCH  25  27
ATOM     27  O   UNK A   1       7.500   6.613  18.366  0.00  0.00    +0.000 OA
ATOM     28  H   UNK A   1       7.921   7.177  19.057  0.00  0.00    +0.000 HD
ENDBRANCH  25  27
ENDBRANCH  24  25
BRANCH  24  29
ATOM     29  C   UNK A   1       5.523   5.762  16.681  0.00  0.00    +0.000 C 
BRANCH  29  30
ATOM     30  C   UNK A   1       5.187   4.750  15.517  0.00  0.00    +0.000 C 
BRANCH  30  31
ATOM     31  C   UNK A   1       6.024   4.439  14.273  0.00  0.00    +0.000 A 
ATOM     32  C   UNK A   1       5.515   3.524  13.309  0.00  0.00    +0.000 A 
ATOM     33  C   UNK A   1       6.120   3.330  12.057  0.00  0.00    +0.000 A 
ATOM     34  C   UNK A   1       7.254   4.058  11.718  0.00  0.00    +0.000 A 
ATOM     35  C   UNK A   1       7.771   4.970  12.645  0.00  0.00    +0.000 A 
ATOM     36  C   UNK A   1       7.162   5.159  13.904  0.00  0.00    +0.000 A 
ENDBRANCH  30  31
ENDBRANCH  29  30
ENDBRANCH  24  29
ENDBRANCH  22  24
ENDBRANCH   1  22
BRANCH   1  37
ATOM     37  C   UNK A   1       2.135   5.053  18.822  0.00  0.00    +0.000 C 
BRANCH  37  38
ATOM     38  C   UNK A   1       1.721   4.217  17.593  0.00  0.00    +0.000 C 
BRANCH  38  39
ATOM     39  C   UNK A   1       2.626   3.046  17.196  0.00  0.00    +0.000 C 
BRANCH  39  40
ATOM     40  C   UNK A   1       2.808   2.111  18.404  0.00  0.00    +0.000 C 
BRANCH  40  41
ATOM     41  N   UNK A   1       1.554   1.478  18.794  0.00  0.00    +0.000 NA
ATOM     42  H   UNK A   1       1.738   0.501  19.026  0.00  0.00    +0.000 HD
ATOM     43  H   UNK A   1       0.920   1.453  17.996  0.00  0.00    +0.000 HD
ENDBRANCH  40  41
ENDBRANCH  39  40
ENDBRANCH  38  39
ENDBRANCH  37  38
ENDBRANCH   1  37
TORSDOF 18
ENDMDL
MODEL 3
REMARK VINA RESULT:      -7.7      3.652      6.155
REMARK  Name = 
REMARK  18 active torsions:
REMARK  status: ('A' for Active; 'I' for Inactive)
REMARK    1  A    between atoms: N_1  and  C_2
REMARK    2  A    between atoms: C_2  and  C_3
REMARK    3  A    between atoms: C_3  and  C_4
REMARK    4  A    between atoms: C_4  and  C_5
REMARK    5  A    between atoms: C_5  and  C_6
REMARK    6  A    between atoms: C_6  and  N_7
REMARK    7  A    between atoms: C_6  and  C_20
REMARK    8  A    between atoms: N_7  and  C_8
REMARK    9  A    between atoms: C_8  and  C_9
REMARK   10  A    between atoms: C_8  and  C_17
REMARK   11  A    between atoms: C_9  and  C_10
REMARK   12  A    between atoms: C_10  and  C_11
REMARK   13  A    between atoms: C_17  and  O_19
REMARK   14  A    between atoms: N_22  and  CA_23
REMARK   15  A    between atoms: CA_23  and  CB_24
REMARK   16  A    between atoms: CA_23  and  C_34
REMARK   17  A    between atoms: CB_24  and  CG_25
REMARK   18  A    between atoms: C_34  and  OXT_36
REMARK                            x       y       z     vdW  Elec       q    Type
REMARK                         _______ _______ _______ _____ _____    ______ ____
ROOT
ATOM      1  C   UNK A   1       2.742   6.237  18.080  0.00  0.00    +0.000 C 
ENDROOT
BRANCH   1   2
ATOM      2  C   UNK A   1       2.206   7.465  18.832  0.00  0.00    +0.000 C 
ATOM      3  O   UNK A   1       2.075   7.482  20.062  0.00  0.00    +0.000 OA
ATOM      4  N   TRP A   2       1.822   8.556  18.082  0.00  0.00    +0.000 N 
ATOM      5  H   TRP A   2       1.998   8.564  17.083  0.00  0.00    +0.000 HD
BRANCH   4   6
ATOM      6  CA  TRP A   2       1.120   9.697  18.699  0.00  0.00    +0.000 C 
BRANCH   6   7
ATOM      7  C   TRP A   2       1.930  11.036  18.457  0.00  0.00    +0.000 C 
ATOM      8  O   TRP A   2       2.617  11.251  17.458  0.00  0.00    +0.000 OA
BRANCH   7   9
ATOM      9  OXT TRP A   2       1.793  11.995  19.391  0.00  0.00    +0.000 OA
ATOM     10  HXT TRP A   2       1.279  11.699  20.178  0.00  0.00    +0.000 HD
ENDBRANCH   7   9
ENDBRANCH   6   7
BRANCH   6  11
ATOM     11  CB  TRP A   2      -0.279   9.992  18.142  0.00  0.00    +0.000 C 
BRANCH  11  12
ATOM     12  CG  TRP A   2      -1.289  11.062  18.489  0.00  0.00    +0.000 A 
ATOM     13  CD1 TRP A   2      -2.077  11.525  17.437  0.00  0.00    +0.000 A 
ATOM     14  NE1 TRP A   2      -3.264  11.931  17.949  0.00  0.00    +0.000 N 
ATOM     15  CE2 TRP A   2      -3.134  12.119  19.297  0.00  0.00    +0.000 A 
ATOM     16  CZ2 TRP A   2      -4.086  12.630  20.188  0.00  0.00    +0.000 A 
ATOM     17  CH2 TRP A   2      -3.646  12.974  21.457  0.00  0.00    +0.000 A 
ATOM     18  CZ3 TRP A   2      -2.319  12.755  21.817  0.00  0.00    +0.000 A 
ATOM     19  CE3 TRP A   2      -1.419  12.081  20.958  0.00  0.00    +0.000 A 
ATOM     20  CD2 TRP A   2      -1.825  11.740  19.646  0.00  0.00    +0.000 A 
ATOM     21  HE1 TRP A   2      -4.094  12.146  17.411  0.00  0.00    +0.000 HD
ENDBRANCH  11  12
ENDBRANCH   6  11
ENDBRANCH   4   6
ENDBRANCH   1   2
BRANCH   1  22
ATOM     22  N   UNK A   1       4.090   5.800  18.535  0.00  0.00    +0.000 NA
ATOM     23  H   UNK A   1       4.463   6.564  19.114  0.00  0.00    +0.000 HD
BRANCH  22  24
ATOM     24  C   UNK A   1       5.212   5.387  17.582  0.00  0.00    +0.000 C 
BRANCH  24  25
ATOM     25  C   UNK A   1       5.495   6.709  16.802  0.00  0.00    +0.000 C 
ATOM     26  O   UNK A   1       5.047   7.026  15.710  0.00  0.00    +0.000 OA
BRANCH  25  27
ATOM     27  O   UNK A   1       6.364   7.518  17.479  0.00  0.00    +0.000 OA
ATOM     28  H   UNK A   1       6.504   8.315  16.917  0.00  0.00    +0.000 HD
ENDBRANCH  25  27
ENDBRANCH  24  25
BRANCH  24  29
ATOM     29  C   UNK A   1       4.914   4.171  16.639  0.00  0.00    +0.000 C 
BRANCH  29  30
ATOM     30  C   UNK A   1       5.945   3.514  15.641  0.00  0.00    +0.000 C 
BRANCH  30  31
ATOM     31  C   UNK A   1       6.322   3.988  14.234  0.00  0.00    +0.000 A 
ATOM     32  C   UNK A   1       7.349   4.962  14.086  0.00  0.00    +0.000 A 
ATOM     33  C   UNK A   1       7.889   5.308  12.837  0.00  0.00    +0.000 A 
ATOM     34  C   UNK A   1       7.426   4.679  11.687  0.00  0.00    +0.000 A 
ATOM     35  C   UNK A   1       6.422   3.712  11.806  0.00  0.00    +0.000 A 
ATOM     36  C   UNK A   1       5.879   3.370  13.063  0.00  0.00    +0.000 A 
ENDBRANCH  30  31
ENDBRANCH  29  30
ENDBRANCH  24  29
ENDBRANCH  22  24
ENDBRANCH   1  22
BRANCH   1  37
ATOM     37  C   UNK A   1       1.736   5.076  17.944  0.00  0.00    +0.000 C 
BRANCH  37  38
ATOM     38  C   UNK A   1       1.986   3.797  18.769  0.00  0.00    +0.000 C 
BRANCH  38  39
ATOM     39  C   UNK A   1       1.162   3.606  20.047  0.00  0.00    +0.000 C 
BRANCH  39  40
ATOM     40  C   UNK A   1       1.991   4.056  21.261  0.00  0.00    +0.000 C 
BRANCH  40  41
ATOM     41  N   UNK A   1       2.490   2.922  22.029  0.00  0.00    +0.000 NA
ATOM     42  H   UNK A   1       3.166   2.411  21.459  0.00  0.00    +0.000 HD
ATOM     43  H   UNK A   1       1.729   2.264  22.201  0.00  0.00    +0.000 HD
ENDBRANCH  40  41
ENDBRANCH  39  40
ENDBRANCH  38  39
ENDBRANCH  37  38
ENDBRANCH   1  37
TORSDOF 18
ENDMDL
MODEL 4
REMARK VINA RESULT:      -7.6      4.175      5.913
REMARK  Name = 
REMARK  18 active torsions:
REMARK  status: ('A' for Active; 'I' for Inactive)
REMARK    1  A    between atoms: N_1  and  C_2
REMARK    2  A    between atoms: C_2  and  C_3
REMARK    3  A    between atoms: C_3  and  C_4
REMARK    4  A    between atoms: C_4  and  C_5
REMARK    5  A    between atoms: C_5  and  C_6
REMARK    6  A    between atoms: C_6  and  N_7
REMARK    7  A    between atoms: C_6  and  C_20
REMARK    8  A    between atoms: N_7  and  C_8
REMARK    9  A    between atoms: C_8  and  C_9
REMARK   10  A    between atoms: C_8  and  C_17
REMARK   11  A    between atoms: C_9  and  C_10
REMARK   12  A    between atoms: C_10  and  C_11
REMARK   13  A    between atoms: C_17  and  O_19
REMARK   14  A    between atoms: N_22  and  CA_23
REMARK   15  A    between atoms: CA_23  and  CB_24
REMARK   16  A    between atoms: CA_23  and  C_34
REMARK   17  A    between atoms: CB_24  and  CG_25
REMARK   18  A    between atoms: C_34  and  OXT_36
REMARK                            x       y       z     vdW  Elec       q    Type
REMARK                         _______ _______ _______ _____ _____    ______ ____
ROOT
ATOM      1  C   UNK A   1       2.787   5.648  19.425  0.00  0.00    +0.000 C 
ENDROOT
BRANCH   1   2
ATOM      2  C   UNK A   1       2.563   7.133  19.098  0.00  0.00    +0.000 C 
ATOM      3  O   UNK A   1       3.274   7.749  18.294  0.00  0.00    +0.000 OA
ATOM      4  N   TRP A   2       1.556   7.790  19.773  0.00  0.00    +0.000 N 
ATOM      5  H   TRP A   2       0.932   7.265  20.376  0.00  0.00    +0.000 HD
BRANCH   4   6
ATOM      6  CA  TRP A   2       1.396   9.253  19.667  0.00  0.00    +0.000 C 
BRANCH   6   7
ATOM      7  C   TRP A   2       0.951   9.651  18.200  0.00  0.00    +0.000 C 
ATOM      8  O   TRP A   2      -0.216   9.633  17.808  0.00  0.00    +0.000 OA
BRANCH   7   9
ATOM      9  OXT TRP A   2       1.924  10.081  17.377  0.00  0.00    +0.000 OA
ATOM     10  HXT TRP A   2       1.631  10.165  16.439  0.00  0.00    +0.000 HD
ENDBRANCH   7   9
ENDBRANCH   6   7
BRANCH   6  11
ATOM     11  CB  TRP A   2       0.318   9.866  20.571  0.00  0.00    +0.000 C 
BRANCH  11  12
ATOM     12  CG  TRP A   2       0.200  11.236  21.198  0.00  0.00    +0.000 A 
ATOM     13  CD1 TRP A   2       1.185  12.158  20.847  0.00  0.00    +0.000 A 
ATOM     14  NE1 TRP A   2       0.645  13.399  20.922  0.00  0.00    +0.000 N 
ATOM     15  CE2 TRP A   2      -0.497  13.348  21.673  0.00  0.00    +0.000 A 
ATOM     16  CZ2 TRP A   2      -1.303  14.419  22.081  0.00  0.00    +0.000 A 
ATOM     17  CH2 TRP A   2      -2.260  14.158  23.050  0.00  0.00    +0.000 A 
ATOM     18  CZ3 TRP A   2      -2.424  12.864  23.536  0.00  0.00    +0.000 A 
ATOM     19  CE3 TRP A   2      -1.716  11.769  22.986  0.00  0.00    +0.000 A 
ATOM     20  CD2 TRP A   2      -0.713  12.001  22.015  0.00  0.00    +0.000 A 
ATOM     21  HE1 TRP A   2       1.061  14.245  20.557  0.00  0.00    +0.000 HD
ENDBRANCH  11  12
ENDBRANCH   6  11
ENDBRANCH   4   6
ENDBRANCH   1   2
BRANCH   1  22
ATOM     22  N   UNK A   1       4.150   5.160  19.075  0.00  0.00    +0.000 NA
ATOM     23  H   UNK A   1       4.672   5.978  18.735  0.00  0.00    +0.000 HD
BRANCH  22  24
ATOM     24  C   UNK A   1       4.412   4.029  18.080  0.00  0.00    +0.000 C 
BRANCH  24  25
ATOM     25  C   UNK A   1       4.591   2.792  19.014  0.00  0.00    +0.000 C 
ATOM     26  O   UNK A   1       4.967   2.799  20.177  0.00  0.00    +0.000 OA
BRANCH  25  27
ATOM     27  O   UNK A   1       4.297   1.624  18.366  0.00  0.00    +0.000 OA
ATOM     28  H   UNK A   1       5.081   1.405  17.810  0.00  0.00    +0.000 HD
ENDBRANCH  25  27
ENDBRANCH  24  25
BRANCH  24  29
ATOM     29  C   UNK A   1       5.613   4.232  17.095  0.00  0.00    +0.000 C 
BRANCH  29  30
ATOM     30  C   UNK A   1       5.544   4.989  15.711  0.00  0.00    +0.000 C 
BRANCH  30  31
ATOM     31  C   UNK A   1       6.250   4.620  14.403  0.00  0.00    +0.000 A 
ATOM     32  C   UNK A   1       5.640   3.675  13.532  0.00  0.00    +0.000 A 
ATOM     33  C   UNK A   1       6.114   3.425  12.234  0.00  0.00    +0.000 A 
ATOM     34  C   UNK A   1       7.215   4.125  11.756  0.00  0.00    +0.000 A 
ATOM     35  C   UNK A   1       7.829   5.067  12.589  0.00  0.00    +0.000 A 
ATOM     36  C   UNK A   1       7.351   5.311  13.894  0.00  0.00    +0.000 A 
ENDBRANCH  30  31
ENDBRANCH  29  30
ENDBRANCH  24  29
ENDBRANCH  22  24
ENDBRANCH   1  22
BRANCH   1  37
ATOM     37  C   UNK A   1       2.328   5.224  20.835  0.00  0.00    +0.000 C 
BRANCH  37  38
ATOM     38  C   UNK A   1       1.501   3.928  20.970  0.00  0.00    +0.000 C 
BRANCH  38  39
ATOM     39  C   UNK A   1       0.647   3.505  19.770  0.00  0.00    +0.000 C 
BRANCH  39  40
ATOM     40  C   UNK A   1       1.032   2.076  19.350  0.00  0.00    +0.000 C 
BRANCH  40  41
ATOM     41  N   UNK A   1       1.411   2.007  17.944  0.00  0.00    +0.000 NA
ATOM     42  H   UNK A   1       2.417   2.169  17.867  0.00  0.00    +0.000 HD
ATOM     43  H   UNK A   1       0.974   2.774  17.433  0.00  0.00    +0.000 HD
ENDBRANCH  40  41
ENDBRANCH  39  40
ENDBRANCH  38  39
ENDBRANCH  37  38
ENDBRANCH   1  37
TORSDOF 18
ENDMDL
MODEL 5
REMARK VINA RESULT:      -7.6      1.410      2.116
REMARK  Name = 
REMARK  18 active torsions:
REMARK  status: ('A' for Active; 'I' for Inactive)
REMARK    1  A    between atoms: N_1  and  C_2
REMARK    2  A    between atoms: C_2  and  C_3
REMARK    3  A    between atoms: C_3  and  C_4
REMARK    4  A    between atoms: C_4  and  C_5
REMARK    5  A    between atoms: C_5  and  C_6
REMARK    6  A    between atoms: C_6  and  N_7
REMARK    7  A    between atoms: C_6  and  C_20
REMARK    8  A    between atoms: N_7  and  C_8
REMARK    9  A    between atoms: C_8  and  C_9
REMARK   10  A    between atoms: C_8  and  C_17
REMARK   11  A    between atoms: C_9  and  C_10
REMARK   12  A    between atoms: C_10  and  C_11
REMARK   13  A    between atoms: C_17  and  O_19
REMARK   14  A    between atoms: N_22  and  CA_23
REMARK   15  A    between atoms: CA_23  and  CB_24
REMARK   16  A    between atoms: CA_23  and  C_34
REMARK   17  A    between atoms: CB_24  and  CG_25
REMARK   18  A    between atoms: C_34  and  OXT_36
REMARK                            x       y       z     vdW  Elec       q    Type
REMARK                         _______ _______ _______ _____ _____    ______ ____
ROOT
ATOM      1  C   UNK A   1       5.165   6.247  17.124  0.00  0.00    +0.000 C 
ENDROOT
BRANCH   1   2
ATOM      2  C   UNK A   1       3.973   5.531  17.777  0.00  0.00    +0.000 C 
ATOM      3  O   UNK A   1       3.290   4.696  17.171  0.00  0.00    +0.000 OA
ATOM      4  N   TRP A   2       3.646   5.884  19.069  0.00  0.00    +0.000 N 
ATOM      5  H   TRP A   2       4.250   6.515  19.584  0.00  0.00    +0.000 HD
BRANCH   4   6
ATOM      6  CA  TRP A   2       2.407   5.393  19.703  0.00  0.00    +0.000 C 
BRANCH   6   7
ATOM      7  C   TRP A   2       2.703   4.084  20.544  0.00  0.00    +0.000 C 
ATOM      8  O   TRP A   2       3.415   3.161  20.149  0.00  0.00    +0.000 OA
BRANCH   7   9
ATOM      9  OXT TRP A   2       2.173   4.036  21.780  0.00  0.00    +0.000 OA
ATOM     10  HXT TRP A   2       2.498   3.271  22.312  0.00  0.00    +0.000 HD
ENDBRANCH   7   9
ENDBRANCH   6   7
BRANCH   6  11
ATOM     11  CB  TRP A   2       1.755   6.352  20.708  0.00  0.00    +0.000 C 
BRANCH  11  12
ATOM     12  CG  TRP A   2       1.419   7.823  20.614  0.00  0.00    +0.000 A 
ATOM     13  CD1 TRP A   2       1.780   8.459  19.427  0.00  0.00    +0.000 A 
ATOM     14  NE1 TRP A   2       0.912   9.479  19.218  0.00  0.00    +0.000 N 
ATOM     15  CE2 TRP A   2       0.269   9.772  20.388  0.00  0.00    +0.000 A 
ATOM     16  CZ2 TRP A   2      -0.629  10.818  20.635  0.00  0.00    +0.000 A 
ATOM     17  CH2 TRP A   2      -0.953  11.076  21.958  0.00  0.00    +0.000 A 
ATOM     18  CZ3 TRP A   2      -0.435  10.274  22.971  0.00  0.00    +0.000 A 
ATOM     19  CE3 TRP A   2       0.332   9.119  22.684  0.00  0.00    +0.000 A 
ATOM     20  CD2 TRP A   2       0.705   8.841  21.348  0.00  0.00    +0.000 A 
ATOM     21  HE1 TRP A   2       0.814  10.000  18.356  0.00  0.00    +0.000 HD
ENDBRANCH  11  12
ENDBRANCH   6  11
ENDBRANCH   4   6
ENDBRANCH   1   2
BRANCH   1  22
ATOM     22  N   UNK A   1       6.463   5.544  17.318  0.00  0.00    +0.000 NA
ATOM     23  H   UNK A   1       6.244   4.657  17.790  0.00  0.00    +0.000 HD
BRANCH  22  24
ATOM     24  C   UNK A   1       7.651   6.153  18.062  0.00  0.00    +0.000 C 
BRANCH  24  25
ATOM     25  C   UNK A   1       7.502   5.546  19.491  0.00  0.00    +0.000 C 
ATOM     26  O   UNK A   1       6.460   5.262  20.062  0.00  0.00    +0.000 OA
BRANCH  25  27
ATOM     27  O   UNK A   1       8.716   5.376  20.096  0.00  0.00    +0.000 OA
ATOM     28  H   UNK A   1       8.545   4.905  20.945  0.00  0.00    +0.000 HD
ENDBRANCH  25  27
ENDBRANCH  24  25
BRANCH  24  29
ATOM     29  C   UNK A   1       7.743   7.718  18.066  0.00  0.00    +0.000 C 
BRANCH  29  30
ATOM     30  C   UNK A   1       8.857   8.567  18.795  0.00  0.00    +0.000 C 
BRANCH  30  31
ATOM     31  C   UNK A   1       8.947  10.091  18.914  0.00  0.00    +0.000 A 
ATOM     32  C   UNK A   1       9.338  10.664  20.156  0.00  0.00    +0.000 A 
ATOM     33  C   UNK A   1       9.634  12.030  20.300  0.00  0.00    +0.000 A 
ATOM     34  C   UNK A   1       9.560  12.871  19.196  0.00  0.00    +0.000 A 
ATOM     35  C   UNK A   1       9.186  12.331  17.961  0.00  0.00    +0.000 A 
ATOM     36  C   UNK A   1       8.886  10.959  17.822  0.00  0.00    +0.000 A 
ENDBRANCH  30  31
ENDBRANCH  29  30
ENDBRANCH  24  29
ENDBRANCH  22  24
ENDBRANCH   1  22
BRANCH   1  37
ATOM     37  C   UNK A   1       4.925   6.699  15.668  0.00  0.00    +0.000 C 
BRANCH  37  38
ATOM     38  C   UNK A   1       5.680   5.959  14.544  0.00  0.00    +0.000 C 
BRANCH  38  39
ATOM     39  C   UNK A   1       5.168   4.571  14.142  0.00  0.00    +0.000 C 
BRANCH  39  40
ATOM     40  C   UNK A   1       6.192   3.507  14.570  0.00  0.00    +0.000 C 
BRANCH  40  41
ATOM     41  N   UNK A   1       5.873   2.940  15.875  0.00  0.00    +0.000 NA
ATOM     42  H   UNK A   1       4.970   3.306  16.180  0.00  0.00    +0.000 HD
ATOM     43  H   UNK A   1       6.547   3.269  16.566  0.00  0.00    +0.000 HD
ENDBRANCH  40  41
ENDBRANCH  39  40
ENDBRANCH  38  39
ENDBRANCH  37  38
ENDBRANCH   1  37
TORSDOF 18
ENDMDL
MODEL 6
REMARK VINA RESULT:      -7.6      3.949      8.676
REMARK  Name = 
REMARK  18 active torsions:
REMARK  status: ('A' for Active; 'I' for Inactive)
REMARK    1  A    between atoms: N_1  and  C_2
REMARK    2  A    between atoms: C_2  and  C_3
REMARK    3  A    between atoms: C_3  and  C_4
REMARK    4  A    between atoms: C_4  and  C_5
REMARK    5  A    between atoms: C_5  and  C_6
REMARK    6  A    between atoms: C_6  and  N_7
REMARK    7  A    between atoms: C_6  and  C_20
REMARK    8  A    between atoms: N_7  and  C_8
REMARK    9  A    between atoms: C_8  and  C_9
REMARK   10  A    between atoms: C_8  and  C_17
REMARK   11  A    between atoms: C_9  and  C_10
REMARK   12  A    between atoms: C_10  and  C_11
REMARK   13  A    between atoms: C_17  and  O_19
REMARK   14  A    between atoms: N_22  and  CA_23
REMARK   15  A    between atoms: CA_23  and  CB_24
REMARK   16  A    between atoms: CA_23  and  C_34
REMARK   17  A    between atoms: CB_24  and  CG_25
REMARK   18  A    between atoms: C_34  and  OXT_36
REMARK                            x       y       z     vdW  Elec       q    Type
REMARK                         _______ _______ _______ _____ _____    ______ ____
ROOT
ATOM      1  C   UNK A   1       2.707   5.996  20.094  0.00  0.00    +0.000 C 
ENDROOT
BRANCH   1   2
ATOM      2  C   UNK A   1       3.159   5.212  18.852  0.00  0.00    +0.000 C 
ATOM      3  O   UNK A   1       2.664   5.400  17.734  0.00  0.00    +0.000 OA
ATOM      4  N   TRP A   2       4.118   4.237  19.027  0.00  0.00    +0.000 N 
ATOM      5  H   TRP A   2       4.570   4.136  19.929  0.00  0.00    +0.000 HD
BRANCH   4   6
ATOM      6  CA  TRP A   2       4.469   3.309  17.936  0.00  0.00    +0.000 C 
BRANCH   6   7
ATOM      7  C   TRP A   2       3.591   1.994  18.030  0.00  0.00    +0.000 C 
ATOM      8  O   TRP A   2       2.436   1.908  17.611  0.00  0.00    +0.000 OA
BRANCH   7   9
ATOM      9  OXT TRP A   2       4.192   0.910  18.555  0.00  0.00    +0.000 OA
ATOM     10  HXT TRP A   2       4.927   0.564  17.995  0.00  0.00    +0.000 HD
ENDBRANCH   7   9
ENDBRANCH   6   7
BRANCH   6  11
ATOM     11  CB  TRP A   2       4.218   3.833  16.516  0.00  0.00    +0.000 C 
BRANCH  11  12
ATOM     12  CG  TRP A   2       5.136   4.503  15.520  0.00  0.00    +0.000 A 
ATOM     13  CD1 TRP A   2       5.798   5.645  15.968  0.00  0.00    +0.000 A 
ATOM     14  NE1 TRP A   2       6.972   5.741  15.297  0.00  0.00    +0.000 N 
ATOM     15  CE2 TRP A   2       6.917   4.956  14.179  0.00  0.00    +0.000 A 
ATOM     16  CZ2 TRP A   2       7.873   4.845  13.161  0.00  0.00    +0.000 A 
ATOM     17  CH2 TRP A   2       7.490   4.189  12.001  0.00  0.00    +0.000 A 
ATOM     18  CZ3 TRP A   2       6.221   3.625  11.906  0.00  0.00    +0.000 A 
ATOM     19  CE3 TRP A   2       5.335   3.602  13.010  0.00  0.00    +0.000 A 
ATOM     20  CD2 TRP A   2       5.681   4.285  14.200  0.00  0.00    +0.000 A 
ATOM     21  HE1 TRP A   2       7.736   6.360  15.534  0.00  0.00    +0.000 HD
ENDBRANCH  11  12
ENDBRANCH   6  11
ENDBRANCH   4   6
ENDBRANCH   1   2
BRANCH   1  22
ATOM     22  N   UNK A   1       2.598   7.464  19.866  0.00  0.00    +0.000 NA
ATOM     23  H   UNK A   1       2.964   7.916  20.713  0.00  0.00    +0.000 HD
BRANCH  22  24
ATOM     24  C   UNK A   1       1.285   8.170  19.526  0.00  0.00    +0.000 C 
BRANCH  24  25
ATOM     25  C   UNK A   1       1.636   8.917  18.202  0.00  0.00    +0.000 C 
ATOM     26  O   UNK A   1       2.742   9.032  17.696  0.00  0.00    +0.000 OA
BRANCH  25  27
ATOM     27  O   UNK A   1       0.530   9.490  17.638  0.00  0.00    +0.000 OA
ATOM     28  H   UNK A   1       0.129  10.068  18.328  0.00  0.00    +0.000 HD
ENDBRANCH  25  27
ENDBRANCH  24  25
BRANCH  24  29
ATOM     29  C   UNK A   1       0.698   9.118  20.628  0.00  0.00    +0.000 C 
BRANCH  29  30
ATOM     30  C   UNK A   1       0.859  10.688  20.664  0.00  0.00    +0.000 C 
BRANCH  30  31
ATOM     31  C   UNK A   1       0.002  11.701  21.430  0.00  0.00    +0.000 A 
ATOM     32  C   UNK A   1      -0.996  11.224  22.325  0.00  0.00    +0.000 A 
ATOM     33  C   UNK A   1      -1.689  12.070  23.206  0.00  0.00    +0.000 A 
ATOM     34  C   UNK A   1      -1.397  13.429  23.230  0.00  0.00    +0.000 A 
ATOM     35  C   UNK A   1      -0.413  13.922  22.366  0.00  0.00    +0.000 A 
ATOM     36  C   UNK A   1       0.278  13.069  21.479  0.00  0.00    +0.000 A 
ENDBRANCH  30  31
ENDBRANCH  29  30
ENDBRANCH  24  29
ENDBRANCH  22  24
ENDBRANCH   1  22
BRANCH   1  37
ATOM     37  C   UNK A   1       1.487   5.398  20.824  0.00  0.00    +0.000 C 
BRANCH  37  38
ATOM     38  C   UNK A   1       0.822   4.143  20.220  0.00  0.00    +0.000 C 
BRANCH  38  39
ATOM     39  C   UNK A   1       1.078   2.803  20.918  0.00  0.00    +0.000 C 
BRANCH  39  40
ATOM     40  C   UNK A   1       2.252   2.954  21.899  0.00  0.00    +0.000 C 
BRANCH  40  41
ATOM     41  N   UNK A   1       3.442   2.254  21.434  0.00  0.00    +0.000 NA
ATOM     42  H   UNK A   1       4.098   2.938  21.054  0.00  0.00    +0.000 HD
ATOM     43  H   UNK A   1       3.199   1.647  20.651  0.00  0.00    +0.000 HD
ENDBRANCH  40  41
ENDBRANCH  39  40
ENDBRANCH  38  39
ENDBRANCH  37  38
ENDBRANCH   1  37
TORSDOF 18
ENDMDL
MODEL 7
REMARK VINA RESULT:      -7.6      3.560      6.072
REMARK  Name = 
REMARK  18 active torsions:
REMARK  status: ('A' for Active; 'I' for Inactive)
REMARK    1  A    between atoms: N_1  and  C_2
REMARK    2  A    between atoms: C_2  and  C_3
REMARK    3  A    between atoms: C_3  and  C_4
REMARK    4  A    between atoms: C_4  and  C_5
REMARK    5  A    between atoms: C_5  and  C_6
REMARK    6  A    between atoms: C_6  and  N_7
REMARK    7  A    between atoms: C_6  and  C_20
REMARK    8  A    between atoms: N_7  and  C_8
REMARK    9  A    between atoms: C_8  and  C_9
REMARK   10  A    between atoms: C_8  and  C_17
REMARK   11  A    between atoms: C_9  and  C_10
REMARK   12  A    between atoms: C_10  and  C_11
REMARK   13  A    between atoms: C_17  and  O_19
REMARK   14  A    between atoms: N_22  and  CA_23
REMARK   15  A    between atoms: CA_23  and  CB_24
REMARK   16  A    between atoms: CA_23  and  C_34
REMARK   17  A    between atoms: CB_24  and  CG_25
REMARK   18  A    between atoms: C_34  and  OXT_36
REMARK                            x       y       z     vdW  Elec       q    Type
REMARK                         _______ _______ _______ _____ _____    ______ ____
ROOT
ATOM      1  C   UNK A   1       2.828   6.594  18.352  0.00  0.00    +0.000 C 
ENDROOT
BRANCH   1   2
ATOM      2  C   UNK A   1       2.115   7.786  19.008  0.00  0.00    +0.000 C 
ATOM      3  O   UNK A   1       1.935   7.859  20.230  0.00  0.00    +0.000 OA
ATOM      4  N   TRP A   2       1.626   8.773  18.179  0.00  0.00    +0.000 N 
ATOM      5  H   TRP A   2       1.837   8.744  17.187  0.00  0.00    +0.000 HD
BRANCH   4   6
ATOM      6  CA  TRP A   2       0.764   9.850  18.701  0.00  0.00    +0.000 C 
BRANCH   6   7
ATOM      7  C   TRP A   2       1.549  11.226  18.710  0.00  0.00    +0.000 C 
ATOM      8  O   TRP A   2       1.510  12.032  19.640  0.00  0.00    +0.000 OA
BRANCH   7   9
ATOM      9  OXT TRP A   2       2.337  11.471  17.648  0.00  0.00    +0.000 OA
ATOM     10  HXT TRP A   2       2.491  12.432  17.492  0.00  0.00    +0.000 HD
ENDBRANCH   7   9
ENDBRANCH   6   7
BRANCH   6  11
ATOM     11  CB  TRP A   2      -0.501  10.140  17.882  0.00  0.00    +0.000 C 
BRANCH  11  12
ATOM     12  CG  TRP A   2      -1.639  11.109  18.108  0.00  0.00    +0.000 A 
ATOM     13  CD1 TRP A   2      -2.394  11.441  16.984  0.00  0.00    +0.000 A 
ATOM     14  NE1 TRP A   2      -3.651  11.738  17.396  0.00  0.00    +0.000 N 
ATOM     15  CE2 TRP A   2      -3.637  11.995  18.739  0.00  0.00    +0.000 A 
ATOM     16  CZ2 TRP A   2      -4.698  12.437  19.538  0.00  0.00    +0.000 A 
ATOM     17  CH2 TRP A   2      -4.388  12.879  20.816  0.00  0.00    +0.000 A 
ATOM     18  CZ3 TRP A   2      -3.075  12.819  21.273  0.00  0.00    +0.000 A 
ATOM     19  CE3 TRP A   2      -2.050  12.211  20.510  0.00  0.00    +0.000 A 
ATOM     20  CD2 TRP A   2      -2.324  11.774  19.192  0.00  0.00    +0.000 A 
ATOM     21  HE1 TRP A   2      -4.458  11.839  16.795  0.00  0.00    +0.000 HD
ENDBRANCH  11  12
ENDBRANCH   6  11
ENDBRANCH   4   6
ENDBRANCH   1   2
BRANCH   1  22
ATOM     22  N   UNK A   1       4.274   6.502  18.694  0.00  0.00    +0.000 NA
ATOM     23  H   UNK A   1       4.642   7.461  18.654  0.00  0.00    +0.000 HD
BRANCH  22  24
ATOM     24  C   UNK A   1       5.266   5.621  17.935  0.00  0.00    +0.000 C 
BRANCH  24  25
ATOM     25  C   UNK A   1       6.549   5.718  18.819  0.00  0.00    +0.000 C 
ATOM     26  O   UNK A   1       7.504   6.461  18.645  0.00  0.00    +0.000 OA
BRANCH  25  27
ATOM     27  O   UNK A   1       6.519   4.825  19.853  0.00  0.00    +0.000 OA
ATOM     28  H   UNK A   1       6.322   3.943  19.458  0.00  0.00    +0.000 HD
ENDBRANCH  25  27
ENDBRANCH  24  25
BRANCH  24  29
ATOM     29  C   UNK A   1       5.525   5.993  16.435  0.00  0.00    +0.000 C 
BRANCH  29  30
ATOM     30  C   UNK A   1       6.660   5.382  15.523  0.00  0.00    +0.000 C 
BRANCH  30  31
ATOM     31  C   UNK A   1       6.519   4.805  14.111  0.00  0.00    +0.000 A 
ATOM     32  C   UNK A   1       7.520   5.097  13.143  0.00  0.00    +0.000 A 
ATOM     33  C   UNK A   1       7.574   4.459  11.894  0.00  0.00    +0.000 A 
ATOM     34  C   UNK A   1       6.630   3.491  11.572  0.00  0.00    +0.000 A 
ATOM     35  C   UNK A   1       5.639   3.179  12.510  0.00  0.00    +0.000 A 
ATOM     36  C   UNK A   1       5.586   3.826  13.763  0.00  0.00    +0.000 A 
ENDBRANCH  30  31
ENDBRANCH  29  30
ENDBRANCH  24  29
ENDBRANCH  22  24
ENDBRANCH   1  22
BRANCH   1  37
ATOM     37  C   UNK A   1       2.082   5.249  18.480  0.00  0.00    +0.000 C 
BRANCH  37  38
ATOM     38  C   UNK A   1       2.013   4.586  19.871  0.00  0.00    +0.000 C 
BRANCH  38  39
ATOM     39  C   UNK A   1       0.968   3.484  20.078  0.00  0.00    +0.000 C 
BRANCH  39  40
ATOM     40  C   UNK A   1       0.848   2.647  18.793  0.00  0.00    +0.000 C 
BRANCH  40  41
ATOM     41  N   UNK A   1       1.844   1.584  18.742  0.00  0.00    +0.000 NA
ATOM     42  H   UNK A   1       2.476   1.764  17.961  0.00  0.00    +0.000 HD
ATOM     43  H   UNK A   1       1.388   0.698  18.525  0.00  0.00    +0.000 HD
ENDBRANCH  40  41
ENDBRANCH  39  40
ENDBRANCH  38  39
ENDBRANCH  37  38
ENDBRANCH   1  37
TORSDOF 18
ENDMDL
MODEL 8
REMARK VINA RESULT:      -7.6      3.063      9.049
REMARK  Name = 
REMARK  18 active torsions:
REMARK  status: ('A' for Active; 'I' for Inactive)
REMARK    1  A    between atoms: N_1  and  C_2
REMARK    2  A    between atoms: C_2  and  C_3
REMARK    3  A    between atoms: C_3  and  C_4
REMARK    4  A    between atoms: C_4  and  C_5
REMARK    5  A    between atoms: C_5  and  C_6
REMARK    6  A    between atoms: C_6  and  N_7
REMARK    7  A    between atoms: C_6  and  C_20
REMARK    8  A    between atoms: N_7  and  C_8
REMARK    9  A    between atoms: C_8  and  C_9
REMARK   10  A    between atoms: C_8  and  C_17
REMARK   11  A    between atoms: C_9  and  C_10
REMARK   12  A    between atoms: C_10  and  C_11
REMARK   13  A    between atoms: C_17  and  O_19
REMARK   14  A    between atoms: N_22  and  CA_23
REMARK   15  A    between atoms: CA_23  and  CB_24
REMARK   16  A    between atoms: CA_23  and  C_34
REMARK   17  A    between atoms: CB_24  and  CG_25
REMARK   18  A    between atoms: C_34  and  OXT_36
REMARK                            x       y       z     vdW  Elec       q    Type
REMARK                         _______ _______ _______ _____ _____    ______ ____
ROOT
ATOM      1  C   UNK A   1       2.817   5.543  19.130  0.00  0.00    +0.000 C 
ENDROOT
BRANCH   1   2
ATOM      2  C   UNK A   1       4.048   6.112  18.407  0.00  0.00    +0.000 C 
ATOM      3  O   UNK A   1       3.955   6.947  17.499  0.00  0.00    +0.000 OA
ATOM      4  N   TRP A   2       5.284   5.624  18.772  0.00  0.00    +0.000 N 
ATOM      5  H   TRP A   2       5.361   4.994  19.563  0.00  0.00    +0.000 HD
BRANCH   4   6
ATOM      6  CA  TRP A   2       6.497   5.968  18.004  0.00  0.00    +0.000 C 
BRANCH   6   7
ATOM      7  C   TRP A   2       7.754   6.036  18.965  0.00  0.00    +0.000 C 
ATOM      8  O   TRP A   2       8.118   5.105  19.685  0.00  0.00    +0.000 OA
BRANCH   7   9
ATOM      9  OXT TRP A   2       8.474   7.171  18.927  0.00  0.00    +0.000 OA
ATOM     10  HXT TRP A   2       7.924   7.975  18.773  0.00  0.00    +0.000 HD
ENDBRANCH   7   9
ENDBRANCH   6   7
BRANCH   6  11
ATOM     11  CB  TRP A   2       6.900   4.959  16.920  0.00  0.00    +0.000 C 
BRANCH  11  12
ATOM     12  CG  TRP A   2       6.917   5.065  15.412  0.00  0.00    +0.000 A 
ATOM     13  CD1 TRP A   2       7.867   5.927  14.868  0.00  0.00    +0.000 A 
ATOM     14  NE1 TRP A   2       8.199   5.464  13.638  0.00  0.00    +0.000 N 
ATOM     15  CE2 TRP A   2       7.238   4.591  13.211  0.00  0.00    +0.000 A 
ATOM     16  CZ2 TRP A   2       7.142   3.966  11.961  0.00  0.00    +0.000 A 
ATOM     17  CH2 TRP A   2       5.947   3.328  11.662  0.00  0.00    +0.000 A 
ATOM     18  CZ3 TRP A   2       4.928   3.279  12.609  0.00  0.00    +0.000 A 
ATOM     19  CE3 TRP A   2       5.112   3.768  13.924  0.00  0.00    +0.000 A 
ATOM     20  CD2 TRP A   2       6.307   4.450  14.256  0.00  0.00    +0.000 A 
ATOM     21  HE1 TRP A   2       8.985   5.777  13.085  0.00  0.00    +0.000 HD
ENDBRANCH  11  12
ENDBRANCH   6  11
ENDBRANCH   4   6
ENDBRANCH   1   2
BRANCH   1  22
ATOM     22  N   UNK A   1       2.259   6.455  20.166  0.00  0.00    +0.000 NA
ATOM     23  H   UNK A   1       1.354   6.054  20.446  0.00  0.00    +0.000 HD
BRANCH  22  24
ATOM     24  C   UNK A   1       2.025   7.948  19.940  0.00  0.00    +0.000 C 
BRANCH  24  25
ATOM     25  C   UNK A   1       1.187   8.353  21.192  0.00  0.00    +0.000 C 
ATOM     26  O   UNK A   1      -0.031   8.377  21.283  0.00  0.00    +0.000 OA
BRANCH  25  27
ATOM     27  O   UNK A   1       1.988   8.727  22.235  0.00  0.00    +0.000 OA
ATOM     28  H   UNK A   1       1.645   8.263  23.035  0.00  0.00    +0.000 HD
ENDBRANCH  25  27
ENDBRANCH  24  25
BRANCH  24  29
ATOM     29  C   UNK A   1       1.340   8.350  18.589  0.00  0.00    +0.000 C 
BRANCH  29  30
ATOM     30  C   UNK A   1       0.773   9.782  18.241  0.00  0.00    +0.000 C 
BRANCH  30  31
ATOM     31  C   UNK A   1      -0.686  10.248  18.277  0.00  0.00    +0.000 A 
ATOM     32  C   UNK A   1      -1.062  11.269  19.193  0.00  0.00    +0.000 A 
ATOM     33  C   UNK A   1      -2.322  11.889  19.161  0.00  0.00    +0.000 A 
ATOM     34  C   UNK A   1      -3.250  11.514  18.197  0.00  0.00    +0.000 A 
ATOM     35  C   UNK A   1      -2.902  10.517  17.278  0.00  0.00    +0.000 A 
ATOM     36  C   UNK A   1      -1.637   9.895  17.317  0.00  0.00    +0.000 A 
ENDBRANCH  30  31
ENDBRANCH  29  30
ENDBRANCH  24  29
ENDBRANCH  22  24
ENDBRANCH   1  22
BRANCH   1  37
ATOM     37  C   UNK A   1       1.743   4.946  18.197  0.00  0.00    +0.000 C 
BRANCH  37  38
ATOM     38  C   UNK A   1       1.795   3.433  17.903  0.00  0.00    +0.000 C 
BRANCH  38  39
ATOM     39  C   UNK A   1       0.944   2.511  18.783  0.00  0.00    +0.000 C 
BRANCH  39  40
ATOM     40  C   UNK A   1       1.653   2.295  20.130  0.00  0.00    +0.000 C 
BRANCH  40  41
ATOM     41  N   UNK A   1       1.002   3.025  21.210  0.00  0.00    +0.000 NA
ATOM     42  H   UNK A   1       1.311   2.636  22.102  0.00  0.00    +0.000 HD
ATOM     43  H   UNK A   1      -0.004   2.861  21.177  0.00  0.00    +0.000 HD
ENDBRANCH  40  41
ENDBRANCH  39  40
ENDBRANCH  38  39
ENDBRANCH  37  38
ENDBRANCH   1  37
TORSDOF 18
ENDMDL
MODEL 9
REMARK VINA RESULT:      -7.6      3.919      5.863
REMARK  Name = 
REMARK  18 active torsions:
REMARK  status: ('A' for Active; 'I' for Inactive)
REMARK    1  A    between atoms: N_1  and  C_2
REMARK    2  A    between atoms: C_2  and  C_3
REMARK    3  A    between atoms: C_3  and  C_4
REMARK    4  A    between atoms: C_4  and  C_5
REMARK    5  A    between atoms: C_5  and  C_6
REMARK    6  A    between atoms: C_6  and  N_7
REMARK    7  A    between atoms: C_6  and  C_20
REMARK    8  A    between atoms: N_7  and  C_8
REMARK    9  A    between atoms: C_8  and  C_9
REMARK   10  A    between atoms: C_8  and  C_17
REMARK   11  A    between atoms: C_9  and  C_10
REMARK   12  A    between atoms: C_10  and  C_11
REMARK   13  A    between atoms: C_17  and  O_19
REMARK   14  A    between atoms: N_22  and  CA_23
REMARK   15  A    between atoms: CA_23  and  CB_24
REMARK   16  A    between atoms: CA_23  and  C_34
REMARK   17  A    between atoms: CB_24  and  CG_25
REMARK   18  A    between atoms: C_34  and  OXT_36
REMARK                            x       y       z     vdW  Elec       q    Type
REMARK                         _______ _______ _______ _____ _____    ______ ____
ROOT
ATOM      1  C   UNK A   1       2.957   6.230  19.692  0.00  0.00    +0.000 C 
ENDROOT
BRANCH   1   2
ATOM      2  C   UNK A   1       1.804   6.674  20.605  0.00  0.00    +0.000 C 
ATOM      3  O   UNK A   1       0.909   5.899  20.965  0.00  0.00    +0.000 OA
ATOM      4  N   TRP A   2       1.763   7.998  20.985  0.00  0.00    +0.000 N 
ATOM      5  H   TRP A   2       2.535   8.612  20.746  0.00  0.00    +0.000 HD
BRANCH   4   6
ATOM      6  CA  TRP A   2       0.595   8.553  21.696  0.00  0.00    +0.000 C 
BRANCH   6   7
ATOM      7  C   TRP A   2       1.054   9.260  23.037  0.00  0.00    +0.000 C 
ATOM      8  O   TRP A   2       0.281   9.598  23.934  0.00  0.00    +0.000 OA
BRANCH   7   9
ATOM      9  OXT TRP A   2       2.378   9.438  23.196  0.00  0.00    +0.000 OA
ATOM     10  HXT TRP A   2       2.600  10.195  23.787  0.00  0.00    +0.000 HD
ENDBRANCH   7   9
ENDBRANCH   6   7
BRANCH   6  11
ATOM     11  CB  TRP A   2      -0.184   9.638  20.942  0.00  0.00    +0.000 C 
BRANCH  11  12
ATOM     12  CG  TRP A   2      -0.427  11.096  21.256  0.00  0.00    +0.000 A 
ATOM     13  CD1 TRP A   2       0.395  12.010  20.597  0.00  0.00    +0.000 A 
ATOM     14  NE1 TRP A   2      -0.295  13.168  20.454  0.00  0.00    +0.000 N 
ATOM     15  CE2 TRP A   2      -1.352  13.173  21.322  0.00  0.00    +0.000 A 
ATOM     16  CZ2 TRP A   2      -2.254  14.216  21.568  0.00  0.00    +0.000 A 
ATOM     17  CH2 TRP A   2      -3.081  14.090  22.674  0.00  0.00    +0.000 A 
ATOM     18  CZ3 TRP A   2      -3.032  12.937  23.453  0.00  0.00    +0.000 A 
ATOM     19  CE3 TRP A   2      -2.236  11.826  23.085  0.00  0.00    +0.000 A 
ATOM     20  CD2 TRP A   2      -1.359  11.930  21.979  0.00  0.00    +0.000 A 
ATOM     21  HE1 TRP A   2      -0.026  13.943  19.863  0.00  0.00    +0.000 HD
ENDBRANCH  11  12
ENDBRANCH   6  11
ENDBRANCH   4   6
ENDBRANCH   1   2
BRANCH   1  22
ATOM     22  N   UNK A   1       3.542   4.913  20.066  0.00  0.00    +0.000 NA
ATOM     23  H   UNK A   1       4.473   4.876  19.631  0.00  0.00    +0.000 HD
BRANCH  22  24
ATOM     24  C   UNK A   1       2.867   3.574  19.769  0.00  0.00    +0.000 C 
BRANCH  24  25
ATOM     25  C   UNK A   1       2.923   2.853  21.152  0.00  0.00    +0.000 C 
ATOM     26  O   UNK A   1       3.735   2.013  21.508  0.00  0.00    +0.000 OA
BRANCH  25  27
ATOM     27  O   UNK A   1       1.902   3.250  21.969  0.00  0.00    +0.000 OA
ATOM     28  H   UNK A   1       1.632   2.458  22.490  0.00  0.00    +0.000 HD
ENDBRANCH  25  27
ENDBRANCH  24  25
BRANCH  24  29
ATOM     29  C   UNK A   1       3.487   2.723  18.608  0.00  0.00    +0.000 C 
BRANCH  29  30
ATOM     30  C   UNK A   1       3.703   3.218  17.125  0.00  0.00    +0.000 C 
BRANCH  30  31
ATOM     31  C   UNK A   1       4.902   3.981  16.555  0.00  0.00    +0.000 A 
ATOM     32  C   UNK A   1       5.933   4.406  17.439  0.00  0.00    +0.000 A 
ATOM     33  C   UNK A   1       7.151   4.935  16.983  0.00  0.00    +0.000 A 
ATOM     34  C   UNK A   1       7.386   5.047  15.618  0.00  0.00    +0.000 A 
ATOM     35  C   UNK A   1       6.392   4.628  14.726  0.00  0.00    +0.000 A 
ATOM     36  C   UNK A   1       5.168   4.101  15.189  0.00  0.00    +0.000 A 
ENDBRANCH  30  31
ENDBRANCH  29  30
ENDBRANCH  24  29
ENDBRANCH  22  24
ENDBRANCH   1  22
BRANCH   1  37
ATOM     37  C   UNK A   1       2.670   6.365  18.182  0.00  0.00    +0.000 C 
BRANCH  37  38
ATOM     38  C   UNK A   1       2.939   7.728  17.510  0.00  0.00    +0.000 C 
BRANCH  38  39
ATOM     39  C   UNK A   1       1.821   8.774  17.558  0.00  0.00    +0.000 C 
BRANCH  39  40
ATOM     40  C   UNK A   1       2.310  10.009  18.332  0.00  0.00    +0.000 C 
BRANCH  40  41
ATOM     41  N   UNK A   1       2.279  11.213  17.511  0.00  0.00    +0.000 NA
ATOM     42  H   UNK A   1       2.919  11.900  17.912  0.00  0.00    +0.000 HD
ATOM     43  H   UNK A   1       1.354  11.640  17.563  0.00  0.00    +0.000 HD
ENDBRANCH  40  41
ENDBRANCH  39  40
ENDBRANCH  38  39
ENDBRANCH  37  38
ENDBRANCH   1  37
TORSDOF 18
ENDMDL
