MODEL 1
REMARK VINA RESULT:      -8.8      0.000      0.000
REMARK  Name = 
REMARK  4 active torsions:
REMARK  status: ('A' for Active; 'I' for Inactive)
REMARK    1  A    between atoms: C_2  and  C_14
REMARK    2  A    between atoms: N_3  and  C_4
REMARK    3  A    between atoms: N_17  and  C_18
REMARK    4  A    between atoms: C_26  and  C_27
REMARK                            x       y       z     vdW  Elec       q    Type
REMARK                         _______ _______ _______ _____ _____    ______ ____
ROOT
ATOM      1  C   UNL     1       1.141   8.906  21.100  0.00  0.00    +0.000 A 
ATOM      2  C   UNL     1       1.506   9.050  22.453  0.00  0.00    +0.000 A 
ATOM      3  N   UNL     1       0.857  10.034  23.055  0.00  0.00    +0.000 NA
ATOM      4  N   UNL     1       0.061  10.571  22.110  0.00  0.00    +0.000 N 
ATOM      5  C   UNL     1       0.214   9.924  20.860  0.00  0.00    +0.000 A 
ENDROOT
BRANCH   4   6
ATOM      6  C   UNL     1      -0.835  11.629  22.474  0.00  0.00    +0.000 A 
ATOM      7  C   UNL     1      -2.068  11.316  23.079  0.00  0.00    +0.000 A 
ATOM      8  C   UNL     1      -3.060  12.284  23.246  0.00  0.00    +0.000 A 
ATOM      9  C   UNL     1      -2.787  13.604  22.921  0.00  0.00    +0.000 A 
ATOM     10 CL   UNL     1      -4.001  14.802  23.135  0.00  0.00    +0.000 Cl
ATOM     11  C   UNL     1      -1.537  13.954  22.420  0.00  0.00    +0.000 A 
ATOM     12  C   UNL     1      -0.558  12.979  22.182  0.00  0.00    +0.000 A 
ATOM     13 CL   UNL     1       0.876  13.554  21.403  0.00  0.00    +0.000 Cl
ENDBRANCH   4   6
BRANCH   5  14
ATOM     14  C   UNL     1      -0.480  10.292  19.597  0.00  0.00    +0.000 A 
ATOM     15  C   UNL     1      -0.230  11.510  18.936  0.00  0.00    +0.000 A 
ATOM     16  C   UNL     1      -1.035  11.946  17.881  0.00  0.00    +0.000 A 
ATOM     17  C   UNL     1      -2.001  11.097  17.360  0.00  0.00    +0.000 A 
ATOM     18 CL   UNL     1      -2.943  11.600  16.014  0.00  0.00    +0.000 Cl
ATOM     19  C   UNL     1      -2.195   9.841  17.920  0.00  0.00    +0.000 A 
ATOM     20  C   UNL     1      -1.469   9.461  19.052  0.00  0.00    +0.000 A 
ENDBRANCH   5  14
BRANCH   1  22
ATOM     21  O   UNL     1       1.940   8.249  19.001  0.00  0.00    +0.000 OA
ATOM     22  C   UNL     1       1.679   7.943  20.152  0.00  0.00    +0.000 C 
ATOM     23  N   UNL     1       1.822   6.665  20.655  0.00  0.00    +0.000 N 
ATOM     24  H   UNL     1       1.557   6.485  21.614  0.00  0.00    +0.000 HD
BRANCH  23  25
ATOM     25  C   UNL     1       2.251   5.523  19.842  0.00  0.00    +0.000 C 
ATOM     26  C   UNL     1       3.788   5.520  19.664  0.00  0.00    +0.000 C 
ATOM     27  C   UNL     1       4.238   4.312  18.831  0.00  0.00    +0.000 C 
ATOM     28  C   UNL     1       3.825   3.020  19.550  0.00  0.00    +0.000 C 
ATOM     29  C   UNL     1       2.299   2.979  19.723  0.00  0.00    +0.000 C 
ATOM     30  C   UNL     1       1.627   3.034  18.342  0.00  0.00    +0.000 C 
ATOM     31  C   UNL     1       2.028   4.325  17.615  0.00  0.00    +0.000 C 
ATOM     32  C   UNL     1       3.557   4.365  17.453  0.00  0.00    +0.000 C 
ATOM     33  C   UNL     1       1.575   5.537  18.445  0.00  0.00    +0.000 C 
ATOM     34  C   UNL     1       1.855   4.198  20.552  0.00  0.00    +0.000 C 
ENDBRANCH  23  25
ENDBRANCH   1  22
TORSDOF 4
ENDMDL
MODEL 2
REMARK VINA RESULT:      -8.7      0.037      1.316
REMARK  Name = 
REMARK  4 active torsions:
REMARK  status: ('A' for Active; 'I' for Inactive)
REMARK    1  A    between atoms: C_2  and  C_14
REMARK    2  A    between atoms: N_3  and  C_4
REMARK    3  A    between atoms: N_17  and  C_18
REMARK    4  A    between atoms: C_26  and  C_27
REMARK                            x       y       z     vdW  Elec       q    Type
REMARK                         _______ _______ _______ _____ _____    ______ ____
ROOT
ATOM      1  C   UNL     1       1.145   8.884  21.103  0.00  0.00    +0.000 A 
ATOM      2  C   UNL     1       1.508   9.035  22.456  0.00  0.00    +0.000 A 
ATOM      3  N   UNL     1       0.862  10.026  23.050  0.00  0.00    +0.000 NA
ATOM      4  N   UNL     1       0.069  10.560  22.101  0.00  0.00    +0.000 N 
ATOM      5  C   UNL     1       0.222   9.905  20.855  0.00  0.00    +0.000 A 
ENDROOT
BRANCH   4   6
ATOM      6  C   UNL     1      -0.824  11.624  22.456  0.00  0.00    +0.000 A 
ATOM      7  C   UNL     1      -2.061  11.318  23.058  0.00  0.00    +0.000 A 
ATOM      8  C   UNL     1      -3.048  12.292  23.216  0.00  0.00    +0.000 A 
ATOM      9  C   UNL     1      -2.768  13.609  22.887  0.00  0.00    +0.000 A 
ATOM     10 CL   UNL     1      -3.977  14.814  23.090  0.00  0.00    +0.000 Cl
ATOM     11  C   UNL     1      -1.515  13.951  22.390  0.00  0.00    +0.000 A 
ATOM     12  C   UNL     1      -0.538  12.971  22.160  0.00  0.00    +0.000 A 
ATOM     13 CL   UNL     1       0.902  13.536  21.386  0.00  0.00    +0.000 Cl
ENDBRANCH   4   6
BRANCH   5  14
ATOM     14  C   UNL     1      -0.469  10.267  19.589  0.00  0.00    +0.000 A 
ATOM     15  C   UNL     1      -0.186  11.462  18.901  0.00  0.00    +0.000 A 
ATOM     16  C   UNL     1      -0.985  11.901  17.841  0.00  0.00    +0.000 A 
ATOM     17  C   UNL     1      -1.979  11.071  17.344  0.00  0.00    +0.000 A 
ATOM     18 CL   UNL     1      -2.914  11.574  15.993  0.00  0.00    +0.000 Cl
ATOM     19  C   UNL     1      -2.208   9.834  17.932  0.00  0.00    +0.000 A 
ATOM     20  C   UNL     1      -1.486   9.455  19.068  0.00  0.00    +0.000 A 
ENDBRANCH   5  14
BRANCH   1  22
ATOM     21  O   UNL     1       1.955   8.213  19.013  0.00  0.00    +0.000 OA
ATOM     22  C   UNL     1       1.681   7.914  20.162  0.00  0.00    +0.000 C 
ATOM     23  N   UNL     1       1.806   6.636  20.670  0.00  0.00    +0.000 N 
ATOM     24  H   UNL     1       1.531   6.460  21.626  0.00  0.00    +0.000 HD
BRANCH  23  25
ATOM     25  C   UNL     1       2.229   5.486  19.863  0.00  0.00    +0.000 C 
ATOM     26  C   UNL     1       1.574   5.527  18.461  0.00  0.00    +0.000 C 
ATOM     27  C   UNL     1       2.035   4.336  17.610  0.00  0.00    +0.000 C 
ATOM     28  C   UNL     1       3.560   4.395  17.441  0.00  0.00    +0.000 C 
ATOM     29  C   UNL     1       4.244   4.333  18.816  0.00  0.00    +0.000 C 
ATOM     30  C   UNL     1       3.856   3.023  19.520  0.00  0.00    +0.000 C 
ATOM     31  C   UNL     1       2.334   2.955  19.700  0.00  0.00    +0.000 C 
ATOM     32  C   UNL     1       1.654   3.027  18.322  0.00  0.00    +0.000 C 
ATOM     33  C   UNL     1       1.870   4.145  20.556  0.00  0.00    +0.000 C 
ATOM     34  C   UNL     1       3.771   5.525  19.666  0.00  0.00    +0.000 C 
ENDBRANCH  23  25
ENDBRANCH   1  22
TORSDOF 4
ENDMDL
MODEL 3
REMARK VINA RESULT:      -8.7      0.035      1.314
REMARK  Name = 
REMARK  4 active torsions:
REMARK  status: ('A' for Active; 'I' for Inactive)
REMARK    1  A    between atoms: C_2  and  C_14
REMARK    2  A    between atoms: N_3  and  C_4
REMARK    3  A    between atoms: N_17  and  C_18
REMARK    4  A    between atoms: C_26  and  C_27
REMARK                            x       y       z     vdW  Elec       q    Type
REMARK                         _______ _______ _______ _____ _____    ______ ____
ROOT
ATOM      1  C   UNL     1       1.141   8.893  21.113  0.00  0.00    +0.000 A 
ATOM      2  C   UNL     1       1.499   9.044  22.468  0.00  0.00    +0.000 A 
ATOM      3  N   UNL     1       0.850  10.033  23.060  0.00  0.00    +0.000 NA
ATOM      4  N   UNL     1       0.059  10.567  22.108  0.00  0.00    +0.000 N 
ATOM      5  C   UNL     1       0.217   9.912  20.863  0.00  0.00    +0.000 A 
ENDROOT
BRANCH   4   6
ATOM      6  C   UNL     1      -0.836  11.629  22.461  0.00  0.00    +0.000 A 
ATOM      7  C   UNL     1      -2.075  11.322  23.060  0.00  0.00    +0.000 A 
ATOM      8  C   UNL     1      -3.064  12.294  23.215  0.00  0.00    +0.000 A 
ATOM      9  C   UNL     1      -2.785  13.611  22.887  0.00  0.00    +0.000 A 
ATOM     10 CL   UNL     1      -3.997  14.814  23.087  0.00  0.00    +0.000 Cl
ATOM     11  C   UNL     1      -1.531  13.956  22.394  0.00  0.00    +0.000 A 
ATOM     12  C   UNL     1      -0.552  12.977  22.166  0.00  0.00    +0.000 A 
ATOM     13 CL   UNL     1       0.889  13.544  21.396  0.00  0.00    +0.000 Cl
ENDBRANCH   4   6
BRANCH   5  14
ATOM     14  C   UNL     1      -0.470  10.274  19.595  0.00  0.00    +0.000 A 
ATOM     15  C   UNL     1      -0.191  11.472  18.911  0.00  0.00    +0.000 A 
ATOM     16  C   UNL     1      -0.987  11.910  17.849  0.00  0.00    +0.000 A 
ATOM     17  C   UNL     1      -1.975  11.076  17.345  0.00  0.00    +0.000 A 
ATOM     18 CL   UNL     1      -2.906  11.578  15.992  0.00  0.00    +0.000 Cl
ATOM     19  C   UNL     1      -2.200   9.836  17.929  0.00  0.00    +0.000 A 
ATOM     20  C   UNL     1      -1.481   9.459  19.067  0.00  0.00    +0.000 A 
ENDBRANCH   5  14
BRANCH   1  22
ATOM     21  O   UNL     1       1.946   8.221  19.023  0.00  0.00    +0.000 OA
ATOM     22  C   UNL     1       1.681   7.924  20.174  0.00  0.00    +0.000 C 
ATOM     23  N   UNL     1       1.820   6.649  20.686  0.00  0.00    +0.000 N 
ATOM     24  H   UNL     1       1.552   6.475  21.645  0.00  0.00    +0.000 HD
BRANCH  23  25
ATOM     25  C   UNL     1       2.251   5.500  19.882  0.00  0.00    +0.000 C 
ATOM     26  C   UNL     1       1.837   4.170  20.557  0.00  0.00    +0.000 C 
ATOM     27  C   UNL     1       2.269   2.970  19.704  0.00  0.00    +0.000 C 
ATOM     28  C   UNL     1       1.588   3.055  18.330  0.00  0.00    +0.000 C 
ATOM     29  C   UNL     1       1.997   4.356  17.621  0.00  0.00    +0.000 C 
ATOM     30  C   UNL     1       3.523   4.381  17.441  0.00  0.00    +0.000 C 
ATOM     31  C   UNL     1       4.215   4.302  18.809  0.00  0.00    +0.000 C 
ATOM     32  C   UNL     1       3.794   3.003  19.517  0.00  0.00    +0.000 C 
ATOM     33  C   UNL     1       3.787   5.506  19.664  0.00  0.00    +0.000 C 
ATOM     34  C   UNL     1       1.568   5.555  18.486  0.00  0.00    +0.000 C 
ENDBRANCH  23  25
ENDBRANCH   1  22
TORSDOF 4
ENDMDL
MODEL 4
REMARK VINA RESULT:      -7.5      3.510      9.002
REMARK  Name = 
REMARK  4 active torsions:
REMARK  status: ('A' for Active; 'I' for Inactive)
REMARK    1  A    between atoms: C_2  and  C_14
REMARK    2  A    between atoms: N_3  and  C_4
REMARK    3  A    between atoms: N_17  and  C_18
REMARK    4  A    between atoms: C_26  and  C_27
REMARK                            x       y       z     vdW  Elec       q    Type
REMARK                         _______ _______ _______ _____ _____    ______ ____
ROOT
ATOM      1  C   UNL     1      -1.573  12.473  20.991  0.00  0.00    +0.000 A 
ATOM      2  C   UNL     1      -0.602  12.363  22.006  0.00  0.00    +0.000 A 
ATOM      3  N   UNL     1       0.341  11.480  21.717  0.00  0.00    +0.000 NA
ATOM      4  N   UNL     1       0.006  10.977  20.513  0.00  0.00    +0.000 N 
ATOM      5  C   UNL     1      -1.196  11.540  20.021  0.00  0.00    +0.000 A 
ENDROOT
BRANCH   4   6
ATOM      6  C   UNL     1       0.883  10.032  19.885  0.00  0.00    +0.000 A 
ATOM      7  C   UNL     1       1.412  10.319  18.611  0.00  0.00    +0.000 A 
ATOM      8  C   UNL     1       2.083   9.345  17.870  0.00  0.00    +0.000 A 
ATOM      9  C   UNL     1       2.340   8.108  18.441  0.00  0.00    +0.000 A 
ATOM     10 CL   UNL     1       3.175   6.908  17.537  0.00  0.00    +0.000 Cl
ATOM     11  C   UNL     1       1.919   7.840  19.740  0.00  0.00    +0.000 A 
ATOM     12  C   UNL     1       1.182   8.785  20.468  0.00  0.00    +0.000 A 
ATOM     13 CL   UNL     1       0.592   8.236  21.999  0.00  0.00    +0.000 Cl
ENDBRANCH   4   6
BRANCH   5  14
ATOM     14  C   UNL     1      -1.870  11.179  18.745  0.00  0.00    +0.000 A 
ATOM     15  C   UNL     1      -2.561   9.963  18.585  0.00  0.00    +0.000 A 
ATOM     16  C   UNL     1      -3.000   9.532  17.330  0.00  0.00    +0.000 A 
ATOM     17  C   UNL     1      -2.903  10.386  16.240  0.00  0.00    +0.000 A 
ATOM     18 CL   UNL     1      -3.510   9.890  14.712  0.00  0.00    +0.000 Cl
ATOM     19  C   UNL     1      -2.326  11.640  16.392  0.00  0.00    +0.000 A 
ATOM     20  C   UNL     1      -1.779  12.014  17.623  0.00  0.00    +0.000 A 
ENDBRANCH   5  14
BRANCH   1  22
ATOM     21  O   UNL     1      -2.673  14.531  20.826  0.00  0.00    +0.000 OA
ATOM     22  C   UNL     1      -2.749  13.328  21.001  0.00  0.00    +0.000 C 
ATOM     23  N   UNL     1      -3.933  12.667  21.266  0.00  0.00    +0.000 N 
ATOM     24  H   UNL     1      -3.910  11.670  21.428  0.00  0.00    +0.000 HD
BRANCH  23  25
ATOM     25  C   UNL     1      -5.220  13.352  21.423  0.00  0.00    +0.000 C 
ATOM     26  C   UNL     1      -6.390  12.340  21.386  0.00  0.00    +0.000 C 
ATOM     27  C   UNL     1      -7.735  13.055  21.572  0.00  0.00    +0.000 C 
ATOM     28  C   UNL     1      -7.745  13.768  22.932  0.00  0.00    +0.000 C 
ATOM     29  C   UNL     1      -6.608  14.799  22.993  0.00  0.00    +0.000 C 
ATOM     30  C   UNL     1      -6.794  15.833  21.871  0.00  0.00    +0.000 C 
ATOM     31  C   UNL     1      -6.780  15.132  20.505  0.00  0.00    +0.000 C 
ATOM     32  C   UNL     1      -7.915  14.095  20.453  0.00  0.00    +0.000 C 
ATOM     33  C   UNL     1      -5.432  14.418  20.315  0.00  0.00    +0.000 C 
ATOM     34  C   UNL     1      -5.263  14.076  22.798  0.00  0.00    +0.000 C 
ENDBRANCH  23  25
ENDBRANCH   1  22
TORSDOF 4
ENDMDL
MODEL 5
REMARK VINA RESULT:      -7.3      7.212      8.461
REMARK  Name = 
REMARK  4 active torsions:
REMARK  status: ('A' for Active; 'I' for Inactive)
REMARK    1  A    between atoms: C_2  and  C_14
REMARK    2  A    between atoms: N_3  and  C_4
REMARK    3  A    between atoms: N_17  and  C_18
REMARK    4  A    between atoms: C_26  and  C_27
REMARK                            x       y       z     vdW  Elec       q    Type
REMARK                         _______ _______ _______ _____ _____    ______ ____
ROOT
ATOM      1  C   UNL     1       6.058  15.902  19.151  0.00  0.00    +0.000 A 
ATOM      2  C   UNL     1       6.371  17.267  19.306  0.00  0.00    +0.000 A 
ATOM      3  N   UNL     1       5.331  17.988  19.694  0.00  0.00    +0.000 NA
ATOM      4  N   UNL     1       4.306  17.120  19.789  0.00  0.00    +0.000 N 
ATOM      5  C   UNL     1       4.693  15.805  19.436  0.00  0.00    +0.000 A 
ENDROOT
BRANCH   4   6
ATOM      6  C   UNL     1       3.037  17.589  20.264  0.00  0.00    +0.000 A 
ATOM      7  C   UNL     1       2.881  17.904  21.628  0.00  0.00    +0.000 A 
ATOM      8  C   UNL     1       1.620  18.148  22.175  0.00  0.00    +0.000 A 
ATOM      9  C   UNL     1       0.513  18.201  21.342  0.00  0.00    +0.000 A 
ATOM     10 CL   UNL     1      -1.041  18.513  22.008  0.00  0.00    +0.000 Cl
ATOM     11  C   UNL     1       0.661  17.999  19.973  0.00  0.00    +0.000 A 
ATOM     12  C   UNL     1       1.911  17.683  19.422  0.00  0.00    +0.000 A 
ATOM     13 CL   UNL     1       1.894  17.298  17.736  0.00  0.00    +0.000 Cl
ENDBRANCH   4   6
BRANCH   5  14
ATOM     14  C   UNL     1       3.801  14.615  19.391  0.00  0.00    +0.000 A 
ATOM     15  C   UNL     1       3.446  13.996  18.179  0.00  0.00    +0.000 A 
ATOM     16  C   UNL     1       2.442  13.025  18.121  0.00  0.00    +0.000 A 
ATOM     17  C   UNL     1       1.892  12.538  19.299  0.00  0.00    +0.000 A 
ATOM     18 CL   UNL     1       0.712  11.291  19.237  0.00  0.00    +0.000 Cl
ATOM     19  C   UNL     1       2.305  13.051  20.521  0.00  0.00    +0.000 A 
ATOM     20  C   UNL     1       3.220  14.107  20.562  0.00  0.00    +0.000 A 
ENDBRANCH   5  14
BRANCH   1  22
ATOM     21  O   UNL     1       6.814  14.274  17.651  0.00  0.00    +0.000 OA
ATOM     22  C   UNL     1       6.959  14.847  18.716  0.00  0.00    +0.000 C 
ATOM     23  N   UNL     1       7.950  14.532  19.625  0.00  0.00    +0.000 N 
ATOM     24  H   UNL     1       7.988  15.035  20.501  0.00  0.00    +0.000 HD
BRANCH  23  25
ATOM     25  C   UNL     1       8.901  13.433  19.431  0.00  0.00    +0.000 C 
ATOM     26  C   UNL     1       9.005  12.563  20.707  0.00  0.00    +0.000 C 
ATOM     27  C   UNL     1       9.984  11.401  20.496  0.00  0.00    +0.000 C 
ATOM     28  C   UNL     1       9.482  10.520  19.343  0.00  0.00    +0.000 C 
ATOM     29  C   UNL     1       9.389  11.349  18.051  0.00  0.00    +0.000 C 
ATOM     30  C   UNL     1      10.778  11.908  17.703  0.00  0.00    +0.000 C 
ATOM     31  C   UNL     1      11.288  12.795  18.847  0.00  0.00    +0.000 C 
ATOM     32  C   UNL     1      11.370  11.963  20.139  0.00  0.00    +0.000 C 
ATOM     33  C   UNL     1      10.311  13.963  19.058  0.00  0.00    +0.000 C 
ATOM     34  C   UNL     1       8.412  12.517  18.274  0.00  0.00    +0.000 C 
ENDBRANCH  23  25
ENDBRANCH   1  22
TORSDOF 4
ENDMDL
MODEL 6
REMARK VINA RESULT:      -7.3      3.579      8.918
REMARK  Name = 
REMARK  4 active torsions:
REMARK  status: ('A' for Active; 'I' for Inactive)
REMARK    1  A    between atoms: C_2  and  C_14
REMARK    2  A    between atoms: N_3  and  C_4
REMARK    3  A    between atoms: N_17  and  C_18
REMARK    4  A    between atoms: C_26  and  C_27
REMARK                            x       y       z     vdW  Elec       q    Type
REMARK                         _______ _______ _______ _____ _____    ______ ____
ROOT
ATOM      1  C   UNL     1      -1.545  12.399  20.818  0.00  0.00    +0.000 A 
ATOM      2  C   UNL     1      -0.602  12.318  21.862  0.00  0.00    +0.000 A 
ATOM      3  N   UNL     1       0.349  11.430  21.622  0.00  0.00    +0.000 NA
ATOM      4  N   UNL     1       0.048  10.894  20.423  0.00  0.00    +0.000 N 
ATOM      5  C   UNL     1      -1.141  11.442  19.883  0.00  0.00    +0.000 A 
ENDROOT
BRANCH   4   6
ATOM      6  C   UNL     1       0.943   9.935  19.844  0.00  0.00    +0.000 A 
ATOM      7  C   UNL     1       1.533  10.205  18.593  0.00  0.00    +0.000 A 
ATOM      8  C   UNL     1       2.226   9.217  17.892  0.00  0.00    +0.000 A 
ATOM      9  C   UNL     1       2.444   7.983  18.486  0.00  0.00    +0.000 A 
ATOM     10 CL   UNL     1       3.308   6.767  17.631  0.00  0.00    +0.000 Cl
ATOM     11  C   UNL     1       1.962   7.732  19.766  0.00  0.00    +0.000 A 
ATOM     12  C   UNL     1       1.203   8.691  20.452  0.00  0.00    +0.000 A 
ATOM     13 CL   UNL     1       0.538   8.162  21.958  0.00  0.00    +0.000 Cl
ENDBRANCH   4   6
BRANCH   5  14
ATOM     14  C   UNL     1      -1.779  11.045  18.600  0.00  0.00    +0.000 A 
ATOM     15  C   UNL     1      -1.656  11.824  17.434  0.00  0.00    +0.000 A 
ATOM     16  C   UNL     1      -2.431  11.568  16.299  0.00  0.00    +0.000 A 
ATOM     17  C   UNL     1      -3.220  10.428  16.252  0.00  0.00    +0.000 A 
ATOM     18 CL   UNL     1      -4.116  10.068  14.831  0.00  0.00    +0.000 Cl
ATOM     19  C   UNL     1      -3.275   9.577  17.349  0.00  0.00    +0.000 A 
ATOM     20  C   UNL     1      -2.592   9.906  18.524  0.00  0.00    +0.000 A 
ENDBRANCH   5  14
BRANCH   1  22
ATOM     21  O   UNL     1      -2.643  14.449  20.563  0.00  0.00    +0.000 OA
ATOM     22  C   UNL     1      -2.722  13.252  20.774  0.00  0.00    +0.000 C 
ATOM     23  N   UNL     1      -3.911  12.597  21.033  0.00  0.00    +0.000 N 
ATOM     24  H   UNL     1      -3.891  11.606  21.227  0.00  0.00    +0.000 HD
BRANCH  23  25
ATOM     25  C   UNL     1      -5.202  13.284  21.137  0.00  0.00    +0.000 C 
ATOM     26  C   UNL     1      -5.444  14.192  19.907  0.00  0.00    +0.000 C 
ATOM     27  C   UNL     1      -6.805  14.894  20.007  0.00  0.00    +0.000 C 
ATOM     28  C   UNL     1      -7.917  13.836  20.062  0.00  0.00    +0.000 C 
ATOM     29  C   UNL     1      -7.720  12.930  21.287  0.00  0.00    +0.000 C 
ATOM     30  C   UNL     1      -7.761  13.783  22.565  0.00  0.00    +0.000 C 
ATOM     31  C   UNL     1      -6.650  14.842  22.525  0.00  0.00    +0.000 C 
ATOM     32  C   UNL     1      -6.846  15.739  21.291  0.00  0.00    +0.000 C 
ATOM     33  C   UNL     1      -5.285  14.141  22.428  0.00  0.00    +0.000 C 
ATOM     34  C   UNL     1      -6.350  12.236  21.184  0.00  0.00    +0.000 C 
ENDBRANCH  23  25
ENDBRANCH   1  22
TORSDOF 4
ENDMDL
MODEL 7
REMARK VINA RESULT:      -7.3      3.390      9.077
REMARK  Name = 
REMARK  4 active torsions:
REMARK  status: ('A' for Active; 'I' for Inactive)
REMARK    1  A    between atoms: C_2  and  C_14
REMARK    2  A    between atoms: N_3  and  C_4
REMARK    3  A    between atoms: N_17  and  C_18
REMARK    4  A    between atoms: C_26  and  C_27
REMARK                            x       y       z     vdW  Elec       q    Type
REMARK                         _______ _______ _______ _____ _____    ______ ____
ROOT
ATOM      1  C   UNL     1      -1.513  12.422  21.005  0.00  0.00    +0.000 A 
ATOM      2  C   UNL     1      -0.530  12.301  22.007  0.00  0.00    +0.000 A 
ATOM      3  N   UNL     1       0.407  11.419  21.699  0.00  0.00    +0.000 NA
ATOM      4  N   UNL     1       0.056  10.926  20.495  0.00  0.00    +0.000 N 
ATOM      5  C   UNL     1      -1.150  11.496  20.023  0.00  0.00    +0.000 A 
ENDROOT
BRANCH   4   6
ATOM      6  C   UNL     1       0.923   9.985  19.848  0.00  0.00    +0.000 A 
ATOM      7  C   UNL     1       1.456  10.292  18.581  0.00  0.00    +0.000 A 
ATOM      8  C   UNL     1       2.117   9.326  17.821  0.00  0.00    +0.000 A 
ATOM      9  C   UNL     1       2.359   8.075  18.367  0.00  0.00    +0.000 A 
ATOM     10 CL   UNL     1       3.182   6.884  17.439  0.00  0.00    +0.000 Cl
ATOM     11  C   UNL     1       1.934   7.785  19.659  0.00  0.00    +0.000 A 
ATOM     12  C   UNL     1       1.207   8.723  20.406  0.00  0.00    +0.000 A 
ATOM     13 CL   UNL     1       0.609   8.149  21.925  0.00  0.00    +0.000 Cl
ENDBRANCH   4   6
BRANCH   5  14
ATOM     14  C   UNL     1      -1.841  11.147  18.752  0.00  0.00    +0.000 A 
ATOM     15  C   UNL     1      -2.579   9.957  18.608  0.00  0.00    +0.000 A 
ATOM     16  C   UNL     1      -3.038   9.530  17.358  0.00  0.00    +0.000 A 
ATOM     17  C   UNL     1      -2.911  10.367  16.259  0.00  0.00    +0.000 A 
ATOM     18 CL   UNL     1      -3.540   9.878  14.737  0.00  0.00    +0.000 Cl
ATOM     19  C   UNL     1      -2.286  11.600  16.395  0.00  0.00    +0.000 A 
ATOM     20  C   UNL     1      -1.722  11.966  17.621  0.00  0.00    +0.000 A 
ENDBRANCH   5  14
BRANCH   1  22
ATOM     21  O   UNL     1      -2.713  14.358  20.471  0.00  0.00    +0.000 OA
ATOM     22  C   UNL     1      -2.687  13.279  21.037  0.00  0.00    +0.000 C 
ATOM     23  N   UNL     1      -3.734  12.786  21.792  0.00  0.00    +0.000 N 
ATOM     24  H   UNL     1      -3.625  11.895  22.256  0.00  0.00    +0.000 HD
BRANCH  23  25
ATOM     25  C   UNL     1      -4.970  13.535  22.040  0.00  0.00    +0.000 C 
ATOM     26  C   UNL     1      -4.669  14.871  22.761  0.00  0.00    +0.000 C 
ATOM     27  C   UNL     1      -5.962  15.663  23.001  0.00  0.00    +0.000 C 
ATOM     28  C   UNL     1      -6.623  15.973  21.650  0.00  0.00    +0.000 C 
ATOM     29  C   UNL     1      -6.957  14.664  20.917  0.00  0.00    +0.000 C 
ATOM     30  C   UNL     1      -7.917  13.827  21.778  0.00  0.00    +0.000 C 
ATOM     31  C   UNL     1      -7.264  13.506  23.130  0.00  0.00    +0.000 C 
ATOM     32  C   UNL     1      -6.923  14.819  23.855  0.00  0.00    +0.000 C 
ATOM     33  C   UNL     1      -5.971  12.709  22.892  0.00  0.00    +0.000 C 
ATOM     34  C   UNL     1      -5.658  13.871  20.687  0.00  0.00    +0.000 C 
ENDBRANCH  23  25
ENDBRANCH   1  22
TORSDOF 4
ENDMDL
MODEL 8
REMARK VINA RESULT:      -7.2      7.481      8.797
REMARK  Name = 
REMARK  4 active torsions:
REMARK  status: ('A' for Active; 'I' for Inactive)
REMARK    1  A    between atoms: C_2  and  C_14
REMARK    2  A    between atoms: N_3  and  C_4
REMARK    3  A    between atoms: N_17  and  C_18
REMARK    4  A    between atoms: C_26  and  C_27
REMARK                            x       y       z     vdW  Elec       q    Type
REMARK                         _______ _______ _______ _____ _____    ______ ____
ROOT
ATOM      1  C   UNL     1       5.749  15.933  19.919  0.00  0.00    +0.000 A 
ATOM      2  C   UNL     1       5.958  17.327  19.928  0.00  0.00    +0.000 A 
ATOM      3  N   UNL     1       4.839  18.011  19.749  0.00  0.00    +0.000 NA
ATOM      4  N   UNL     1       3.870  17.087  19.605  0.00  0.00    +0.000 N 
ATOM      5  C   UNL     1       4.383  15.769  19.675  0.00  0.00    +0.000 A 
ENDROOT
BRANCH   4   6
ATOM      6  C   UNL     1       2.510  17.519  19.464  0.00  0.00    +0.000 A 
ATOM      7  C   UNL     1       1.757  17.823  20.615  0.00  0.00    +0.000 A 
ATOM      8  C   UNL     1       0.379  18.030  20.545  0.00  0.00    +0.000 A 
ATOM      9  C   UNL     1      -0.246  18.056  19.307  0.00  0.00    +0.000 A 
ATOM     10 CL   UNL     1      -1.941  18.322  19.214  0.00  0.00    +0.000 Cl
ATOM     11  C   UNL     1       0.498  17.864  18.148  0.00  0.00    +0.000 A 
ATOM     12  C   UNL     1       1.871  17.585  18.210  0.00  0.00    +0.000 A 
ATOM     13 CL   UNL     1       2.614  17.206  16.694  0.00  0.00    +0.000 Cl
ENDBRANCH   4   6
BRANCH   5  14
ATOM     14  C   UNL     1       3.595  14.517  19.512  0.00  0.00    +0.000 A 
ATOM     15  C   UNL     1       3.474  13.869  18.269  0.00  0.00    +0.000 A 
ATOM     16  C   UNL     1       2.563  12.827  18.074  0.00  0.00    +0.000 A 
ATOM     17  C   UNL     1       1.878  12.305  19.162  0.00  0.00    +0.000 A 
ATOM     18 CL   UNL     1       0.814  10.975  18.941  0.00  0.00    +0.000 Cl
ATOM     19  C   UNL     1       2.062  12.852  20.425  0.00  0.00    +0.000 A 
ATOM     20  C   UNL     1       2.882  13.972  20.589  0.00  0.00    +0.000 A 
ENDBRANCH   5  14
BRANCH   1  22
ATOM     21  O   UNL     1       6.793  14.157  21.027  0.00  0.00    +0.000 OA
ATOM     22  C   UNL     1       6.763  14.901  20.063  0.00  0.00    +0.000 C 
ATOM     23  N   UNL     1       7.697  14.873  19.045  0.00  0.00    +0.000 N 
ATOM     24  H   UNL     1       7.620  15.542  18.292  0.00  0.00    +0.000 HD
BRANCH  23  25
ATOM     25  C   UNL     1       8.860  13.980  19.044  0.00  0.00    +0.000 C 
ATOM     26  C   UNL     1       8.525  12.640  18.346  0.00  0.00    +0.000 C 
ATOM     27  C   UNL     1       9.749  11.715  18.326  0.00  0.00    +0.000 C 
ATOM     28  C   UNL     1      10.888  12.399  17.556  0.00  0.00    +0.000 C 
ATOM     29  C   UNL     1      11.262  13.724  18.238  0.00  0.00    +0.000 C 
ATOM     30  C   UNL     1      11.714  13.446  19.680  0.00  0.00    +0.000 C 
ATOM     31  C   UNL     1      10.581  12.767  20.463  0.00  0.00    +0.000 C 
ATOM     32  C   UNL     1      10.204  11.446  19.770  0.00  0.00    +0.000 C 
ATOM     33  C   UNL     1       9.355  13.693  20.487  0.00  0.00    +0.000 C 
ATOM     34  C   UNL     1      10.028  14.643  18.261  0.00  0.00    +0.000 C 
ENDBRANCH  23  25
ENDBRANCH   1  22
TORSDOF 4
ENDMDL
MODEL 9
REMARK VINA RESULT:      -7.2      3.552      8.897
REMARK  Name = 
REMARK  4 active torsions:
REMARK  status: ('A' for Active; 'I' for Inactive)
REMARK    1  A    between atoms: C_2  and  C_14
REMARK    2  A    between atoms: N_3  and  C_4
REMARK    3  A    between atoms: N_17  and  C_18
REMARK    4  A    between atoms: C_26  and  C_27
REMARK                            x       y       z     vdW  Elec       q    Type
REMARK                         _______ _______ _______ _____ _____    ______ ____
ROOT
ATOM      1  C   UNL     1      -1.625  12.129  20.845  0.00  0.00    +0.000 A 
ATOM      2  C   UNL     1      -0.725  11.985  21.919  0.00  0.00    +0.000 A 
ATOM      3  N   UNL     1       0.244  11.122  21.660  0.00  0.00    +0.000 NA
ATOM      4  N   UNL     1      -0.002  10.666  20.416  0.00  0.00    +0.000 N 
ATOM      5  C   UNL     1      -1.173  11.240  19.866  0.00  0.00    +0.000 A 
ENDROOT
BRANCH   4   6
ATOM      6  C   UNL     1       0.925   9.755  19.812  0.00  0.00    +0.000 A 
ATOM      7  C   UNL     1       1.453  10.046  18.539  0.00  0.00    +0.000 A 
ATOM      8  C   UNL     1       2.177   9.093  17.820  0.00  0.00    +0.000 A 
ATOM      9  C   UNL     1       2.487   7.880  18.414  0.00  0.00    +0.000 A 
ATOM     10 CL   UNL     1       3.388   6.707  17.538  0.00  0.00    +0.000 Cl
ATOM     11  C   UNL     1       2.066   7.613  19.713  0.00  0.00    +0.000 A 
ATOM     12  C   UNL     1       1.278   8.533  20.419  0.00  0.00    +0.000 A 
ATOM     13 CL   UNL     1       0.699   7.981  21.953  0.00  0.00    +0.000 Cl
ENDBRANCH   4   6
BRANCH   5  14
ATOM     14  C   UNL     1      -1.755  10.926  18.533  0.00  0.00    +0.000 A 
ATOM     15  C   UNL     1      -1.697  11.837  17.462  0.00  0.00    +0.000 A 
ATOM     16  C   UNL     1      -2.430  11.632  16.289  0.00  0.00    +0.000 A 
ATOM     17  C   UNL     1      -3.100  10.432  16.102  0.00  0.00    +0.000 A 
ATOM     18 CL   UNL     1      -3.940  10.144  14.631  0.00  0.00    +0.000 Cl
ATOM     19  C   UNL     1      -3.082   9.464  17.098  0.00  0.00    +0.000 A 
ATOM     20  C   UNL     1      -2.449   9.728  18.316  0.00  0.00    +0.000 A 
ENDBRANCH   5  14
BRANCH   1  22
ATOM     21  O   UNL     1      -2.747  14.157  20.521  0.00  0.00    +0.000 OA
ATOM     22  C   UNL     1      -2.808  12.975  20.809  0.00  0.00    +0.000 C 
ATOM     23  N   UNL     1      -3.978  12.334  21.167  0.00  0.00    +0.000 N 
ATOM     24  H   UNL     1      -3.943  11.356  21.420  0.00  0.00    +0.000 HD
BRANCH  23  25
ATOM     25  C   UNL     1      -5.266  13.023  21.296  0.00  0.00    +0.000 C 
ATOM     26  C   UNL     1      -5.417  13.650  22.702  0.00  0.00    +0.000 C 
ATOM     27  C   UNL     1      -6.756  14.389  22.828  0.00  0.00    +0.000 C 
ATOM     28  C   UNL     1      -6.815  15.511  21.782  0.00  0.00    +0.000 C 
ATOM     29  C   UNL     1      -6.692  14.919  20.369  0.00  0.00    +0.000 C 
ATOM     30  C   UNL     1      -7.844  13.931  20.127  0.00  0.00    +0.000 C 
ATOM     31  C   UNL     1      -7.792  12.801  21.165  0.00  0.00    +0.000 C 
ATOM     32  C   UNL     1      -7.906  13.401  22.577  0.00  0.00    +0.000 C 
ATOM     33  C   UNL     1      -6.453  12.057  21.038  0.00  0.00    +0.000 C 
ATOM     34  C   UNL     1      -5.351  14.173  20.253  0.00  0.00    +0.000 C 
ENDBRANCH  23  25
ENDBRANCH   1  22
TORSDOF 4
ENDMDL
