MODEL 1
REMARK VINA RESULT:      -7.4      0.000      0.000
REMARK  Name = 
REMARK  8 active torsions:
REMARK  status: ('A' for Active; 'I' for Inactive)
REMARK    1  A    between atoms: C_1  and  C_2
REMARK    2  A    between atoms: C_2  and  C_3
REMARK    3  A    between atoms: C_3  and  S_4
REMARK    4  A    between atoms: S_4  and  N_7
REMARK    5  A    between atoms: C_11  and  C_13
REMARK    6  A    between atoms: C_13  and  O_14
REMARK    7  A    between atoms: O_14  and  C_15
REMARK    8  A    between atoms: C_18  and  C_19
REMARK                            x       y       z     vdW  Elec       q    Type
REMARK                         _______ _______ _______ _____ _____    ______ ____
ROOT
ATOM      1  N   UNL     1       4.691   5.216  16.782  0.00  0.00    +0.000 NA
ATOM      2  C   UNL     1       3.681   4.308  17.428  0.00  0.00    +0.000 C 
ATOM      3  C   UNL     1       3.476   4.681  18.900  0.00  0.00    +0.000 C 
ATOM      4  N   UNL     1       3.052   6.082  19.024  0.00  0.00    +0.000 N 
ATOM      5  C   UNL     1       2.120   6.401  20.008  0.00  0.00    +0.000 C 
ATOM      6  O   UNL     1       1.598   5.536  20.716  0.00  0.00    +0.000 OA
ATOM      7  C   UNL     1       3.924   7.055  18.345  0.00  0.00    +0.000 C 
ATOM      8  C   UNL     1       4.236   6.642  16.889  0.00  0.00    +0.000 C 
ENDROOT
BRANCH   1   9
ATOM      9  S   UNL     1       6.308   4.889  17.209  0.00  0.00    +0.000 S 
ATOM     10  O   UNL     1       6.820   3.923  16.260  0.00  0.00    +0.000 OA
ATOM     11  O   UNL     1       6.361   4.640  18.635  0.00  0.00    +0.000 OA
BRANCH   9  12
ATOM     12  C   UNL     1       7.123   6.452  16.876  0.00  0.00    +0.000 C 
BRANCH  12  14
ATOM     13  C   UNL     1       8.206   8.407  18.082  0.00  0.00    +0.000 C 
ATOM     14  C   UNL     1       7.787   6.952  18.160  0.00  0.00    +0.000 C 
ENDBRANCH  12  14
ENDBRANCH   9  12
ENDBRANCH   1   9
BRANCH   5  15
ATOM     15  C   UNL     1       1.684   7.858  20.136  0.00  0.00    +0.000 C 
BRANCH  15  16
ATOM     16  O   UNL     1       1.640   8.229  21.508  0.00  0.00    +0.000 OA
BRANCH  16  17
ATOM     17  C   UNL     1       0.803   9.273  21.788  0.00  0.00    +0.000 A 
ATOM     18  C   UNL     1      -0.043   9.109  22.881  0.00  0.00    +0.000 A 
ATOM     19  C   UNL     1      -0.904  10.143  23.271  0.00  0.00    +0.000 A 
ATOM     20  C   UNL     1      -0.922  11.381  22.602  0.00  0.00    +0.000 A 
ATOM     21  C   UNL     1      -0.048  11.523  21.510  0.00  0.00    +0.000 A 
ATOM     22  C   UNL     1       0.800  10.485  21.103  0.00  0.00    +0.000 A 
BRANCH  20  23
ATOM     23  C   UNL     1      -1.815  12.485  23.033  0.00  0.00    +0.000 A 
ATOM     24  C   UNL     1      -1.399  13.828  22.974  0.00  0.00    +0.000 A 
ATOM     25  C   UNL     1      -2.227  14.872  23.403  0.00  0.00    +0.000 A 
ATOM     26  C   UNL     1      -3.500  14.597  23.888  0.00  0.00    +0.000 A 
ATOM     27  C   UNL     1      -3.947  13.282  23.940  0.00  0.00    +0.000 A 
ATOM     28  C   UNL     1      -3.112  12.239  23.522  0.00  0.00    +0.000 A 
ENDBRANCH  20  23
ENDBRANCH  16  17
ENDBRANCH  15  16
ENDBRANCH   5  15
TORSDOF 7
ENDMDL
MODEL 2
REMARK VINA RESULT:      -7.3      3.631     10.811
REMARK  Name = 
REMARK  8 active torsions:
REMARK  status: ('A' for Active; 'I' for Inactive)
REMARK    1  A    between atoms: C_1  and  C_2
REMARK    2  A    between atoms: C_2  and  C_3
REMARK    3  A    between atoms: C_3  and  S_4
REMARK    4  A    between atoms: S_4  and  N_7
REMARK    5  A    between atoms: C_11  and  C_13
REMARK    6  A    between atoms: C_13  and  O_14
REMARK    7  A    between atoms: O_14  and  C_15
REMARK    8  A    between atoms: C_18  and  C_19
REMARK                            x       y       z     vdW  Elec       q    Type
REMARK                         _______ _______ _______ _____ _____    ______ ____
ROOT
ATOM      1  N   UNL     1      -0.650  10.293  20.502  0.00  0.00    +0.000 NA
ATOM      2  C   UNL     1      -0.336  10.274  19.031  0.00  0.00    +0.000 C 
ATOM      3  C   UNL     1       1.132   9.905  18.794  0.00  0.00    +0.000 C 
ATOM      4  N   UNL     1       1.442   8.601  19.395  0.00  0.00    +0.000 N 
ATOM      5  C   UNL     1       2.317   7.757  18.717  0.00  0.00    +0.000 C 
ATOM      6  O   UNL     1       2.773   8.045  17.608  0.00  0.00    +0.000 OA
ATOM      7  C   UNL     1       1.086   8.476  20.819  0.00  0.00    +0.000 C 
ATOM      8  C   UNL     1      -0.357   8.949  21.103  0.00  0.00    +0.000 C 
ENDROOT
BRANCH   1   9
ATOM      9  S   UNL     1      -0.053  11.655  21.334  0.00  0.00    +0.000 S 
ATOM     10  O   UNL     1      -0.556  12.831  20.655  0.00  0.00    +0.000 OA
ATOM     11  O   UNL     1       1.365  11.467  21.557  0.00  0.00    +0.000 OA
BRANCH   9  12
ATOM     12  C   UNL     1      -0.895  11.547  22.915  0.00  0.00    +0.000 C 
BRANCH  12  14
ATOM     13  C   UNL     1      -3.240  12.343  23.474  0.00  0.00    +0.000 C 
ATOM     14  C   UNL     1      -1.837  12.742  23.061  0.00  0.00    +0.000 C 
ENDBRANCH  12  14
ENDBRANCH   9  12
ENDBRANCH   1   9
BRANCH   5  15
ATOM     15  C   UNL     1       2.639   6.404  19.348  0.00  0.00    +0.000 C 
BRANCH  15  16
ATOM     16  O   UNL     1       4.048   6.214  19.388  0.00  0.00    +0.000 OA
BRANCH  16  17
ATOM     17  C   UNL     1       4.606   5.851  18.194  0.00  0.00    +0.000 A 
ATOM     18  C   UNL     1       4.045   4.743  17.564  0.00  0.00    +0.000 A 
ATOM     19  C   UNL     1       4.522   4.322  16.316  0.00  0.00    +0.000 A 
ATOM     20  C   UNL     1       5.548   5.015  15.646  0.00  0.00    +0.000 A 
ATOM     21  C   UNL     1       6.087   6.137  16.299  0.00  0.00    +0.000 A 
ATOM     22  C   UNL     1       5.628   6.549  17.557  0.00  0.00    +0.000 A 
BRANCH  20  23
ATOM     23  C   UNL     1       6.033   4.585  14.311  0.00  0.00    +0.000 A 
ATOM     24  C   UNL     1       5.295   3.686  13.519  0.00  0.00    +0.000 A 
ATOM     25  C   UNL     1       5.759   3.255  12.271  0.00  0.00    +0.000 A 
ATOM     26  C   UNL     1       6.969   3.728  11.777  0.00  0.00    +0.000 A 
ATOM     27  C   UNL     1       7.712   4.633  12.527  0.00  0.00    +0.000 A 
ATOM     28  C   UNL     1       7.251   5.051  13.780  0.00  0.00    +0.000 A 
ENDBRANCH  20  23
ENDBRANCH  16  17
ENDBRANCH  15  16
ENDBRANCH   5  15
TORSDOF 7
ENDMDL
MODEL 3
REMARK VINA RESULT:      -7.3      6.905      9.481
REMARK  Name = 
REMARK  8 active torsions:
REMARK  status: ('A' for Active; 'I' for Inactive)
REMARK    1  A    between atoms: C_1  and  C_2
REMARK    2  A    between atoms: C_2  and  C_3
REMARK    3  A    between atoms: C_3  and  S_4
REMARK    4  A    between atoms: S_4  and  N_7
REMARK    5  A    between atoms: C_11  and  C_13
REMARK    6  A    between atoms: C_13  and  O_14
REMARK    7  A    between atoms: O_14  and  C_15
REMARK    8  A    between atoms: C_18  and  C_19
REMARK                            x       y       z     vdW  Elec       q    Type
REMARK                         _______ _______ _______ _____ _____    ______ ____
ROOT
ATOM      1  N   UNL     1      10.435  12.994  18.664  0.00  0.00    +0.000 NA
ATOM      2  C   UNL     1      11.047  11.733  19.211  0.00  0.00    +0.000 C 
ATOM      3  C   UNL     1       9.960  10.758  19.674  0.00  0.00    +0.000 C 
ATOM      4  N   UNL     1       9.045  10.440  18.571  0.00  0.00    +0.000 N 
ATOM      5  C   UNL     1       8.555   9.141  18.477  0.00  0.00    +0.000 C 
ATOM      6  O   UNL     1       8.923   8.248  19.246  0.00  0.00    +0.000 OA
ATOM      7  C   UNL     1       8.456  11.611  17.898  0.00  0.00    +0.000 C 
ATOM      8  C   UNL     1       9.523  12.663  17.520  0.00  0.00    +0.000 C 
ENDROOT
BRANCH   1   9
ATOM      9  S   UNL     1       9.827  14.055  19.852  0.00  0.00    +0.000 S 
ATOM     10  O   UNL     1      10.493  13.737  21.097  0.00  0.00    +0.000 OA
ATOM     11  O   UNL     1       8.382  14.066  19.755  0.00  0.00    +0.000 OA
BRANCH   9  12
ATOM     12  C   UNL     1      10.445  15.648  19.304  0.00  0.00    +0.000 C 
BRANCH  12  14
ATOM     13  C   UNL     1      12.002  17.360  20.348  0.00  0.00    +0.000 C 
ATOM     14  C   UNL     1      11.802  15.909  19.958  0.00  0.00    +0.000 C 
ENDBRANCH  12  14
ENDBRANCH   9  12
ENDBRANCH   1   9
BRANCH   5  15
ATOM     15  C   UNL     1       7.600   8.815  17.330  0.00  0.00    +0.000 C 
BRANCH  15  16
ATOM     16  O   UNL     1       7.631   7.419  17.060  0.00  0.00    +0.000 OA
BRANCH  16  17
ATOM     17  C   UNL     1       6.501   6.744  17.431  0.00  0.00    +0.000 A 
ATOM     18  C   UNL     1       6.666   5.748  18.388  0.00  0.00    +0.000 A 
ATOM     19  C   UNL     1       5.559   5.032  18.863  0.00  0.00    +0.000 A 
ATOM     20  C   UNL     1       4.253   5.315  18.421  0.00  0.00    +0.000 A 
ATOM     21  C   UNL     1       4.114   6.335  17.464  0.00  0.00    +0.000 A 
ATOM     22  C   UNL     1       5.221   7.039  16.971  0.00  0.00    +0.000 A 
BRANCH  20  23
ATOM     23  C   UNL     1       3.078   4.576  18.945  0.00  0.00    +0.000 A 
ATOM     24  C   UNL     1       2.319   3.727  18.118  0.00  0.00    +0.000 A 
ATOM     25  C   UNL     1       1.194   3.047  18.599  0.00  0.00    +0.000 A 
ATOM     26  C   UNL     1       0.810   3.188  19.927  0.00  0.00    +0.000 A 
ATOM     27  C   UNL     1       1.551   4.004  20.774  0.00  0.00    +0.000 A 
ATOM     28  C   UNL     1       2.668   4.693  20.287  0.00  0.00    +0.000 A 
ENDBRANCH  20  23
ENDBRANCH  16  17
ENDBRANCH  15  16
ENDBRANCH   5  15
TORSDOF 7
ENDMDL
MODEL 4
REMARK VINA RESULT:      -7.3      3.123      3.846
REMARK  Name = 
REMARK  8 active torsions:
REMARK  status: ('A' for Active; 'I' for Inactive)
REMARK    1  A    between atoms: C_1  and  C_2
REMARK    2  A    between atoms: C_2  and  C_3
REMARK    3  A    between atoms: C_3  and  S_4
REMARK    4  A    between atoms: S_4  and  N_7
REMARK    5  A    between atoms: C_11  and  C_13
REMARK    6  A    between atoms: C_13  and  O_14
REMARK    7  A    between atoms: O_14  and  C_15
REMARK    8  A    between atoms: C_18  and  C_19
REMARK                            x       y       z     vdW  Elec       q    Type
REMARK                         _______ _______ _______ _____ _____    ______ ____
ROOT
ATOM      1  N   UNL     1       5.526   4.758  17.201  0.00  0.00    +0.000 NA
ATOM      2  C   UNL     1       4.586   4.362  18.306  0.00  0.00    +0.000 C 
ATOM      3  C   UNL     1       4.213   5.575  19.165  0.00  0.00    +0.000 C 
ATOM      4  N   UNL     1       3.609   6.629  18.338  0.00  0.00    +0.000 N 
ATOM      5  C   UNL     1       2.565   7.372  18.882  0.00  0.00    +0.000 C 
ATOM      6  O   UNL     1       2.098   7.122  19.996  0.00  0.00    +0.000 OA
ATOM      7  C   UNL     1       4.407   7.030  17.167  0.00  0.00    +0.000 C 
ATOM      8  C   UNL     1       4.889   5.814  16.345  0.00  0.00    +0.000 C 
ENDROOT
BRANCH   1   9
ATOM      9  S   UNL     1       7.129   5.038  17.705  0.00  0.00    +0.000 S 
ATOM     10  O   UNL     1       7.993   4.231  16.869  0.00  0.00    +0.000 OA
ATOM     11  O   UNL     1       7.176   4.938  19.149  0.00  0.00    +0.000 OA
BRANCH   9  12
ATOM     12  C   UNL     1       7.388   6.753  17.247  0.00  0.00    +0.000 C 
BRANCH  12  14
ATOM     13  C   UNL     1       8.331   8.946  18.112  0.00  0.00    +0.000 C 
ATOM     14  C   UNL     1       8.087   7.477  18.398  0.00  0.00    +0.000 C 
ENDBRANCH  12  14
ENDBRANCH   9  12
ENDBRANCH   1   9
BRANCH   5  15
ATOM     15  C   UNL     1       1.942   8.468  18.021  0.00  0.00    +0.000 C 
BRANCH  15  16
ATOM     16  O   UNL     1       0.974   9.183  18.778  0.00  0.00    +0.000 OA
BRANCH  16  17
ATOM     17  C   UNL     1       1.077  10.544  18.691  0.00  0.00    +0.000 A 
ATOM     18  C   UNL     1       0.002  11.276  19.187  0.00  0.00    +0.000 A 
ATOM     19  C   UNL     1       0.037  12.677  19.181  0.00  0.00    +0.000 A 
ATOM     20  C   UNL     1       1.159  13.385  18.712  0.00  0.00    +0.000 A 
ATOM     21  C   UNL     1       2.235  12.620  18.229  0.00  0.00    +0.000 A 
ATOM     22  C   UNL     1       2.196  11.220  18.213  0.00  0.00    +0.000 A 
BRANCH  20  23
ATOM     23  C   UNL     1       1.206  14.868  18.732  0.00  0.00    +0.000 A 
ATOM     24  C   UNL     1       2.429  15.561  18.788  0.00  0.00    +0.000 A 
ATOM     25  C   UNL     1       2.481  16.959  18.834  0.00  0.00    +0.000 A 
ATOM     26  C   UNL     1       1.305  17.699  18.807  0.00  0.00    +0.000 A 
ATOM     27  C   UNL     1       0.081  17.044  18.732  0.00  0.00    +0.000 A 
ATOM     28  C   UNL     1       0.033  15.646  18.699  0.00  0.00    +0.000 A 
ENDBRANCH  20  23
ENDBRANCH  16  17
ENDBRANCH  15  16
ENDBRANCH   5  15
TORSDOF 7
ENDMDL
MODEL 5
REMARK VINA RESULT:      -7.3      7.623      9.928
REMARK  Name = 
REMARK  8 active torsions:
REMARK  status: ('A' for Active; 'I' for Inactive)
REMARK    1  A    between atoms: C_1  and  C_2
REMARK    2  A    between atoms: C_2  and  C_3
REMARK    3  A    between atoms: C_3  and  S_4
REMARK    4  A    between atoms: S_4  and  N_7
REMARK    5  A    between atoms: C_11  and  C_13
REMARK    6  A    between atoms: C_13  and  O_14
REMARK    7  A    between atoms: O_14  and  C_15
REMARK    8  A    between atoms: C_18  and  C_19
REMARK                            x       y       z     vdW  Elec       q    Type
REMARK                         _______ _______ _______ _____ _____    ______ ____
ROOT
ATOM      1  N   UNL     1      10.953  13.228  18.386  0.00  0.00    +0.000 NA
ATOM      2  C   UNL     1      11.467  11.961  19.012  0.00  0.00    +0.000 C 
ATOM      3  C   UNL     1      10.314  11.132  19.589  0.00  0.00    +0.000 C 
ATOM      4  N   UNL     1       9.328  10.819  18.546  0.00  0.00    +0.000 N 
ATOM      5  C   UNL     1       8.716   9.570  18.575  0.00  0.00    +0.000 C 
ATOM      6  O   UNL     1       9.031   8.708  19.400  0.00  0.00    +0.000 OA
ATOM      7  C   UNL     1       8.824  11.986  17.801  0.00  0.00    +0.000 C 
ATOM      8  C   UNL     1       9.968  12.899  17.303  0.00  0.00    +0.000 C 
ENDROOT
BRANCH   1   9
ATOM      9  S   UNL     1      10.496  14.431  19.503  0.00  0.00    +0.000 S 
ATOM     10  O   UNL     1      10.815  13.936  20.826  0.00  0.00    +0.000 OA
ATOM     11  O   UNL     1       9.158  14.876  19.172  0.00  0.00    +0.000 OA
BRANCH   9  12
ATOM     12  C   UNL     1      11.644  15.760  19.136  0.00  0.00    +0.000 C 
BRANCH  12  14
ATOM     13  C   UNL     1      10.978  17.578  17.492  0.00  0.00    +0.000 C 
ATOM     14  C   UNL     1      11.489  16.161  17.669  0.00  0.00    +0.000 C 
ENDBRANCH  12  14
ENDBRANCH   9  12
ENDBRANCH   1   9
BRANCH   5  15
ATOM     15  C   UNL     1       7.689   9.250  17.491  0.00  0.00    +0.000 C 
BRANCH  15  16
ATOM     16  O   UNL     1       7.846   7.903  17.062  0.00  0.00    +0.000 OA
BRANCH  16  17
ATOM     17  C   UNL     1       6.866   7.052  17.492  0.00  0.00    +0.000 A 
ATOM     18  C   UNL     1       5.602   7.241  16.941  0.00  0.00    +0.000 A 
ATOM     19  C   UNL     1       4.545   6.389  17.288  0.00  0.00    +0.000 A 
ATOM     20  C   UNL     1       4.728   5.306  18.168  0.00  0.00    +0.000 A 
ATOM     21  C   UNL     1       6.018   5.132  18.699  0.00  0.00    +0.000 A 
ATOM     22  C   UNL     1       7.073   5.993  18.371  0.00  0.00    +0.000 A 
BRANCH  20  23
ATOM     23  C   UNL     1       3.614   4.388  18.513  0.00  0.00    +0.000 A 
ATOM     24  C   UNL     1       2.419   4.375  17.770  0.00  0.00    +0.000 A 
ATOM     25  C   UNL     1       1.355   3.531  18.106  0.00  0.00    +0.000 A 
ATOM     26  C   UNL     1       1.468   2.665  19.187  0.00  0.00    +0.000 A 
ATOM     27  C   UNL     1       2.643   2.639  19.929  0.00  0.00    +0.000 A 
ATOM     28  C   UNL     1       3.701   3.494  19.598  0.00  0.00    +0.000 A 
ENDBRANCH  20  23
ENDBRANCH  16  17
ENDBRANCH  15  16
ENDBRANCH   5  15
TORSDOF 7
ENDMDL
MODEL 6
REMARK VINA RESULT:      -7.2      2.171      2.824
REMARK  Name = 
REMARK  8 active torsions:
REMARK  status: ('A' for Active; 'I' for Inactive)
REMARK    1  A    between atoms: C_1  and  C_2
REMARK    2  A    between atoms: C_2  and  C_3
REMARK    3  A    between atoms: C_3  and  S_4
REMARK    4  A    between atoms: S_4  and  N_7
REMARK    5  A    between atoms: C_11  and  C_13
REMARK    6  A    between atoms: C_13  and  O_14
REMARK    7  A    between atoms: O_14  and  C_15
REMARK    8  A    between atoms: C_18  and  C_19
REMARK                            x       y       z     vdW  Elec       q    Type
REMARK                         _______ _______ _______ _____ _____    ______ ____
ROOT
ATOM      1  N   UNL     1       5.478   4.781  16.925  0.00  0.00    +0.000 NA
ATOM      2  C   UNL     1       4.874   3.492  17.412  0.00  0.00    +0.000 C 
ATOM      3  C   UNL     1       4.417   3.621  18.868  0.00  0.00    +0.000 C 
ATOM      4  N   UNL     1       3.453   4.719  19.014  0.00  0.00    +0.000 N 
ATOM      5  C   UNL     1       2.396   4.552  19.903  0.00  0.00    +0.000 C 
ATOM      6  O   UNL     1       2.214   3.492  20.507  0.00  0.00    +0.000 OA
ATOM      7  C   UNL     1       3.908   6.016  18.482  0.00  0.00    +0.000 C 
ATOM      8  C   UNL     1       4.478   5.892  17.051  0.00  0.00    +0.000 C 
ENDROOT
BRANCH   1   9
ATOM      9  S   UNL     1       7.049   5.088  17.511  0.00  0.00    +0.000 S 
ATOM     10  O   UNL     1       7.974   4.347  16.679  0.00  0.00    +0.000 OA
ATOM     11  O   UNL     1       7.038   4.924  18.950  0.00  0.00    +0.000 OA
BRANCH   9  12
ATOM     12  C   UNL     1       7.269   6.830  17.140  0.00  0.00    +0.000 C 
BRANCH  12  14
ATOM     13  C   UNL     1       8.313   8.961  18.044  0.00  0.00    +0.000 C 
ATOM     14  C   UNL     1       8.021   7.494  18.294  0.00  0.00    +0.000 C 
ENDBRANCH  12  14
ENDBRANCH   9  12
ENDBRANCH   1   9
BRANCH   5  15
ATOM     15  C   UNL     1       1.398   5.698  20.053  0.00  0.00    +0.000 C 
BRANCH  15  16
ATOM     16  O   UNL     1       1.814   6.565  21.101  0.00  0.00    +0.000 OA
BRANCH  16  17
ATOM     17  C   UNL     1       1.482   7.878  20.916  0.00  0.00    +0.000 A 
ATOM     18  C   UNL     1       1.601   8.367  19.618  0.00  0.00    +0.000 A 
ATOM     19  C   UNL     1       1.242   9.688  19.323  0.00  0.00    +0.000 A 
ATOM     20  C   UNL     1       0.722  10.548  20.308  0.00  0.00    +0.000 A 
ATOM     21  C   UNL     1       0.600  10.025  21.607  0.00  0.00    +0.000 A 
ATOM     22  C   UNL     1       0.978   8.711  21.911  0.00  0.00    +0.000 A 
BRANCH  20  23
ATOM     23  C   UNL     1       0.315  11.940  19.989  0.00  0.00    +0.000 A 
ATOM     24  C   UNL     1      -0.104  12.301  18.695  0.00  0.00    +0.000 A 
ATOM     25  C   UNL     1      -0.464  13.617  18.381  0.00  0.00    +0.000 A 
ATOM     26  C   UNL     1      -0.427  14.602  19.360  0.00  0.00    +0.000 A 
ATOM     27  C   UNL     1      -0.036  14.272  20.653  0.00  0.00    +0.000 A 
ATOM     28  C   UNL     1       0.335  12.958  20.961  0.00  0.00    +0.000 A 
ENDBRANCH  20  23
ENDBRANCH  16  17
ENDBRANCH  15  16
ENDBRANCH   5  15
TORSDOF 7
ENDMDL
MODEL 7
REMARK VINA RESULT:      -7.1      6.364      8.749
REMARK  Name = 
REMARK  8 active torsions:
REMARK  status: ('A' for Active; 'I' for Inactive)
REMARK    1  A    between atoms: C_1  and  C_2
REMARK    2  A    between atoms: C_2  and  C_3
REMARK    3  A    between atoms: C_3  and  S_4
REMARK    4  A    between atoms: S_4  and  N_7
REMARK    5  A    between atoms: C_11  and  C_13
REMARK    6  A    between atoms: C_13  and  O_14
REMARK    7  A    between atoms: O_14  and  C_15
REMARK    8  A    between atoms: C_18  and  C_19
REMARK                            x       y       z     vdW  Elec       q    Type
REMARK                         _______ _______ _______ _____ _____    ______ ____
ROOT
ATOM      1  N   UNL     1       3.731   4.201  18.888  0.00  0.00    +0.000 NA
ATOM      2  C   UNL     1       5.016   3.639  18.345  0.00  0.00    +0.000 C 
ATOM      3  C   UNL     1       5.527   4.483  17.172  0.00  0.00    +0.000 C 
ATOM      4  N   UNL     1       5.719   5.880  17.584  0.00  0.00    +0.000 N 
ATOM      5  C   UNL     1       6.803   6.576  17.059  0.00  0.00    +0.000 C 
ATOM      6  O   UNL     1       7.632   6.033  16.324  0.00  0.00    +0.000 OA
ATOM      7  C   UNL     1       4.545   6.504  18.218  0.00  0.00    +0.000 C 
ATOM      8  C   UNL     1       3.943   5.619  19.333  0.00  0.00    +0.000 C 
ENDROOT
BRANCH   1   9
ATOM      9  S   UNL     1       2.362   3.894  17.921  0.00  0.00    +0.000 S 
ATOM     10  O   UNL     1       2.805   3.125  16.777  0.00  0.00    +0.000 OA
ATOM     11  O   UNL     1       1.634   5.134  17.756  0.00  0.00    +0.000 OA
BRANCH   9  12
ATOM     12  C   UNL     1       1.390   2.800  18.959  0.00  0.00    +0.000 C 
BRANCH  12  14
ATOM     13  C   UNL     1       1.424   2.859  21.498  0.00  0.00    +0.000 C 
ATOM     14  C   UNL     1       2.177   2.492  20.234  0.00  0.00    +0.000 C 
ENDBRANCH  12  14
ENDBRANCH   9  12
ENDBRANCH   1   9
BRANCH   5  15
ATOM     15  C   UNL     1       6.997   8.029  17.487  0.00  0.00    +0.000 C 
BRANCH  15  16
ATOM     16  O   UNL     1       8.203   8.155  18.230  0.00  0.00    +0.000 OA
BRANCH  16  17
ATOM     17  C   UNL     1       8.615   9.444  18.430  0.00  0.00    +0.000 A 
ATOM     18  C   UNL     1       8.121  10.392  17.539  0.00  0.00    +0.000 A 
ATOM     19  C   UNL     1       8.452  11.745  17.691  0.00  0.00    +0.000 A 
ATOM     20  C   UNL     1       9.256  12.193  18.755  0.00  0.00    +0.000 A 
ATOM     21  C   UNL     1       9.730  11.215  19.647  0.00  0.00    +0.000 A 
ATOM     22  C   UNL     1       9.419   9.858  19.487  0.00  0.00    +0.000 A 
BRANCH  20  23
ATOM     23  C   UNL     1       9.583  13.630  18.931  0.00  0.00    +0.000 A 
ATOM     24  C   UNL     1       8.847  14.446  19.811  0.00  0.00    +0.000 A 
ATOM     25  C   UNL     1       9.133  15.807  19.962  0.00  0.00    +0.000 A 
ATOM     26  C   UNL     1      10.176  16.383  19.247  0.00  0.00    +0.000 A 
ATOM     27  C   UNL     1      10.935  15.599  18.385  0.00  0.00    +0.000 A 
ATOM     28  C   UNL     1      10.638  14.241  18.227  0.00  0.00    +0.000 A 
ENDBRANCH  20  23
ENDBRANCH  16  17
ENDBRANCH  15  16
ENDBRANCH   5  15
TORSDOF 7
ENDMDL
MODEL 8
REMARK VINA RESULT:      -7.1      2.509      3.016
REMARK  Name = 
REMARK  8 active torsions:
REMARK  status: ('A' for Active; 'I' for Inactive)
REMARK    1  A    between atoms: C_1  and  C_2
REMARK    2  A    between atoms: C_2  and  C_3
REMARK    3  A    between atoms: C_3  and  S_4
REMARK    4  A    between atoms: S_4  and  N_7
REMARK    5  A    between atoms: C_11  and  C_13
REMARK    6  A    between atoms: C_13  and  O_14
REMARK    7  A    between atoms: O_14  and  C_15
REMARK    8  A    between atoms: C_18  and  C_19
REMARK                            x       y       z     vdW  Elec       q    Type
REMARK                         _______ _______ _______ _____ _____    ______ ____
ROOT
ATOM      1  N   UNL     1       5.560   4.685  17.332  0.00  0.00    +0.000 NA
ATOM      2  C   UNL     1       4.614   4.304  18.439  0.00  0.00    +0.000 C 
ATOM      3  C   UNL     1       4.182   5.539  19.235  0.00  0.00    +0.000 C 
ATOM      4  N   UNL     1       3.555   6.531  18.352  0.00  0.00    +0.000 N 
ATOM      5  C   UNL     1       2.475   7.258  18.843  0.00  0.00    +0.000 C 
ATOM      6  O   UNL     1       1.996   7.041  19.960  0.00  0.00    +0.000 OA
ATOM      7  C   UNL     1       4.359   6.910  17.177  0.00  0.00    +0.000 C 
ATOM      8  C   UNL     1       4.901   5.677  16.419  0.00  0.00    +0.000 C 
ENDROOT
BRANCH   1   9
ATOM      9  S   UNL     1       7.142   5.047  17.850  0.00  0.00    +0.000 S 
ATOM     10  O   UNL     1       8.044   4.180  17.123  0.00  0.00    +0.000 OA
ATOM     11  O   UNL     1       7.148   5.091  19.298  0.00  0.00    +0.000 OA
BRANCH   9  12
ATOM     12  C   UNL     1       7.383   6.714  17.231  0.00  0.00    +0.000 C 
BRANCH  12  14
ATOM     13  C   UNL     1       8.169   9.020  17.946  0.00  0.00    +0.000 C 
ATOM     14  C   UNL     1       8.078   7.549  18.306  0.00  0.00    +0.000 C 
ENDBRANCH  12  14
ENDBRANCH   9  12
ENDBRANCH   1   9
BRANCH   5  15
ATOM     15  C   UNL     1       1.828   8.291  17.923  0.00  0.00    +0.000 C 
BRANCH  15  16
ATOM     16  O   UNL     1       2.621   9.471  17.890  0.00  0.00    +0.000 OA
BRANCH  16  17
ATOM     17  C   UNL     1       1.941  10.620  18.185  0.00  0.00    +0.000 A 
ATOM     18  C   UNL     1       0.661  10.462  18.708  0.00  0.00    +0.000 A 
ATOM     19  C   UNL     1      -0.095  11.580  19.081  0.00  0.00    +0.000 A 
ATOM     20  C   UNL     1       0.419  12.886  18.975  0.00  0.00    +0.000 A 
ATOM     21  C   UNL     1       1.719  13.016  18.457  0.00  0.00    +0.000 A 
ATOM     22  C   UNL     1       2.470  11.902  18.062  0.00  0.00    +0.000 A 
BRANCH  20  23
ATOM     23  C   UNL     1      -0.372  14.069  19.397  0.00  0.00    +0.000 A 
ATOM     24  C   UNL     1      -0.159  15.335  18.821  0.00  0.00    +0.000 A 
ATOM     25  C   UNL     1      -0.883  16.461  19.233  0.00  0.00    +0.000 A 
ATOM     26  C   UNL     1      -1.851  16.342  20.222  0.00  0.00    +0.000 A 
ATOM     27  C   UNL     1      -2.099  15.100  20.797  0.00  0.00    +0.000 A 
ATOM     28  C   UNL     1      -1.364  13.980  20.392  0.00  0.00    +0.000 A 
ENDBRANCH  20  23
ENDBRANCH  16  17
ENDBRANCH  15  16
ENDBRANCH   5  15
TORSDOF 7
ENDMDL
MODEL 9
REMARK VINA RESULT:      -7.1      6.809      9.477
REMARK  Name = 
REMARK  8 active torsions:
REMARK  status: ('A' for Active; 'I' for Inactive)
REMARK    1  A    between atoms: C_1  and  C_2
REMARK    2  A    between atoms: C_2  and  C_3
REMARK    3  A    between atoms: C_3  and  S_4
REMARK    4  A    between atoms: S_4  and  N_7
REMARK    5  A    between atoms: C_11  and  C_13
REMARK    6  A    between atoms: C_13  and  O_14
REMARK    7  A    between atoms: O_14  and  C_15
REMARK    8  A    between atoms: C_18  and  C_19
REMARK                            x       y       z     vdW  Elec       q    Type
REMARK                         _______ _______ _______ _____ _____    ______ ____
ROOT
ATOM      1  N   UNL     1      10.250  13.167  18.507  0.00  0.00    +0.000 NA
ATOM      2  C   UNL     1      10.939  11.951  19.062  0.00  0.00    +0.000 C 
ATOM      3  C   UNL     1       9.916  10.935  19.580  0.00  0.00    +0.000 C 
ATOM      4  N   UNL     1       8.984  10.547  18.513  0.00  0.00    +0.000 N 
ATOM      5  C   UNL     1       8.556   9.224  18.464  0.00  0.00    +0.000 C 
ATOM      6  O   UNL     1       8.990   8.369  19.241  0.00  0.00    +0.000 OA
ATOM      7  C   UNL     1       8.320  11.673  17.833  0.00  0.00    +0.000 C 
ATOM      8  C   UNL     1       9.322  12.766  17.399  0.00  0.00    +0.000 C 
ENDROOT
BRANCH   1   9
ATOM      9  S   UNL     1       9.627  14.225  19.689  0.00  0.00    +0.000 S 
ATOM     10  O   UNL     1       8.863  13.427  20.624  0.00  0.00    +0.000 OA
ATOM     11  O   UNL     1       9.036  15.363  19.015  0.00  0.00    +0.000 OA
BRANCH   9  12
ATOM     12  C   UNL     1      11.109  14.776  20.538  0.00  0.00    +0.000 C 
BRANCH  12  14
ATOM     13  C   UNL     1      11.569  17.274  20.557  0.00  0.00    +0.000 C 
ATOM     14  C   UNL     1      11.697  15.973  19.789  0.00  0.00    +0.000 C 
ENDBRANCH  12  14
ENDBRANCH   9  12
ENDBRANCH   1   9
BRANCH   5  15
ATOM     15  C   UNL     1       7.585   8.826  17.355  0.00  0.00    +0.000 C 
BRANCH  15  16
ATOM     16  O   UNL     1       7.649   7.422  17.140  0.00  0.00    +0.000 OA
BRANCH  16  17
ATOM     17  C   UNL     1       6.513   6.742  17.483  0.00  0.00    +0.000 A 
ATOM     18  C   UNL     1       6.628   5.846  18.542  0.00  0.00    +0.000 A 
ATOM     19  C   UNL     1       5.508   5.137  18.994  0.00  0.00    +0.000 A 
ATOM     20  C   UNL     1       4.235   5.328  18.424  0.00  0.00    +0.000 A 
ATOM     21  C   UNL     1       4.145   6.248  17.366  0.00  0.00    +0.000 A 
ATOM     22  C   UNL     1       5.267   6.944  16.897  0.00  0.00    +0.000 A 
BRANCH  20  23
ATOM     23  C   UNL     1       3.044   4.596  18.922  0.00  0.00    +0.000 A 
ATOM     24  C   UNL     1       2.506   4.855  20.196  0.00  0.00    +0.000 A 
ATOM     25  C   UNL     1       1.398   4.151  20.683  0.00  0.00    +0.000 A 
ATOM     26  C   UNL     1       0.791   3.180  19.896  0.00  0.00    +0.000 A 
ATOM     27  C   UNL     1       1.287   2.915  18.625  0.00  0.00    +0.000 A 
ATOM     28  C   UNL     1       2.402   3.612  18.147  0.00  0.00    +0.000 A 
ENDBRANCH  20  23
ENDBRANCH  16  17
ENDBRANCH  15  16
ENDBRANCH   5  15
TORSDOF 7
ENDMDL
