MODEL 1
REMARK VINA RESULT:      -9.1      0.000      0.000
REMARK  Name = 
REMARK  7 active torsions:
REMARK  status: ('A' for Active; 'I' for Inactive)
REMARK    1  A    between atoms: C_2  and  C_3
REMARK    2  A    between atoms: C_2  and  C_20
REMARK    3  A    between atoms: C_4  and  C_5
REMARK    4  A    between atoms: C_8  and  N_9
REMARK    5  A    between atoms: C_15  and  N_16
REMARK    6  A    between atoms: C_23  and  S_24
REMARK    7  A    between atoms: S_24  and  N_27
REMARK                            x       y       z     vdW  Elec       q    Type
REMARK                         _______ _______ _______ _____ _____    ______ ____
ROOT
ATOM      1  C   UNL     1       7.436   8.120  17.217  0.00  0.00    +0.000 C 
ATOM      2  C   UNL     1       8.207   8.496  18.244  0.00  0.00    +0.000 C 
ENDROOT
BRANCH   2   3
ATOM      3  C   UNL     1       8.620   9.882  18.379  0.00  0.00    +0.000 A 
ATOM      4  C   UNL     1       8.140  10.820  17.476  0.00  0.00    +0.000 A 
ATOM      5  C   UNL     1       8.545  12.154  17.573  0.00  0.00    +0.000 A 
ATOM      6  C   UNL     1       9.404  12.639  18.585  0.00  0.00    +0.000 A 
ATOM      7  C   UNL     1       9.876  11.640  19.470  0.00  0.00    +0.000 A 
ATOM      8  C   UNL     1       9.508  10.282  19.369  0.00  0.00    +0.000 A 
BRANCH   6   9
ATOM      9  N   UNL     1       9.721  13.990  18.581  0.00  0.00    +0.000 N 
ATOM     10  C   UNL     1       8.783  14.989  19.128  0.00  0.00    +0.000 C 
ATOM     11  C   UNL     1       8.528  16.067  18.075  0.00  0.00    +0.000 C 
ATOM     12  C   UNL     1       9.841  16.704  17.627  0.00  0.00    +0.000 C 
ATOM     13  C   UNL     1      10.835  15.644  17.166  0.00  0.00    +0.000 C 
ATOM     14  C   UNL     1      11.028  14.547  18.215  0.00  0.00    +0.000 C 
ENDBRANCH   6   9
BRANCH   7  15
ATOM     15  N   UNL     1      10.736  11.933  20.602  0.00  0.00    +0.000 N 
ATOM     16  O   UNL     1      10.196  12.327  21.648  0.00  0.00    +0.000 OA
ATOM     17  O   UNL     1      11.947  11.723  20.455  0.00  0.00    +0.000 OA
ENDBRANCH   7  15
ENDBRANCH   2   3
BRANCH   1  19
ATOM     18  O   UNL     1       7.612   5.886  16.460  0.00  0.00    +0.000 OA
ATOM     19  C   UNL     1       7.000   6.705  17.139  0.00  0.00    +0.000 C 
BRANCH  19  20
ATOM     20  C   UNL     1       5.769   6.301  17.866  0.00  0.00    +0.000 A 
ATOM     21  C   UNL     1       4.509   6.881  17.646  0.00  0.00    +0.000 A 
ATOM     22  C   UNL     1       3.406   6.454  18.387  0.00  0.00    +0.000 A 
ATOM     23  C   UNL     1       3.557   5.444  19.347  0.00  0.00    +0.000 A 
ATOM     24  C   UNL     1       4.801   4.850  19.566  0.00  0.00    +0.000 A 
ATOM     25  C   UNL     1       5.904   5.285  18.830  0.00  0.00    +0.000 A 
BRANCH  23  26
ATOM     26  S   UNL     1       2.173   4.968  20.352  0.00  0.00    +0.000 S 
ATOM     27  O   UNL     1       2.710   4.369  21.556  0.00  0.00    +0.000 OA
ATOM     28  O   UNL     1       1.265   6.096  20.419  0.00  0.00    +0.000 OA
BRANCH  26  29
ATOM     29  N   UNL     1       1.390   3.742  19.463  0.00  0.00    +0.000 NA
ATOM     30  C   UNL     1       1.679   2.334  19.821  0.00  0.00    +0.000 C 
ATOM     31  C   UNL     1       2.685   1.857  18.794  0.00  0.00    +0.000 C 
ATOM     32  C   UNL     1       2.272   2.575  17.526  0.00  0.00    +0.000 C 
ATOM     33  C   UNL     1       1.584   3.859  17.985  0.00  0.00    +0.000 C 
ENDBRANCH  26  29
ENDBRANCH  23  26
ENDBRANCH  19  20
ENDBRANCH   1  19
TORSDOF 7
ENDMDL
MODEL 2
REMARK VINA RESULT:      -9.0      0.316      1.052
REMARK  Name = 
REMARK  7 active torsions:
REMARK  status: ('A' for Active; 'I' for Inactive)
REMARK    1  A    between atoms: C_2  and  C_3
REMARK    2  A    between atoms: C_2  and  C_20
REMARK    3  A    between atoms: C_4  and  C_5
REMARK    4  A    between atoms: C_8  and  N_9
REMARK    5  A    between atoms: C_15  and  N_16
REMARK    6  A    between atoms: C_23  and  S_24
REMARK    7  A    between atoms: S_24  and  N_27
REMARK                            x       y       z     vdW  Elec       q    Type
REMARK                         _______ _______ _______ _____ _____    ______ ____
ROOT
ATOM      1  C   UNL     1       7.671   7.985  17.124  0.00  0.00    +0.000 C 
ATOM      2  C   UNL     1       8.119   8.460  18.293  0.00  0.00    +0.000 C 
ENDROOT
BRANCH   2   3
ATOM      3  C   UNL     1       8.573   9.836  18.396  0.00  0.00    +0.000 A 
ATOM      4  C   UNL     1       8.080  10.778  17.506  0.00  0.00    +0.000 A 
ATOM      5  C   UNL     1       8.523  12.101  17.573  0.00  0.00    +0.000 A 
ATOM      6  C   UNL     1       9.438  12.572  18.542  0.00  0.00    +0.000 A 
ATOM      7  C   UNL     1       9.921  11.569  19.414  0.00  0.00    +0.000 A 
ATOM      8  C   UNL     1       9.513  10.220  19.343  0.00  0.00    +0.000 A 
BRANCH   6   9
ATOM      9  N   UNL     1       9.789  13.914  18.510  0.00  0.00    +0.000 N 
ATOM     10  C   UNL     1       8.879  14.948  19.040  0.00  0.00    +0.000 C 
ATOM     11  C   UNL     1       8.649  16.012  17.966  0.00  0.00    +0.000 C 
ATOM     12  C   UNL     1       9.978  16.605  17.504  0.00  0.00    +0.000 C 
ATOM     13  C   UNL     1      10.942  15.511  17.062  0.00  0.00    +0.000 C 
ATOM     14  C   UNL     1      11.110  14.431  18.132  0.00  0.00    +0.000 C 
ENDBRANCH   6   9
BRANCH   7  15
ATOM     15  N   UNL     1      10.837  11.848  20.505  0.00  0.00    +0.000 N 
ATOM     16  O   UNL     1      12.046  11.645  20.308  0.00  0.00    +0.000 OA
ATOM     17  O   UNL     1      10.348  12.315  21.542  0.00  0.00    +0.000 OA
ENDBRANCH   7  15
ENDBRANCH   2   3
BRANCH   1  19
ATOM     18  O   UNL     1       7.689   5.758  16.326  0.00  0.00    +0.000 OA
ATOM     19  C   UNL     1       7.175   6.589  17.070  0.00  0.00    +0.000 C 
BRANCH  19  20
ATOM     20  C   UNL     1       6.003   6.219  17.904  0.00  0.00    +0.000 A 
ATOM     21  C   UNL     1       6.048   5.260  18.929  0.00  0.00    +0.000 A 
ATOM     22  C   UNL     1       4.894   4.959  19.654  0.00  0.00    +0.000 A 
ATOM     23  C   UNL     1       3.692   5.618  19.361  0.00  0.00    +0.000 A 
ATOM     24  C   UNL     1       3.637   6.584  18.355  0.00  0.00    +0.000 A 
ATOM     25  C   UNL     1       4.790   6.876  17.625  0.00  0.00    +0.000 A 
BRANCH  23  26
ATOM     26  S   UNL     1       2.206   5.167  20.221  0.00  0.00    +0.000 S 
ATOM     27  O   UNL     1       2.599   4.331  21.336  0.00  0.00    +0.000 OA
ATOM     28  O   UNL     1       1.429   6.373  20.427  0.00  0.00    +0.000 OA
BRANCH  26  29
ATOM     29  N   UNL     1       1.344   4.194  19.118  0.00  0.00    +0.000 NA
ATOM     30  C   UNL     1       0.892   2.861  19.576  0.00  0.00    +0.000 C 
ATOM     31  C   UNL     1       1.897   1.879  19.011  0.00  0.00    +0.000 C 
ATOM     32  C   UNL     1       2.271   2.479  17.671  0.00  0.00    +0.000 C 
ATOM     33  C   UNL     1       2.057   3.985  17.820  0.00  0.00    +0.000 C 
ENDBRANCH  26  29
ENDBRANCH  23  26
ENDBRANCH  19  20
ENDBRANCH   1  19
TORSDOF 7
ENDMDL
MODEL 3
REMARK VINA RESULT:      -8.9      0.551      1.476
REMARK  Name = 
REMARK  7 active torsions:
REMARK  status: ('A' for Active; 'I' for Inactive)
REMARK    1  A    between atoms: C_2  and  C_3
REMARK    2  A    between atoms: C_2  and  C_20
REMARK    3  A    between atoms: C_4  and  C_5
REMARK    4  A    between atoms: C_8  and  N_9
REMARK    5  A    between atoms: C_15  and  N_16
REMARK    6  A    between atoms: C_23  and  S_24
REMARK    7  A    between atoms: S_24  and  N_27
REMARK                            x       y       z     vdW  Elec       q    Type
REMARK                         _______ _______ _______ _____ _____    ______ ____
ROOT
ATOM      1  C   UNL     1       7.498   7.913  17.289  0.00  0.00    +0.000 C 
ATOM      2  C   UNL     1       8.220   8.330  18.336  0.00  0.00    +0.000 C 
ENDROOT
BRANCH   2   3
ATOM      3  C   UNL     1       8.620   9.722  18.439  0.00  0.00    +0.000 A 
ATOM      4  C   UNL     1       8.141  10.634  17.510  0.00  0.00    +0.000 A 
ATOM      5  C   UNL     1       8.534  11.973  17.577  0.00  0.00    +0.000 A 
ATOM      6  C   UNL     1       9.381  12.490  18.582  0.00  0.00    +0.000 A 
ATOM      7  C   UNL     1       9.854  11.517  19.495  0.00  0.00    +0.000 A 
ATOM      8  C   UNL     1       9.498  10.154  19.425  0.00  0.00    +0.000 A 
BRANCH   6   9
ATOM      9  N   UNL     1       9.687  13.843  18.546  0.00  0.00    +0.000 N 
ATOM     10  C   UNL     1      10.940  14.320  17.929  0.00  0.00    +0.000 C 
ATOM     11  C   UNL     1      11.691  15.196  18.932  0.00  0.00    +0.000 C 
ATOM     12  C   UNL     1      10.811  16.353  19.400  0.00  0.00    +0.000 C 
ATOM     13  C   UNL     1       9.477  15.844  19.935  0.00  0.00    +0.000 C 
ATOM     14  C   UNL     1       8.774  14.924  18.936  0.00  0.00    +0.000 C 
ENDBRANCH   6   9
BRANCH   7  15
ATOM     15  N   UNL     1      10.703  11.845  20.625  0.00  0.00    +0.000 N 
ATOM     16  O   UNL     1      11.930  11.713  20.482  0.00  0.00    +0.000 OA
ATOM     17  O   UNL     1      10.142  12.279  21.640  0.00  0.00    +0.000 OA
ENDBRANCH   7  15
ENDBRANCH   2   3
BRANCH   1  19
ATOM     18  O   UNL     1       7.639   5.681  16.519  0.00  0.00    +0.000 OA
ATOM     19  C   UNL     1       7.071   6.494  17.242  0.00  0.00    +0.000 C 
BRANCH  19  20
ATOM     20  C   UNL     1       5.902   6.077  18.059  0.00  0.00    +0.000 A 
ATOM     21  C   UNL     1       5.931   5.010  18.972  0.00  0.00    +0.000 A 
ATOM     22  C   UNL     1       4.780   4.672  19.686  0.00  0.00    +0.000 A 
ATOM     23  C   UNL     1       3.599   5.402  19.495  0.00  0.00    +0.000 A 
ATOM     24  C   UNL     1       3.561   6.473  18.602  0.00  0.00    +0.000 A 
ATOM     25  C   UNL     1       4.710   6.802  17.881  0.00  0.00    +0.000 A 
BRANCH  23  26
ATOM     26  S   UNL     1       2.114   4.912  20.335  0.00  0.00    +0.000 S 
ATOM     27  O   UNL     1       2.518   4.193  21.525  0.00  0.00    +0.000 OA
ATOM     28  O   UNL     1       1.249   6.072  20.420  0.00  0.00    +0.000 OA
BRANCH  26  29
ATOM     29  N   UNL     1       1.365   3.800  19.282  0.00  0.00    +0.000 NA
ATOM     30  C   UNL     1       1.454   2.360  19.616  0.00  0.00    +0.000 C 
ATOM     31  C   UNL     1       2.558   1.811  18.736  0.00  0.00    +0.000 C 
ATOM     32  C   UNL     1       2.422   2.605  17.452  0.00  0.00    +0.000 C 
ATOM     33  C   UNL     1       1.800   3.940  17.858  0.00  0.00    +0.000 C 
ENDBRANCH  26  29
ENDBRANCH  23  26
ENDBRANCH  19  20
ENDBRANCH   1  19
TORSDOF 7
ENDMDL
MODEL 4
REMARK VINA RESULT:      -8.8      5.955      9.093
REMARK  Name = 
REMARK  7 active torsions:
REMARK  status: ('A' for Active; 'I' for Inactive)
REMARK    1  A    between atoms: C_2  and  C_3
REMARK    2  A    between atoms: C_2  and  C_20
REMARK    3  A    between atoms: C_4  and  C_5
REMARK    4  A    between atoms: C_8  and  N_9
REMARK    5  A    between atoms: C_15  and  N_16
REMARK    6  A    between atoms: C_23  and  S_24
REMARK    7  A    between atoms: S_24  and  N_27
REMARK                            x       y       z     vdW  Elec       q    Type
REMARK                         _______ _______ _______ _____ _____    ______ ____
ROOT
ATOM      1  C   UNL     1       1.073   6.725  20.597  0.00  0.00    +0.000 C 
ATOM      2  C   UNL     1       1.540   7.746  21.326  0.00  0.00    +0.000 C 
ENDROOT
BRANCH   2   3
ATOM      3  C   UNL     1       0.723   8.928  21.534  0.00  0.00    +0.000 A 
ATOM      4  C   UNL     1       0.337   9.265  22.824  0.00  0.00    +0.000 A 
ATOM      5  C   UNL     1      -0.469  10.384  23.042  0.00  0.00    +0.000 A 
ATOM      6  C   UNL     1      -0.901  11.251  22.013  0.00  0.00    +0.000 A 
ATOM      7  C   UNL     1      -0.494  10.854  20.716  0.00  0.00    +0.000 A 
ATOM      8  C   UNL     1       0.291   9.709  20.469  0.00  0.00    +0.000 A 
BRANCH   6   9
ATOM      9  N   UNL     1      -1.689  12.338  22.361  0.00  0.00    +0.000 N 
ATOM     10  C   UNL     1      -1.091  13.672  22.567  0.00  0.00    +0.000 C 
ATOM     11  C   UNL     1      -1.505  14.200  23.941  0.00  0.00    +0.000 C 
ATOM     12  C   UNL     1      -3.026  14.232  24.069  0.00  0.00    +0.000 C 
ATOM     13  C   UNL     1      -3.632  12.871  23.747  0.00  0.00    +0.000 C 
ATOM     14  C   UNL     1      -3.156  12.340  22.394  0.00  0.00    +0.000 C 
ENDBRANCH   6   9
BRANCH   7  15
ATOM     15  N   UNL     1      -0.797  11.627  19.525  0.00  0.00    +0.000 N 
ATOM     16  O   UNL     1      -1.793  11.295  18.862  0.00  0.00    +0.000 OA
ATOM     17  O   UNL     1      -0.063  12.593  19.282  0.00  0.00    +0.000 OA
ENDBRANCH   7  15
ENDBRANCH   2   3
BRANCH   1  19
ATOM     18  O   UNL     1       1.920   4.628  21.291  0.00  0.00    +0.000 OA
ATOM     19  C   UNL     1       1.920   5.517  20.445  0.00  0.00    +0.000 C 
BRANCH  19  20
ATOM     20  C   UNL     1       2.813   5.422  19.262  0.00  0.00    +0.000 A 
ATOM     21  C   UNL     1       3.270   4.206  18.728  0.00  0.00    +0.000 A 
ATOM     22  C   UNL     1       4.124   4.207  17.623  0.00  0.00    +0.000 A 
ATOM     23  C   UNL     1       4.520   5.421  17.046  0.00  0.00    +0.000 A 
ATOM     24  C   UNL     1       4.062   6.635  17.559  0.00  0.00    +0.000 A 
ATOM     25  C   UNL     1       3.217   6.632  18.669  0.00  0.00    +0.000 A 
BRANCH  23  26
ATOM     26  S   UNL     1       5.679   5.422  15.702  0.00  0.00    +0.000 S 
ATOM     27  O   UNL     1       5.610   4.115  15.082  0.00  0.00    +0.000 OA
ATOM     28  O   UNL     1       5.461   6.629  14.929  0.00  0.00    +0.000 OA
BRANCH  26  29
ATOM     29  N   UNL     1       7.207   5.567  16.444  0.00  0.00    +0.000 NA
ATOM     30  C   UNL     1       7.540   4.623  17.534  0.00  0.00    +0.000 C 
ATOM     31  C   UNL     1       7.309   5.393  18.818  0.00  0.00    +0.000 C 
ATOM     32  C   UNL     1       7.718   6.809  18.467  0.00  0.00    +0.000 C 
ATOM     33  C   UNL     1       7.492   6.941  16.961  0.00  0.00    +0.000 C 
ENDBRANCH  26  29
ENDBRANCH  23  26
ENDBRANCH  19  20
ENDBRANCH   1  19
TORSDOF 7
ENDMDL
MODEL 5
REMARK VINA RESULT:      -8.7      6.047      9.081
REMARK  Name = 
REMARK  7 active torsions:
REMARK  status: ('A' for Active; 'I' for Inactive)
REMARK    1  A    between atoms: C_2  and  C_3
REMARK    2  A    between atoms: C_2  and  C_20
REMARK    3  A    between atoms: C_4  and  C_5
REMARK    4  A    between atoms: C_8  and  N_9
REMARK    5  A    between atoms: C_15  and  N_16
REMARK    6  A    between atoms: C_23  and  S_24
REMARK    7  A    between atoms: S_24  and  N_27
REMARK                            x       y       z     vdW  Elec       q    Type
REMARK                         _______ _______ _______ _____ _____    ______ ____
ROOT
ATOM      1  C   UNL     1       0.972   6.818  20.648  0.00  0.00    +0.000 C 
ATOM      2  C   UNL     1       1.495   7.865  21.298  0.00  0.00    +0.000 C 
ENDROOT
BRANCH   2   3
ATOM      3  C   UNL     1       0.687   9.045  21.551  0.00  0.00    +0.000 A 
ATOM      4  C   UNL     1       0.158   9.242  22.818  0.00  0.00    +0.000 A 
ATOM      5  C   UNL     1      -0.642  10.357  23.076  0.00  0.00    +0.000 A 
ATOM      6  C   UNL     1      -0.928  11.354  22.115  0.00  0.00    +0.000 A 
ATOM      7  C   UNL     1      -0.379  11.097  20.837  0.00  0.00    +0.000 A 
ATOM      8  C   UNL     1       0.404   9.960  20.546  0.00  0.00    +0.000 A 
BRANCH   6   9
ATOM      9  N   UNL     1      -1.726  12.422  22.500  0.00  0.00    +0.000 N 
ATOM     10  C   UNL     1      -1.132  13.734  22.822  0.00  0.00    +0.000 C 
ATOM     11  C   UNL     1      -1.607  14.173  24.207  0.00  0.00    +0.000 C 
ATOM     12  C   UNL     1      -3.133  14.208  24.267  0.00  0.00    +0.000 C 
ATOM     13  C   UNL     1      -3.729  12.876  23.826  0.00  0.00    +0.000 C 
ATOM     14  C   UNL     1      -3.193  12.432  22.464  0.00  0.00    +0.000 C 
ENDBRANCH   6   9
BRANCH   7  15
ATOM     15  N   UNL     1      -0.519  12.015  19.720  0.00  0.00    +0.000 N 
ATOM     16  O   UNL     1       0.455  12.731  19.437  0.00  0.00    +0.000 OA
ATOM     17  O   UNL     1      -1.590  11.983  19.101  0.00  0.00    +0.000 OA
ENDBRANCH   7  15
ENDBRANCH   2   3
BRANCH   1  19
ATOM     18  O   UNL     1       1.730   4.645  21.196  0.00  0.00    +0.000 OA
ATOM     19  C   UNL     1       1.816   5.615  20.448  0.00  0.00    +0.000 C 
BRANCH  19  20
ATOM     20  C   UNL     1       2.810   5.621  19.345  0.00  0.00    +0.000 A 
ATOM     21  C   UNL     1       3.130   6.763  18.592  0.00  0.00    +0.000 A 
ATOM     22  C   UNL     1       4.065   6.677  17.558  0.00  0.00    +0.000 A 
ATOM     23  C   UNL     1       4.685   5.452  17.276  0.00  0.00    +0.000 A 
ATOM     24  C   UNL     1       4.387   4.314  18.026  0.00  0.00    +0.000 A 
ATOM     25  C   UNL     1       3.445   4.400  19.052  0.00  0.00    +0.000 A 
BRANCH  23  26
ATOM     26  S   UNL     1       5.803   5.325  15.903  0.00  0.00    +0.000 S 
ATOM     27  O   UNL     1       5.784   3.944  15.468  0.00  0.00    +0.000 OA
ATOM     28  O   UNL     1       5.499   6.403  14.982  0.00  0.00    +0.000 OA
BRANCH  26  29
ATOM     29  N   UNL     1       7.342   5.644  16.563  0.00  0.00    +0.000 NA
ATOM     30  C   UNL     1       7.830   4.757  17.644  0.00  0.00    +0.000 C 
ATOM     31  C   UNL     1       7.583   5.516  18.931  0.00  0.00    +0.000 C 
ATOM     32  C   UNL     1       7.819   6.962  18.545  0.00  0.00    +0.000 C 
ATOM     33  C   UNL     1       7.503   7.048  17.053  0.00  0.00    +0.000 C 
ENDBRANCH  26  29
ENDBRANCH  23  26
ENDBRANCH  19  20
ENDBRANCH   1  19
TORSDOF 7
ENDMDL
MODEL 6
REMARK VINA RESULT:      -8.6      2.224      2.929
REMARK  Name = 
REMARK  7 active torsions:
REMARK  status: ('A' for Active; 'I' for Inactive)
REMARK    1  A    between atoms: C_2  and  C_3
REMARK    2  A    between atoms: C_2  and  C_20
REMARK    3  A    between atoms: C_4  and  C_5
REMARK    4  A    between atoms: C_8  and  N_9
REMARK    5  A    between atoms: C_15  and  N_16
REMARK    6  A    between atoms: C_23  and  S_24
REMARK    7  A    between atoms: S_24  and  N_27
REMARK                            x       y       z     vdW  Elec       q    Type
REMARK                         _______ _______ _______ _____ _____    ______ ____
ROOT
ATOM      1  C   UNL     1       7.722   7.593  17.958  0.00  0.00    +0.000 C 
ATOM      2  C   UNL     1       8.175   8.713  17.383  0.00  0.00    +0.000 C 
ENDROOT
BRANCH   2   3
ATOM      3  C   UNL     1       8.611   9.830  18.202  0.00  0.00    +0.000 A 
ATOM      4  C   UNL     1       9.040   9.589  19.499  0.00  0.00    +0.000 A 
ATOM      5  C   UNL     1       9.440  10.652  20.312  0.00  0.00    +0.000 A 
ATOM      6  C   UNL     1       9.478  11.997  19.879  0.00  0.00    +0.000 A 
ATOM      7  C   UNL     1       9.016  12.190  18.556  0.00  0.00    +0.000 A 
ATOM      8  C   UNL     1       8.575  11.136  17.729  0.00  0.00    +0.000 A 
BRANCH   6   9
ATOM      9  N   UNL     1       9.908  12.961  20.780  0.00  0.00    +0.000 N 
ATOM     10  C   UNL     1       9.349  13.025  22.144  0.00  0.00    +0.000 C 
ATOM     11  C   UNL     1       8.832  14.440  22.408  0.00  0.00    +0.000 C 
ATOM     12  C   UNL     1       9.943  15.466  22.199  0.00  0.00    +0.000 C 
ATOM     13  C   UNL     1      10.579  15.312  20.822  0.00  0.00    +0.000 C 
ATOM     14  C   UNL     1      11.035  13.875  20.562  0.00  0.00    +0.000 C 
ENDBRANCH   6   9
BRANCH   7  15
ATOM     15  N   UNL     1       9.010  13.488  17.905  0.00  0.00    +0.000 N 
ATOM     16  O   UNL     1       8.011  14.208  18.065  0.00  0.00    +0.000 OA
ATOM     17  O   UNL     1      10.027  13.802  17.273  0.00  0.00    +0.000 OA
ENDBRANCH   7  15
ENDBRANCH   2   3
BRANCH   1  19
ATOM     18  O   UNL     1       7.752   6.359  15.940  0.00  0.00    +0.000 OA
ATOM     19  C   UNL     1       7.328   6.459  17.087  0.00  0.00    +0.000 C 
BRANCH  19  20
ATOM     20  C   UNL     1       6.363   5.460  17.616  0.00  0.00    +0.000 A 
ATOM     21  C   UNL     1       5.598   4.610  16.802  0.00  0.00    +0.000 A 
ATOM     22  C   UNL     1       4.700   3.712  17.382  0.00  0.00    +0.000 A 
ATOM     23  C   UNL     1       4.567   3.657  18.776  0.00  0.00    +0.000 A 
ATOM     24  C   UNL     1       5.331   4.487  19.597  0.00  0.00    +0.000 A 
ATOM     25  C   UNL     1       6.221   5.391  19.015  0.00  0.00    +0.000 A 
BRANCH  23  26
ATOM     26  S   UNL     1       3.358   2.581  19.505  0.00  0.00    +0.000 S 
ATOM     27  O   UNL     1       3.103   1.522  18.551  0.00  0.00    +0.000 OA
ATOM     28  O   UNL     1       3.788   2.283  20.857  0.00  0.00    +0.000 OA
BRANCH  26  29
ATOM     29  N   UNL     1       1.946   3.529  19.622  0.00  0.00    +0.000 NA
ATOM     30  C   UNL     1       1.656   4.480  18.524  0.00  0.00    +0.000 C 
ATOM     31  C   UNL     1       2.104   5.834  19.036  0.00  0.00    +0.000 C 
ATOM     32  C   UNL     1       1.787   5.780  20.517  0.00  0.00    +0.000 C 
ATOM     33  C   UNL     1       1.849   4.302  20.898  0.00  0.00    +0.000 C 
ENDBRANCH  26  29
ENDBRANCH  23  26
ENDBRANCH  19  20
ENDBRANCH   1  19
TORSDOF 7
ENDMDL
MODEL 7
REMARK VINA RESULT:      -8.5      6.005      9.053
REMARK  Name = 
REMARK  7 active torsions:
REMARK  status: ('A' for Active; 'I' for Inactive)
REMARK    1  A    between atoms: C_2  and  C_3
REMARK    2  A    between atoms: C_2  and  C_20
REMARK    3  A    between atoms: C_4  and  C_5
REMARK    4  A    between atoms: C_8  and  N_9
REMARK    5  A    between atoms: C_15  and  N_16
REMARK    6  A    between atoms: C_23  and  S_24
REMARK    7  A    between atoms: S_24  and  N_27
REMARK                            x       y       z     vdW  Elec       q    Type
REMARK                         _______ _______ _______ _____ _____    ______ ____
ROOT
ATOM      1  C   UNL     1       0.932   6.726  20.779  0.00  0.00    +0.000 C 
ATOM      2  C   UNL     1       1.513   7.846  21.226  0.00  0.00    +0.000 C 
ENDROOT
BRANCH   2   3
ATOM      3  C   UNL     1       0.705   9.010  21.546  0.00  0.00    +0.000 A 
ATOM      4  C   UNL     1       0.286   9.202  22.855  0.00  0.00    +0.000 A 
ATOM      5  C   UNL     1      -0.513  10.301  23.179  0.00  0.00    +0.000 A 
ATOM      6  C   UNL     1      -0.903  11.286  22.245  0.00  0.00    +0.000 A 
ATOM      7  C   UNL     1      -0.464  11.036  20.923  0.00  0.00    +0.000 A 
ATOM      8  C   UNL     1       0.314   9.914  20.568  0.00  0.00    +0.000 A 
BRANCH   6   9
ATOM      9  N   UNL     1      -1.688  12.339  22.695  0.00  0.00    +0.000 N 
ATOM     10  C   UNL     1      -2.990  12.089  23.343  0.00  0.00    +0.000 C 
ATOM     11  C   UNL     1      -4.070  12.901  22.628  0.00  0.00    +0.000 C 
ATOM     12  C   UNL     1      -3.712  14.385  22.622  0.00  0.00    +0.000 C 
ATOM     13  C   UNL     1      -2.319  14.610  22.047  0.00  0.00    +0.000 C 
ATOM     14  C   UNL     1      -1.267  13.744  22.742  0.00  0.00    +0.000 C 
ENDBRANCH   6   9
BRANCH   7  15
ATOM     15  N   UNL     1      -0.723  11.944  19.821  0.00  0.00    +0.000 N 
ATOM     16  O   UNL     1      -1.857  11.928  19.316  0.00  0.00    +0.000 OA
ATOM     17  O   UNL     1       0.197  12.704  19.494  0.00  0.00    +0.000 OA
ENDBRANCH   7  15
ENDBRANCH   2   3
BRANCH   1  19
ATOM     18  O   UNL     1       1.743   4.547  21.219  0.00  0.00    +0.000 OA
ATOM     19  C   UNL     1       1.787   5.546  20.506  0.00  0.00    +0.000 C 
BRANCH  19  20
ATOM     20  C   UNL     1       2.742   5.609  19.370  0.00  0.00    +0.000 A 
ATOM     21  C   UNL     1       3.082   6.798  18.704  0.00  0.00    +0.000 A 
ATOM     22  C   UNL     1       3.976   6.766  17.632  0.00  0.00    +0.000 A 
ATOM     23  C   UNL     1       4.536   5.548  17.224  0.00  0.00    +0.000 A 
ATOM     24  C   UNL     1       4.218   4.362  17.886  0.00  0.00    +0.000 A 
ATOM     25  C   UNL     1       3.316   4.395  18.951  0.00  0.00    +0.000 A 
BRANCH  23  26
ATOM     26  S   UNL     1       5.599   5.498  15.804  0.00  0.00    +0.000 S 
ATOM     27  O   UNL     1       5.472   4.175  15.227  0.00  0.00    +0.000 OA
ATOM     28  O   UNL     1       5.342   6.686  15.014  0.00  0.00    +0.000 OA
BRANCH  26  29
ATOM     29  N   UNL     1       7.176   5.643  16.435  0.00  0.00    +0.000 NA
ATOM     30  C   UNL     1       7.591   4.691  17.491  0.00  0.00    +0.000 C 
ATOM     31  C   UNL     1       7.450   5.450  18.794  0.00  0.00    +0.000 C 
ATOM     32  C   UNL     1       7.829   6.870  18.426  0.00  0.00    +0.000 C 
ATOM     33  C   UNL     1       7.493   7.014  16.942  0.00  0.00    +0.000 C 
ENDBRANCH  26  29
ENDBRANCH  23  26
ENDBRANCH  19  20
ENDBRANCH   1  19
TORSDOF 7
ENDMDL
MODEL 8
REMARK VINA RESULT:      -8.4      1.935      2.479
REMARK  Name = 
REMARK  7 active torsions:
REMARK  status: ('A' for Active; 'I' for Inactive)
REMARK    1  A    between atoms: C_2  and  C_3
REMARK    2  A    between atoms: C_2  and  C_20
REMARK    3  A    between atoms: C_4  and  C_5
REMARK    4  A    between atoms: C_8  and  N_9
REMARK    5  A    between atoms: C_15  and  N_16
REMARK    6  A    between atoms: C_23  and  S_24
REMARK    7  A    between atoms: S_24  and  N_27
REMARK                            x       y       z     vdW  Elec       q    Type
REMARK                         _______ _______ _______ _____ _____    ______ ____
ROOT
ATOM      1  C   UNL     1       7.807   7.536  17.886  0.00  0.00    +0.000 C 
ATOM      2  C   UNL     1       7.807   8.777  17.385  0.00  0.00    +0.000 C 
ENDROOT
BRANCH   2   3
ATOM      3  C   UNL     1       8.397   9.869  18.139  0.00  0.00    +0.000 A 
ATOM      4  C   UNL     1       8.981   9.603  19.369  0.00  0.00    +0.000 A 
ATOM      5  C   UNL     1       9.532  10.643  20.121  0.00  0.00    +0.000 A 
ATOM      6  C   UNL     1       9.575  11.986  19.685  0.00  0.00    +0.000 A 
ATOM      7  C   UNL     1       8.953  12.207  18.432  0.00  0.00    +0.000 A 
ATOM      8  C   UNL     1       8.361  11.177  17.672  0.00  0.00    +0.000 A 
BRANCH   6   9
ATOM      9  N   UNL     1      10.162  12.926  20.520  0.00  0.00    +0.000 N 
ATOM     10  C   UNL     1       9.628  13.175  21.873  0.00  0.00    +0.000 C 
ATOM     11  C   UNL     1       9.354  14.670  22.036  0.00  0.00    +0.000 C 
ATOM     12  C   UNL     1      10.618  15.482  21.764  0.00  0.00    +0.000 C 
ATOM     13  C   UNL     1      11.213  15.131  20.406  0.00  0.00    +0.000 C 
ATOM     14  C   UNL     1      11.424  13.624  20.247  0.00  0.00    +0.000 C 
ENDBRANCH   6   9
BRANCH   7  15
ATOM     15  N   UNL     1       8.923  13.506  17.786  0.00  0.00    +0.000 N 
ATOM     16  O   UNL     1       7.856  14.141  17.820  0.00  0.00    +0.000 OA
ATOM     17  O   UNL     1       9.981  13.907  17.285  0.00  0.00    +0.000 OA
ENDBRANCH   7  15
ENDBRANCH   2   3
BRANCH   1  19
ATOM     18  O   UNL     1       7.800   6.040  16.054  0.00  0.00    +0.000 OA
ATOM     19  C   UNL     1       7.234   6.441  17.067  0.00  0.00    +0.000 C 
BRANCH  19  20
ATOM     20  C   UNL     1       5.926   5.863  17.470  0.00  0.00    +0.000 A 
ATOM     21  C   UNL     1       5.073   5.178  16.589  0.00  0.00    +0.000 A 
ATOM     22  C   UNL     1       3.852   4.681  17.047  0.00  0.00    +0.000 A 
ATOM     23  C   UNL     1       3.480   4.863  18.386  0.00  0.00    +0.000 A 
ATOM     24  C   UNL     1       4.324   5.530  19.275  0.00  0.00    +0.000 A 
ATOM     25  C   UNL     1       5.541   6.034  18.812  0.00  0.00    +0.000 A 
BRANCH  23  26
ATOM     26  S   UNL     1       1.887   4.313  18.942  0.00  0.00    +0.000 S 
ATOM     27  O   UNL     1       1.517   5.149  20.064  0.00  0.00    +0.000 OA
ATOM     28  O   UNL     1       1.027   4.196  17.780  0.00  0.00    +0.000 OA
BRANCH  26  29
ATOM     29  N   UNL     1       2.153   2.735  19.532  0.00  0.00    +0.000 NA
ATOM     30  C   UNL     1       3.186   2.551  20.576  0.00  0.00    +0.000 C 
ATOM     31  C   UNL     1       4.408   2.033  19.846  0.00  0.00    +0.000 C 
ATOM     32  C   UNL     1       3.829   1.163  18.749  0.00  0.00    +0.000 C 
ATOM     33  C   UNL     1       2.443   1.736  18.458  0.00  0.00    +0.000 C 
ENDBRANCH  26  29
ENDBRANCH  23  26
ENDBRANCH  19  20
ENDBRANCH   1  19
TORSDOF 7
ENDMDL
MODEL 9
REMARK VINA RESULT:      -8.3      6.109      9.031
REMARK  Name = 
REMARK  7 active torsions:
REMARK  status: ('A' for Active; 'I' for Inactive)
REMARK    1  A    between atoms: C_2  and  C_3
REMARK    2  A    between atoms: C_2  and  C_20
REMARK    3  A    between atoms: C_4  and  C_5
REMARK    4  A    between atoms: C_8  and  N_9
REMARK    5  A    between atoms: C_15  and  N_16
REMARK    6  A    between atoms: C_23  and  S_24
REMARK    7  A    between atoms: S_24  and  N_27
REMARK                            x       y       z     vdW  Elec       q    Type
REMARK                         _______ _______ _______ _____ _____    ______ ____
ROOT
ATOM      1  C   UNL     1       1.267   7.011  20.400  0.00  0.00    +0.000 C 
ATOM      2  C   UNL     1       1.615   7.944  21.294  0.00  0.00    +0.000 C 
ENDROOT
BRANCH   2   3
ATOM      3  C   UNL     1       0.769   9.106  21.504  0.00  0.00    +0.000 A 
ATOM      4  C   UNL     1       0.348   9.411  22.790  0.00  0.00    +0.000 A 
ATOM      5  C   UNL     1      -0.487  10.509  23.010  0.00  0.00    +0.000 A 
ATOM      6  C   UNL     1      -0.913  11.385  21.986  0.00  0.00    +0.000 A 
ATOM      7  C   UNL     1      -0.469  11.021  20.693  0.00  0.00    +0.000 A 
ATOM      8  C   UNL     1       0.345   9.897  20.444  0.00  0.00    +0.000 A 
BRANCH   6   9
ATOM      9  N   UNL     1      -1.732  12.450  22.336  0.00  0.00    +0.000 N 
ATOM     10  C   UNL     1      -1.173  13.801  22.535  0.00  0.00    +0.000 C 
ATOM     11  C   UNL     1      -1.595  14.321  23.909  0.00  0.00    +0.000 C 
ATOM     12  C   UNL     1      -3.116  14.308  24.045  0.00  0.00    +0.000 C 
ATOM     13  C   UNL     1      -3.682  12.929  23.730  0.00  0.00    +0.000 C 
ATOM     14  C   UNL     1      -3.198  12.408  22.376  0.00  0.00    +0.000 C 
ENDBRANCH   6   9
BRANCH   7  15
ATOM     15  N   UNL     1      -0.761  11.808  19.509  0.00  0.00    +0.000 N 
ATOM     16  O   UNL     1      -1.792  11.532  18.874  0.00  0.00    +0.000 OA
ATOM     17  O   UNL     1       0.019  12.732  19.243  0.00  0.00    +0.000 OA
ENDBRANCH   7  15
ENDBRANCH   2   3
BRANCH   1  19
ATOM     18  O   UNL     1       1.910   4.783  20.867  0.00  0.00    +0.000 OA
ATOM     19  C   UNL     1       2.134   5.818  20.247  0.00  0.00    +0.000 C 
BRANCH  19  20
ATOM     20  C   UNL     1       3.320   5.913  19.357  0.00  0.00    +0.000 A 
ATOM     21  C   UNL     1       3.427   6.828  18.297  0.00  0.00    +0.000 A 
ATOM     22  C   UNL     1       4.570   6.837  17.496  0.00  0.00    +0.000 A 
ATOM     23  C   UNL     1       5.612   5.936  17.754  0.00  0.00    +0.000 A 
ATOM     24  C   UNL     1       5.525   5.031  18.813  0.00  0.00    +0.000 A 
ATOM     25  C   UNL     1       4.377   5.017  19.606  0.00  0.00    +0.000 A 
BRANCH  23  26
ATOM     26  S   UNL     1       7.023   5.887  16.678  0.00  0.00    +0.000 S 
ATOM     27  O   UNL     1       7.688   7.168  16.793  0.00  0.00    +0.000 OA
ATOM     28  O   UNL     1       7.733   4.650  16.933  0.00  0.00    +0.000 OA
BRANCH  26  29
ATOM     29  N   UNL     1       6.368   5.779  15.107  0.00  0.00    +0.000 NA
ATOM     30  C   UNL     1       5.096   5.040  14.936  0.00  0.00    +0.000 C 
ATOM     31  C   UNL     1       5.492   3.675  14.412  0.00  0.00    +0.000 C 
ATOM     32  C   UNL     1       6.690   3.961  13.530  0.00  0.00    +0.000 C 
ATOM     33  C   UNL     1       7.325   5.230  14.098  0.00  0.00    +0.000 C 
ENDBRANCH  26  29
ENDBRANCH  23  26
ENDBRANCH  19  20
ENDBRANCH   1  19
TORSDOF 7
ENDMDL
