MODEL 1
REMARK VINA RESULT:      -4.8      0.000      0.000
REMARK  Name = 
REMARK  6 active torsions:
REMARK  status: ('A' for Active; 'I' for Inactive)
REMARK    1  A    between atoms: C_1  and  C_2
REMARK    2  A    between atoms: C_5  and  C_6
REMARK    3  A    between atoms: C_6  and  N_7
REMARK    4  A    between atoms: N_7  and  C_8
REMARK    5  A    between atoms: N_7  and  C_9
REMARK    6  A    between atoms: N_7  and  C_10
REMARK                            x       y       z     vdW  Elec       q    Type
REMARK                         _______ _______ _______ _____ _____    ______ ____
ROOT
ATOM      1  C   UNL     1       1.333   2.981  21.271  0.00  0.00    +0.000 C 
ATOM      2  C   UNL     1       1.922   2.391  19.999  0.00  0.00    +0.000 C 
ATOM      3  C   UNL     1       0.996   2.507  18.798  0.00  0.00    +0.000 C 
ATOM      4  C   UNL     1       1.434   3.801  18.159  0.00  0.00    +0.000 C 
ATOM      5  C   UNL     1       2.936   3.787  18.406  0.00  0.00    +0.000 C 
ATOM      6  O   UNL     1       3.109   3.140  19.677  0.00  0.00    +0.000 OA
ENDROOT
BRANCH   5   7
ATOM      7  C   UNL     1       3.533   5.207  18.423  0.00  0.00    +0.000 C 
BRANCH   7   8
ATOM      8  N   UNL     1       4.980   5.326  17.869  0.00  0.00    +0.000 N 
ATOM      9  C   UNL     1       5.180   6.626  17.092  0.00  0.00    +0.000 C 
ATOM     10  C   UNL     1       6.009   5.247  18.984  0.00  0.00    +0.000 C 
ATOM     11  C   UNL     1       5.206   4.161  16.906  0.00  0.00    +0.000 C 
ENDBRANCH   7   8
ENDBRANCH   5   7
TORSDOF 2
ENDMDL
MODEL 2
REMARK VINA RESULT:      -4.8      0.286      1.341
REMARK  Name = 
REMARK  6 active torsions:
REMARK  status: ('A' for Active; 'I' for Inactive)
REMARK    1  A    between atoms: C_1  and  C_2
REMARK    2  A    between atoms: C_5  and  C_6
REMARK    3  A    between atoms: C_6  and  N_7
REMARK    4  A    between atoms: N_7  and  C_8
REMARK    5  A    between atoms: N_7  and  C_9
REMARK    6  A    between atoms: N_7  and  C_10
REMARK                            x       y       z     vdW  Elec       q    Type
REMARK                         _______ _______ _______ _____ _____    ______ ____
ROOT
ATOM      1  C   UNL     1       1.422   3.032  21.226  0.00  0.00    +0.000 C 
ATOM      2  C   UNL     1       1.910   2.388  19.938  0.00  0.00    +0.000 C 
ATOM      3  C   UNL     1       0.918   2.510  18.791  0.00  0.00    +0.000 C 
ATOM      4  C   UNL     1       1.367   3.769  18.092  0.00  0.00    +0.000 C 
ATOM      5  C   UNL     1       2.880   3.701  18.249  0.00  0.00    +0.000 C 
ATOM      6  O   UNL     1       3.103   3.081  19.525  0.00  0.00    +0.000 OA
ENDROOT
BRANCH   5   7
ATOM      7  C   UNL     1       3.530   5.096  18.192  0.00  0.00    +0.000 C 
BRANCH   7   8
ATOM      8  N   UNL     1       4.924   5.151  17.509  0.00  0.00    +0.000 N 
ATOM      9  C   UNL     1       6.056   5.046  18.529  0.00  0.00    +0.000 C 
ATOM     10  C   UNL     1       5.081   4.049  16.474  0.00  0.00    +0.000 C 
ATOM     11  C   UNL     1       5.045   6.505  16.809  0.00  0.00    +0.000 C 
ENDBRANCH   7   8
ENDBRANCH   5   7
TORSDOF 2
ENDMDL
MODEL 3
REMARK VINA RESULT:      -4.8      0.317      1.338
REMARK  Name = 
REMARK  6 active torsions:
REMARK  status: ('A' for Active; 'I' for Inactive)
REMARK    1  A    between atoms: C_1  and  C_2
REMARK    2  A    between atoms: C_5  and  C_6
REMARK    3  A    between atoms: C_6  and  N_7
REMARK    4  A    between atoms: N_7  and  C_8
REMARK    5  A    between atoms: N_7  and  C_9
REMARK    6  A    between atoms: N_7  and  C_10
REMARK                            x       y       z     vdW  Elec       q    Type
REMARK                         _______ _______ _______ _____ _____    ______ ____
ROOT
ATOM      1  C   UNL     1       1.323   3.106  21.215  0.00  0.00    +0.000 C 
ATOM      2  C   UNL     1       1.871   2.433  19.965  0.00  0.00    +0.000 C 
ATOM      3  C   UNL     1       0.935   2.531  18.771  0.00  0.00    +0.000 C 
ATOM      4  C   UNL     1       1.419   3.774  18.066  0.00  0.00    +0.000 C 
ATOM      5  C   UNL     1       2.922   3.708  18.297  0.00  0.00    +0.000 C 
ATOM      6  O   UNL     1       3.084   3.116  19.596  0.00  0.00    +0.000 OA
ENDROOT
BRANCH   5   7
ATOM      7  C   UNL     1       3.577   5.101  18.241  0.00  0.00    +0.000 C 
BRANCH   7   8
ATOM      8  N   UNL     1       4.907   5.178  17.440  0.00  0.00    +0.000 N 
ATOM      9  C   UNL     1       5.064   3.988  16.494  0.00  0.00    +0.000 C 
ATOM     10  C   UNL     1       5.002   6.467  16.642  0.00  0.00    +0.000 C 
ATOM     11  C   UNL     1       6.057   5.134  18.446  0.00  0.00    +0.000 C 
ENDBRANCH   7   8
ENDBRANCH   5   7
TORSDOF 2
ENDMDL
MODEL 4
REMARK VINA RESULT:      -4.7      1.682      2.405
REMARK  Name = 
REMARK  6 active torsions:
REMARK  status: ('A' for Active; 'I' for Inactive)
REMARK    1  A    between atoms: C_1  and  C_2
REMARK    2  A    between atoms: C_5  and  C_6
REMARK    3  A    between atoms: C_6  and  N_7
REMARK    4  A    between atoms: N_7  and  C_8
REMARK    5  A    between atoms: N_7  and  C_9
REMARK    6  A    between atoms: N_7  and  C_10
REMARK                            x       y       z     vdW  Elec       q    Type
REMARK                         _______ _______ _______ _____ _____    ______ ____
ROOT
ATOM      1  C   UNL     1       2.875   2.826  20.714  0.00  0.00    +0.000 C 
ATOM      2  C   UNL     1       3.792   2.356  19.594  0.00  0.00    +0.000 C 
ATOM      3  C   UNL     1       3.164   2.476  18.215  0.00  0.00    +0.000 C 
ATOM      4  C   UNL     1       3.629   3.834  17.750  0.00  0.00    +0.000 C 
ATOM      5  C   UNL     1       5.028   3.914  18.345  0.00  0.00    +0.000 C 
ATOM      6  O   UNL     1       4.954   3.207  19.593  0.00  0.00    +0.000 OA
ENDROOT
BRANCH   5   7
ATOM      7  C   UNL     1       5.482   5.369  18.560  0.00  0.00    +0.000 C 
BRANCH   7   8
ATOM      8  N   UNL     1       6.940   5.683  18.120  0.00  0.00    +0.000 N 
ATOM      9  C   UNL     1       7.500   4.591  17.209  0.00  0.00    +0.000 C 
ATOM     10  C   UNL     1       7.029   7.022  17.408  0.00  0.00    +0.000 C 
ATOM     11  C   UNL     1       7.804   5.735  19.380  0.00  0.00    +0.000 C 
ENDBRANCH   7   8
ENDBRANCH   5   7
TORSDOF 2
ENDMDL
MODEL 5
REMARK VINA RESULT:      -4.6      1.647      2.173
REMARK  Name = 
REMARK  6 active torsions:
REMARK  status: ('A' for Active; 'I' for Inactive)
REMARK    1  A    between atoms: C_1  and  C_2
REMARK    2  A    between atoms: C_5  and  C_6
REMARK    3  A    between atoms: C_6  and  N_7
REMARK    4  A    between atoms: N_7  and  C_8
REMARK    5  A    between atoms: N_7  and  C_9
REMARK    6  A    between atoms: N_7  and  C_10
REMARK                            x       y       z     vdW  Elec       q    Type
REMARK                         _______ _______ _______ _____ _____    ______ ____
ROOT
ATOM      1  C   UNL     1       2.448   2.152  18.863  0.00  0.00    +0.000 C 
ATOM      2  C   UNL     1       2.436   2.983  17.589  0.00  0.00    +0.000 C 
ATOM      3  C   UNL     1       1.598   4.247  17.705  0.00  0.00    +0.000 C 
ATOM      4  C   UNL     1       2.609   5.283  18.129  0.00  0.00    +0.000 C 
ATOM      5  C   UNL     1       3.856   4.842  17.375  0.00  0.00    +0.000 C 
ATOM      6  O   UNL     1       3.788   3.408  17.330  0.00  0.00    +0.000 OA
ENDROOT
BRANCH   5   7
ATOM      7  C   UNL     1       5.148   5.312  18.068  0.00  0.00    +0.000 C 
BRANCH   7   8
ATOM      8  N   UNL     1       6.336   5.626  17.116  0.00  0.00    +0.000 N 
ATOM      9  C   UNL     1       5.914   5.563  15.649  0.00  0.00    +0.000 C 
ATOM     10  C   UNL     1       6.933   6.993  17.405  0.00  0.00    +0.000 C 
ATOM     11  C   UNL     1       7.407   4.560  17.345  0.00  0.00    +0.000 C 
ENDBRANCH   7   8
ENDBRANCH   5   7
TORSDOF 2
ENDMDL
MODEL 6
REMARK VINA RESULT:      -4.6      1.114      1.732
REMARK  Name = 
REMARK  6 active torsions:
REMARK  status: ('A' for Active; 'I' for Inactive)
REMARK    1  A    between atoms: C_1  and  C_2
REMARK    2  A    between atoms: C_5  and  C_6
REMARK    3  A    between atoms: C_6  and  N_7
REMARK    4  A    between atoms: N_7  and  C_8
REMARK    5  A    between atoms: N_7  and  C_9
REMARK    6  A    between atoms: N_7  and  C_10
REMARK                            x       y       z     vdW  Elec       q    Type
REMARK                         _______ _______ _______ _____ _____    ______ ____
ROOT
ATOM      1  C   UNL     1       1.774   3.687  20.826  0.00  0.00    +0.000 C 
ATOM      2  C   UNL     1       2.051   3.040  19.477  0.00  0.00    +0.000 C 
ATOM      3  C   UNL     1       1.484   3.828  18.306  0.00  0.00    +0.000 C 
ATOM      4  C   UNL     1       2.643   4.703  17.896  0.00  0.00    +0.000 C 
ATOM      5  C   UNL     1       3.836   3.791  18.148  0.00  0.00    +0.000 C 
ATOM      6  O   UNL     1       3.479   3.001  19.294  0.00  0.00    +0.000 OA
ENDROOT
BRANCH   5   7
ATOM      7  C   UNL     1       5.128   4.588  18.407  0.00  0.00    +0.000 C 
BRANCH   7   8
ATOM      8  N   UNL     1       5.999   4.869  17.151  0.00  0.00    +0.000 N 
ATOM      9  C   UNL     1       5.661   3.915  16.007  0.00  0.00    +0.000 C 
ATOM     10  C   UNL     1       5.835   6.302  16.672  0.00  0.00    +0.000 C 
ATOM     11  C   UNL     1       7.460   4.642  17.539  0.00  0.00    +0.000 C 
ENDBRANCH   7   8
ENDBRANCH   5   7
TORSDOF 2
ENDMDL
MODEL 7
REMARK VINA RESULT:      -4.6      1.630      2.430
REMARK  Name = 
REMARK  6 active torsions:
REMARK  status: ('A' for Active; 'I' for Inactive)
REMARK    1  A    between atoms: C_1  and  C_2
REMARK    2  A    between atoms: C_5  and  C_6
REMARK    3  A    between atoms: C_6  and  N_7
REMARK    4  A    between atoms: N_7  and  C_8
REMARK    5  A    between atoms: N_7  and  C_9
REMARK    6  A    between atoms: N_7  and  C_10
REMARK                            x       y       z     vdW  Elec       q    Type
REMARK                         _______ _______ _______ _____ _____    ______ ____
ROOT
ATOM      1  C   UNL     1       2.577   2.108  19.027  0.00  0.00    +0.000 C 
ATOM      2  C   UNL     1       2.534   2.847  17.698  0.00  0.00    +0.000 C 
ATOM      3  C   UNL     1       1.607   4.052  17.710  0.00  0.00    +0.000 C 
ATOM      4  C   UNL     1       2.533   5.185  18.077  0.00  0.00    +0.000 C 
ATOM      5  C   UNL     1       3.824   4.783  17.377  0.00  0.00    +0.000 C 
ATOM      6  O   UNL     1       3.858   3.348  17.432  0.00  0.00    +0.000 OA
ENDROOT
BRANCH   5   7
ATOM      7  C   UNL     1       5.064   5.392  18.057  0.00  0.00    +0.000 C 
BRANCH   7   8
ATOM      8  N   UNL     1       6.294   5.602  17.131  0.00  0.00    +0.000 N 
ATOM      9  C   UNL     1       7.397   4.586  17.422  0.00  0.00    +0.000 C 
ATOM     10  C   UNL     1       5.907   5.513  15.664  0.00  0.00    +0.000 C 
ATOM     11  C   UNL     1       6.853   6.997  17.410  0.00  0.00    +0.000 C 
ENDBRANCH   7   8
ENDBRANCH   5   7
TORSDOF 2
ENDMDL
MODEL 8
REMARK VINA RESULT:      -4.6      1.615      2.516
REMARK  Name = 
REMARK  6 active torsions:
REMARK  status: ('A' for Active; 'I' for Inactive)
REMARK    1  A    between atoms: C_1  and  C_2
REMARK    2  A    between atoms: C_5  and  C_6
REMARK    3  A    between atoms: C_6  and  N_7
REMARK    4  A    between atoms: N_7  and  C_8
REMARK    5  A    between atoms: N_7  and  C_9
REMARK    6  A    between atoms: N_7  and  C_10
REMARK                            x       y       z     vdW  Elec       q    Type
REMARK                         _______ _______ _______ _____ _____    ______ ____
ROOT
ATOM      1  C   UNL     1       1.178   2.405  18.881  0.00  0.00    +0.000 C 
ATOM      2  C   UNL     1       1.348   3.774  18.240  0.00  0.00    +0.000 C 
ATOM      3  C   UNL     1       1.987   4.796  19.167  0.00  0.00    +0.000 C 
ATOM      4  C   UNL     1       3.454   4.683  18.833  0.00  0.00    +0.000 C 
ATOM      5  C   UNL     1       3.420   4.409  17.335  0.00  0.00    +0.000 C 
ATOM      6  O   UNL     1       2.237   3.625  17.117  0.00  0.00    +0.000 OA
ENDROOT
BRANCH   5   7
ATOM      7  C   UNL     1       4.677   3.659  16.856  0.00  0.00    +0.000 C 
BRANCH   7   8
ATOM      8  N   UNL     1       5.751   4.539  16.160  0.00  0.00    +0.000 N 
ATOM      9  C   UNL     1       6.176   3.951  14.815  0.00  0.00    +0.000 C 
ATOM     10  C   UNL     1       5.255   5.960  15.950  0.00  0.00    +0.000 C 
ATOM     11  C   UNL     1       6.981   4.575  17.068  0.00  0.00    +0.000 C 
ENDBRANCH   7   8
ENDBRANCH   5   7
TORSDOF 2
ENDMDL
MODEL 9
REMARK VINA RESULT:      -4.6      1.403      2.143
REMARK  Name = 
REMARK  6 active torsions:
REMARK  status: ('A' for Active; 'I' for Inactive)
REMARK    1  A    between atoms: C_1  and  C_2
REMARK    2  A    between atoms: C_5  and  C_6
REMARK    3  A    between atoms: C_6  and  N_7
REMARK    4  A    between atoms: N_7  and  C_8
REMARK    5  A    between atoms: N_7  and  C_9
REMARK    6  A    between atoms: N_7  and  C_10
REMARK                            x       y       z     vdW  Elec       q    Type
REMARK                         _______ _______ _______ _____ _____    ______ ____
ROOT
ATOM      1  C   UNL     1       2.082   2.836  20.043  0.00  0.00    +0.000 C 
ATOM      2  C   UNL     1       3.056   2.413  18.953  0.00  0.00    +0.000 C 
ATOM      3  C   UNL     1       2.684   2.941  17.577  0.00  0.00    +0.000 C 
ATOM      4  C   UNL     1       3.463   4.231  17.490  0.00  0.00    +0.000 C 
ATOM      5  C   UNL     1       4.743   3.882  18.238  0.00  0.00    +0.000 C 
ATOM      6  O   UNL     1       4.344   2.973  19.275  0.00  0.00    +0.000 OA
ENDROOT
BRANCH   5   7
ATOM      7  C   UNL     1       5.425   5.130  18.829  0.00  0.00    +0.000 C 
BRANCH   7   8
ATOM      8  N   UNL     1       6.678   5.630  18.058  0.00  0.00    +0.000 N 
ATOM      9  C   UNL     1       7.805   6.025  19.012  0.00  0.00    +0.000 C 
ATOM     10  C   UNL     1       7.190   4.579  17.088  0.00  0.00    +0.000 C 
ATOM     11  C   UNL     1       6.271   6.874  17.269  0.00  0.00    +0.000 C 
ENDBRANCH   7   8
ENDBRANCH   5   7
TORSDOF 2
ENDMDL
