MODEL 1
REMARK VINA RESULT:      -8.3      0.000      0.000
REMARK  Name = 
REMARK  3 active torsions:
REMARK  status: ('A' for Active; 'I' for Inactive)
REMARK    1  A    between atoms: C_1  and  O_2
REMARK    2  A    between atoms: O_2  and  C_3
REMARK    3  A    between atoms: N_17  and  C_18
REMARK                            x       y       z     vdW  Elec       q    Type
REMARK                         _______ _______ _______ _____ _____    ______ ____
ROOT
ATOM      1  C   UNL     1       0.054   9.155  21.353  0.00  0.00    +0.000 A 
ATOM      2  C   UNL     1       0.275  10.051  20.317  0.00  0.00    +0.000 A 
ATOM      3  C   UNL     1       1.148   9.701  19.248  0.00  0.00    +0.000 A 
ATOM      4  C   UNL     1       1.828   8.472  19.168  0.00  0.00    +0.000 A 
ATOM      5  N   UNL     1       2.667   8.109  18.128  0.00  0.00    +0.000 NA
ATOM      6  C   UNL     1       3.325   6.901  18.161  0.00  0.00    +0.000 A 
ATOM      7  C   UNL     1       3.115   6.069  19.262  0.00  0.00    +0.000 A 
ATOM      8  C   UNL     1       2.245   6.386  20.293  0.00  0.00    +0.000 A 
ATOM      9  C   UNL     1       1.589   7.604  20.255  0.00  0.00    +0.000 A 
ATOM     10  C   UNL     1       0.721   7.937  21.311  0.00  0.00    +0.000 A 
ATOM     11  C   UNL     1       3.888   4.866  19.330  0.00  0.00    +0.000 C 
ATOM     12  N   UNL     1       5.144   5.076  19.170  0.00  0.00    +0.000 NA
ATOM     13  N   UNL     1       5.560   4.337  18.108  0.00  0.00    +0.000 NA
ATOM     14  C   UNL     1       5.279   4.886  16.933  0.00  0.00    +0.000 C 
ATOM     15  N   UNL     1       5.754   4.077  15.926  0.00  0.00    +0.000 N 
ATOM     16  S   UNL     1       4.368   6.430  16.680  0.00  0.00    +0.000 S 
ATOM     17  H   UNL     1       6.172   3.257  16.369  0.00  0.00    +0.000 HD
ENDROOT
BRANCH  15  18
ATOM     18  C   UNL     1       6.156   4.114  14.578  0.00  0.00    +0.000 A 
ATOM     19  C   UNL     1       5.612   3.395  13.524  0.00  0.00    +0.000 A 
ATOM     20  C   UNL     1       6.149   3.516  12.223  0.00  0.00    +0.000 A 
ATOM     21  C   UNL     1       7.242   4.350  11.959  0.00  0.00    +0.000 A 
ATOM     22  C   UNL     1       7.800   5.081  12.994  0.00  0.00    +0.000 A 
ATOM     23  C   UNL     1       7.261   4.954  14.273  0.00  0.00    +0.000 A 
ATOM     24  F   UNL     1       7.806   5.688  15.259  0.00  0.00    +0.000 F 
ENDBRANCH  15  18
BRANCH   1  26
ATOM     25  C   UNL     1      -0.838  10.570  23.073  0.00  0.00    +0.000 C 
ATOM     26  O   UNL     1      -0.760   9.302  22.438  0.00  0.00    +0.000 OA
ENDBRANCH   1  26
TORSDOF 2
ENDMDL
MODEL 2
REMARK VINA RESULT:      -7.7      0.948      1.347
REMARK  Name = 
REMARK  3 active torsions:
REMARK  status: ('A' for Active; 'I' for Inactive)
REMARK    1  A    between atoms: C_1  and  O_2
REMARK    2  A    between atoms: O_2  and  C_3
REMARK    3  A    between atoms: N_17  and  C_18
REMARK                            x       y       z     vdW  Elec       q    Type
REMARK                         _______ _______ _______ _____ _____    ______ ____
ROOT
ATOM      1  C   UNL     1       0.134   8.821  21.223  0.00  0.00    +0.000 A 
ATOM      2  C   UNL     1       0.260   9.747  20.197  0.00  0.00    +0.000 A 
ATOM      3  C   UNL     1       1.175   9.509  19.132  0.00  0.00    +0.000 A 
ATOM      4  C   UNL     1       1.990   8.365  19.046  0.00  0.00    +0.000 A 
ATOM      5  N   UNL     1       2.872   8.111  18.010  0.00  0.00    +0.000 NA
ATOM      6  C   UNL     1       3.662   6.985  18.036  0.00  0.00    +0.000 A 
ATOM      7  C   UNL     1       3.539   6.122  19.127  0.00  0.00    +0.000 A 
ATOM      8  C   UNL     1       2.632   6.328  20.154  0.00  0.00    +0.000 A 
ATOM      9  C   UNL     1       1.843   7.464  20.123  0.00  0.00    +0.000 A 
ATOM     10  C   UNL     1       0.934   7.686  21.175  0.00  0.00    +0.000 A 
ATOM     11  C   UNL     1       4.442   5.014  19.190  0.00  0.00    +0.000 C 
ATOM     12  N   UNL     1       5.668   5.366  19.043  0.00  0.00    +0.000 NA
ATOM     13  N   UNL     1       6.172   4.690  17.977  0.00  0.00    +0.000 NA
ATOM     14  C   UNL     1       5.840   5.217  16.806  0.00  0.00    +0.000 C 
ATOM     15  N   UNL     1       6.411   4.477  15.794  0.00  0.00    +0.000 N 
ATOM     16  S   UNL     1       4.763   6.651  16.560  0.00  0.00    +0.000 S 
ATOM     17  H   UNL     1       6.915   3.704  16.233  0.00  0.00    +0.000 HD
ENDROOT
BRANCH  15  18
ATOM     18  C   UNL     1       6.816   4.574  14.451  0.00  0.00    +0.000 A 
ATOM     19  C   UNL     1       7.758   5.445  13.923  0.00  0.00    +0.000 A 
ATOM     20  C   UNL     1       8.035   5.446  12.538  0.00  0.00    +0.000 A 
ATOM     21  C   UNL     1       7.369   4.584  11.660  0.00  0.00    +0.000 A 
ATOM     22  C   UNL     1       6.426   3.702  12.162  0.00  0.00    +0.000 A 
ATOM     23  C   UNL     1       6.162   3.711  13.531  0.00  0.00    +0.000 A 
ATOM     24  F   UNL     1       5.258   2.833  14.001  0.00  0.00    +0.000 F 
ENDBRANCH  15  18
BRANCH   1  26
ATOM     25  C   UNL     1      -0.744  10.044  23.090  0.00  0.00    +0.000 C 
ATOM     26  O   UNL     1      -0.699   8.863  22.301  0.00  0.00    +0.000 OA
ENDBRANCH   1  26
TORSDOF 2
ENDMDL
MODEL 3
REMARK VINA RESULT:      -7.6      4.512     10.045
REMARK  Name = 
REMARK  3 active torsions:
REMARK  status: ('A' for Active; 'I' for Inactive)
REMARK    1  A    between atoms: C_1  and  O_2
REMARK    2  A    between atoms: O_2  and  C_3
REMARK    3  A    between atoms: N_17  and  C_18
REMARK                            x       y       z     vdW  Elec       q    Type
REMARK                         _______ _______ _______ _____ _____    ______ ____
ROOT
ATOM      1  C   UNL     1       4.169   4.522  17.985  0.00  0.00    +0.000 A 
ATOM      2  C   UNL     1       3.877   4.218  19.307  0.00  0.00    +0.000 A 
ATOM      3  C   UNL     1       3.109   5.125  20.092  0.00  0.00    +0.000 A 
ATOM      4  C   UNL     1       2.614   6.349  19.607  0.00  0.00    +0.000 A 
ATOM      5  N   UNL     1       1.852   7.233  20.352  0.00  0.00    +0.000 NA
ATOM      6  C   UNL     1       1.450   8.429  19.804  0.00  0.00    +0.000 A 
ATOM      7  C   UNL     1       1.830   8.710  18.490  0.00  0.00    +0.000 A 
ATOM      8  C   UNL     1       2.551   7.824  17.707  0.00  0.00    +0.000 A 
ATOM      9  C   UNL     1       2.955   6.624  18.265  0.00  0.00    +0.000 A 
ATOM     10  C   UNL     1       3.705   5.729  17.479  0.00  0.00    +0.000 A 
ATOM     11  C   UNL     1       1.494  10.002  17.973  0.00  0.00    +0.000 C 
ATOM     12  N   UNL     1       1.860  10.956  18.751  0.00  0.00    +0.000 NA
ATOM     13  N   UNL     1       0.755  11.679  19.074  0.00  0.00    +0.000 NA
ATOM     14  C   UNL     1       0.019  11.129  20.031  0.00  0.00    +0.000 C 
ATOM     15  N   UNL     1      -1.060  11.940  20.300  0.00  0.00    +0.000 N 
ATOM     16  S   UNL     1       0.344   9.536  20.830  0.00  0.00    +0.000 S 
ATOM     17  H   UNL     1      -1.006  12.736  19.661  0.00  0.00    +0.000 HD
ENDROOT
BRANCH  15  18
ATOM     18  C   UNL     1      -1.992  12.236  21.311  0.00  0.00    +0.000 A 
ATOM     19  C   UNL     1      -1.778  12.200  22.682  0.00  0.00    +0.000 A 
ATOM     20  C   UNL     1      -2.829  12.495  23.578  0.00  0.00    +0.000 A 
ATOM     21  C   UNL     1      -4.110  12.820  23.119  0.00  0.00    +0.000 A 
ATOM     22  C   UNL     1      -4.349  12.867  21.756  0.00  0.00    +0.000 A 
ATOM     23  C   UNL     1      -3.303  12.575  20.881  0.00  0.00    +0.000 A 
ATOM     24  F   UNL     1      -3.551  12.646  19.561  0.00  0.00    +0.000 F 
ENDBRANCH  15  18
BRANCH   1  26
ATOM     25  C   UNL     1       5.303   4.384  15.876  0.00  0.00    +0.000 C 
ATOM     26  O   UNL     1       4.862   3.773  17.079  0.00  0.00    +0.000 OA
ENDBRANCH   1  26
TORSDOF 2
ENDMDL
MODEL 4
REMARK VINA RESULT:      -7.4      4.547      7.023
REMARK  Name = 
REMARK  3 active torsions:
REMARK  status: ('A' for Active; 'I' for Inactive)
REMARK    1  A    between atoms: C_1  and  O_2
REMARK    2  A    between atoms: O_2  and  C_3
REMARK    3  A    between atoms: N_17  and  C_18
REMARK                            x       y       z     vdW  Elec       q    Type
REMARK                         _______ _______ _______ _____ _____    ______ ____
ROOT
ATOM      1  C   UNL     1      -4.227  14.306  22.485  0.00  0.00    +0.000 A 
ATOM      2  C   UNL     1      -3.991  14.471  21.128  0.00  0.00    +0.000 A 
ATOM      3  C   UNL     1      -3.072  13.615  20.456  0.00  0.00    +0.000 A 
ATOM      4  C   UNL     1      -2.360  12.583  21.094  0.00  0.00    +0.000 A 
ATOM      5  N   UNL     1      -1.476  11.732  20.452  0.00  0.00    +0.000 NA
ATOM      6  C   UNL     1      -0.790  10.780  21.171  0.00  0.00    +0.000 A 
ATOM      7  C   UNL     1      -1.019  10.704  22.546  0.00  0.00    +0.000 A 
ATOM      8  C   UNL     1      -1.932  11.510  23.205  0.00  0.00    +0.000 A 
ATOM      9  C   UNL     1      -2.616  12.469  22.477  0.00  0.00    +0.000 A 
ATOM     10  C   UNL     1      -3.530  13.303  23.148  0.00  0.00    +0.000 A 
ATOM     11  C   UNL     1      -0.220   9.780  23.292  0.00  0.00    +0.000 C 
ATOM     12  N   UNL     1       1.035   9.914  23.062  0.00  0.00    +0.000 NA
ATOM     13  N   UNL     1       1.507   8.723  22.608  0.00  0.00    +0.000 NA
ATOM     14  C   UNL     1       1.255   8.504  21.324  0.00  0.00    +0.000 C 
ATOM     15  N   UNL     1       1.785   7.288  20.956  0.00  0.00    +0.000 N 
ATOM     16  S   UNL     1       0.317   9.600  20.230  0.00  0.00    +0.000 S 
ATOM     17  H   UNL     1       2.207   6.877  21.791  0.00  0.00    +0.000 HD
ENDROOT
BRANCH  15  18
ATOM     18  C   UNL     1       2.234   6.577  19.828  0.00  0.00    +0.000 A 
ATOM     19  C   UNL     1       2.954   7.081  18.754  0.00  0.00    +0.000 A 
ATOM     20  C   UNL     1       3.307   6.243  17.673  0.00  0.00    +0.000 A 
ATOM     21  C   UNL     1       2.937   4.894  17.644  0.00  0.00    +0.000 A 
ATOM     22  C   UNL     1       2.222   4.366  18.705  0.00  0.00    +0.000 A 
ATOM     23  C   UNL     1       1.880   5.203  19.767  0.00  0.00    +0.000 A 
ATOM     24  F   UNL     1       1.203   4.664  20.797  0.00  0.00    +0.000 F 
ENDBRANCH  15  18
BRANCH   1  26
ATOM     25  C   UNL     1      -4.819  16.376  23.542  0.00  0.00    +0.000 C 
ATOM     26  O   UNL     1      -5.083  15.005  23.285  0.00  0.00    +0.000 OA
ENDBRANCH   1  26
TORSDOF 2
ENDMDL
MODEL 5
REMARK VINA RESULT:      -7.4      4.726     10.474
REMARK  Name = 
REMARK  3 active torsions:
REMARK  status: ('A' for Active; 'I' for Inactive)
REMARK    1  A    between atoms: C_1  and  O_2
REMARK    2  A    between atoms: O_2  and  C_3
REMARK    3  A    between atoms: N_17  and  C_18
REMARK                            x       y       z     vdW  Elec       q    Type
REMARK                         _______ _______ _______ _____ _____    ______ ____
ROOT
ATOM      1  C   UNL     1       3.992   5.811  17.917  0.00  0.00    +0.000 A 
ATOM      2  C   UNL     1       3.595   5.297  19.143  0.00  0.00    +0.000 A 
ATOM      3  C   UNL     1       2.708   6.041  19.973  0.00  0.00    +0.000 A 
ATOM      4  C   UNL     1       2.193   7.304  19.627  0.00  0.00    +0.000 A 
ATOM      5  N   UNL     1       1.317   8.032  20.414  0.00  0.00    +0.000 NA
ATOM      6  C   UNL     1       0.903   9.281  20.012  0.00  0.00    +0.000 A 
ATOM      7  C   UNL     1       1.389   9.775  18.799  0.00  0.00    +0.000 A 
ATOM      8  C   UNL     1       2.227   9.048  17.970  0.00  0.00    +0.000 A 
ATOM      9  C   UNL     1       2.643   7.794  18.382  0.00  0.00    +0.000 A 
ATOM     10  C   UNL     1       3.511   7.062  17.551  0.00  0.00    +0.000 A 
ATOM     11  C   UNL     1       1.032  11.115  18.448  0.00  0.00    +0.000 C 
ATOM     12  N   UNL     1       1.270  11.953  19.391  0.00  0.00    +0.000 NA
ATOM     13  N   UNL     1       0.102  12.573  19.706  0.00  0.00    +0.000 NA
ATOM     14  C   UNL     1      -0.689  11.854  20.492  0.00  0.00    +0.000 C 
ATOM     15  N   UNL     1      -1.832  12.570  20.768  0.00  0.00    +0.000 N 
ATOM     16  S   UNL     1      -0.353  10.173  21.074  0.00  0.00    +0.000 S 
ATOM     17  H   UNL     1      -1.762  13.456  20.262  0.00  0.00    +0.000 HD
ENDROOT
BRANCH  15  18
ATOM     18  C   UNL     1      -2.869  12.671  21.713  0.00  0.00    +0.000 A 
ATOM     19  C   UNL     1      -4.229  12.761  21.454  0.00  0.00    +0.000 A 
ATOM     20  C   UNL     1      -5.152  12.890  22.515  0.00  0.00    +0.000 A 
ATOM     21  C   UNL     1      -4.729  12.941  23.848  0.00  0.00    +0.000 A 
ATOM     22  C   UNL     1      -3.377  12.850  24.133  0.00  0.00    +0.000 A 
ATOM     23  C   UNL     1      -2.476  12.722  23.077  0.00  0.00    +0.000 A 
ATOM     24  F   UNL     1      -1.169  12.615  23.377  0.00  0.00    +0.000 F 
ENDBRANCH  15  18
BRANCH   1  26
ATOM     25  C   UNL     1       5.285   6.031  15.909  0.00  0.00    +0.000 C 
ATOM     26  O   UNL     1       4.806   5.238  16.985  0.00  0.00    +0.000 OA
ENDBRANCH   1  26
TORSDOF 2
ENDMDL
MODEL 6
REMARK VINA RESULT:      -7.3      4.905      8.639
REMARK  Name = 
REMARK  3 active torsions:
REMARK  status: ('A' for Active; 'I' for Inactive)
REMARK    1  A    between atoms: C_1  and  O_2
REMARK    2  A    between atoms: O_2  and  C_3
REMARK    3  A    between atoms: N_17  and  C_18
REMARK                            x       y       z     vdW  Elec       q    Type
REMARK                         _______ _______ _______ _____ _____    ______ ____
ROOT
ATOM      1  C   UNL     1       2.301   3.897  19.634  0.00  0.00    +0.000 A 
ATOM      2  C   UNL     1       2.748   4.190  18.354  0.00  0.00    +0.000 A 
ATOM      3  C   UNL     1       2.757   5.538  17.895  0.00  0.00    +0.000 A 
ATOM      4  C   UNL     1       2.327   6.629  18.673  0.00  0.00    +0.000 A 
ATOM      5  N   UNL     1       2.346   7.946  18.248  0.00  0.00    +0.000 NA
ATOM      6  C   UNL     1       1.861   8.942  19.065  0.00  0.00    +0.000 A 
ATOM      7  C   UNL     1       1.362   8.579  20.317  0.00  0.00    +0.000 A 
ATOM      8  C   UNL     1       1.375   7.275  20.786  0.00  0.00    +0.000 A 
ATOM      9  C   UNL     1       1.861   6.278  19.958  0.00  0.00    +0.000 A 
ATOM     10  C   UNL     1       1.857   4.950  20.424  0.00  0.00    +0.000 A 
ATOM     11  C   UNL     1       0.766   9.611  21.109  0.00  0.00    +0.000 C 
ATOM     12  N   UNL     1      -0.116  10.283  20.462  0.00  0.00    +0.000 NA
ATOM     13  N   UNL     1       0.259  11.590  20.478  0.00  0.00    +0.000 NA
ATOM     14  C   UNL     1       1.195  11.887  19.586  0.00  0.00    +0.000 C 
ATOM     15  N   UNL     1       1.492  13.228  19.666  0.00  0.00    +0.000 N 
ATOM     16  S   UNL     1       2.002  10.711  18.471  0.00  0.00    +0.000 S 
ATOM     17  H   UNL     1       0.921  13.620  20.417  0.00  0.00    +0.000 HD
ENDROOT
BRANCH  15  18
ATOM     18  C   UNL     1       2.028  14.286  18.909  0.00  0.00    +0.000 A 
ATOM     19  C   UNL     1       3.227  14.290  18.210  0.00  0.00    +0.000 A 
ATOM     20  C   UNL     1       3.648  15.448  17.519  0.00  0.00    +0.000 A 
ATOM     21  C   UNL     1       2.883  16.620  17.524  0.00  0.00    +0.000 A 
ATOM     22  C   UNL     1       1.682  16.641  18.212  0.00  0.00    +0.000 A 
ATOM     23  C   UNL     1       1.276  15.491  18.890  0.00  0.00    +0.000 A 
ATOM     24  F   UNL     1       0.096  15.527  19.534  0.00  0.00    +0.000 F 
ENDBRANCH  15  18
BRANCH   1  26
ATOM     25  C   UNL     1       1.710   2.602  21.565  0.00  0.00    +0.000 C 
ATOM     26  O   UNL     1       2.243   2.682  20.251  0.00  0.00    +0.000 OA
ENDBRANCH   1  26
TORSDOF 2
ENDMDL
MODEL 7
REMARK VINA RESULT:      -7.2      3.980      5.594
REMARK  Name = 
REMARK  3 active torsions:
REMARK  status: ('A' for Active; 'I' for Inactive)
REMARK    1  A    between atoms: C_1  and  O_2
REMARK    2  A    between atoms: O_2  and  C_3
REMARK    3  A    between atoms: N_17  and  C_18
REMARK                            x       y       z     vdW  Elec       q    Type
REMARK                         _______ _______ _______ _____ _____    ______ ____
ROOT
ATOM      1  C   UNL     1      -1.280  13.767  22.716  0.00  0.00    +0.000 A 
ATOM      2  C   UNL     1      -1.663  12.662  23.462  0.00  0.00    +0.000 A 
ATOM      3  C   UNL     1      -1.227  11.360  23.082  0.00  0.00    +0.000 A 
ATOM      4  C   UNL     1      -0.412  11.108  21.964  0.00  0.00    +0.000 A 
ATOM      5  N   UNL     1       0.034   9.851  21.591  0.00  0.00    +0.000 NA
ATOM      6  C   UNL     1       0.792   9.698  20.453  0.00  0.00    +0.000 A 
ATOM      7  C   UNL     1       1.091  10.838  19.704  0.00  0.00    +0.000 A 
ATOM      8  C   UNL     1       0.698  12.112  20.080  0.00  0.00    +0.000 A 
ATOM      9  C   UNL     1      -0.067  12.259  21.224  0.00  0.00    +0.000 A 
ATOM     10  C   UNL     1      -0.485  13.550  21.597  0.00  0.00    +0.000 A 
ATOM     11  C   UNL     1       1.789  10.646  18.470  0.00  0.00    +0.000 C 
ATOM     12  N   UNL     1       1.236   9.762  17.722  0.00  0.00    +0.000 NA
ATOM     13  N   UNL     1       2.155   8.792  17.470  0.00  0.00    +0.000 NA
ATOM     14  C   UNL     1       2.297   7.922  18.461  0.00  0.00    +0.000 C 
ATOM     15  N   UNL     1       3.230   6.974  18.106  0.00  0.00    +0.000 N 
ATOM     16  S   UNL     1       1.443   7.989  20.056  0.00  0.00    +0.000 S 
ATOM     17  H   UNL     1       3.576   7.224  17.178  0.00  0.00    +0.000 HD
ENDROOT
BRANCH  15  18
ATOM     18  C   UNL     1       3.629   5.657  18.396  0.00  0.00    +0.000 A 
ATOM     19  C   UNL     1       4.829   5.252  18.963  0.00  0.00    +0.000 A 
ATOM     20  C   UNL     1       5.099   3.880  19.163  0.00  0.00    +0.000 A 
ATOM     21  C   UNL     1       4.180   2.893  18.792  0.00  0.00    +0.000 A 
ATOM     22  C   UNL     1       2.973   3.271  18.227  0.00  0.00    +0.000 A 
ATOM     23  C   UNL     1       2.718   4.628  18.035  0.00  0.00    +0.000 A 
ATOM     24  F   UNL     1       1.531   4.974  17.504  0.00  0.00    +0.000 F 
ENDBRANCH  15  18
BRANCH   1  26
ATOM     25  C   UNL     1      -1.383  15.617  24.239  0.00  0.00    +0.000 C 
ATOM     26  O   UNL     1      -1.574  15.080  22.938  0.00  0.00    +0.000 OA
ENDBRANCH   1  26
TORSDOF 2
ENDMDL
MODEL 8
REMARK VINA RESULT:      -7.2      4.438      8.954
REMARK  Name = 
REMARK  3 active torsions:
REMARK  status: ('A' for Active; 'I' for Inactive)
REMARK    1  A    between atoms: C_1  and  O_2
REMARK    2  A    between atoms: O_2  and  C_3
REMARK    3  A    between atoms: N_17  and  C_18
REMARK                            x       y       z     vdW  Elec       q    Type
REMARK                         _______ _______ _______ _____ _____    ______ ____
ROOT
ATOM      1  C   UNL     1       3.549   4.059  19.037  0.00  0.00    +0.000 A 
ATOM      2  C   UNL     1       3.837   4.629  17.806  0.00  0.00    +0.000 A 
ATOM      3  C   UNL     1       3.462   5.977  17.540  0.00  0.00    +0.000 A 
ATOM      4  C   UNL     1       2.794   6.797  18.469  0.00  0.00    +0.000 A 
ATOM      5  N   UNL     1       2.437   8.113  18.233  0.00  0.00    +0.000 NA
ATOM      6  C   UNL     1       1.745   8.822  19.187  0.00  0.00    +0.000 A 
ATOM      7  C   UNL     1       1.424   8.175  20.382  0.00  0.00    +0.000 A 
ATOM      8  C   UNL     1       1.810   6.875  20.663  0.00  0.00    +0.000 A 
ATOM      9  C   UNL     1       2.503   6.166  19.697  0.00  0.00    +0.000 A 
ATOM     10  C   UNL     1       2.879   4.838  19.972  0.00  0.00    +0.000 A 
ATOM     11  C   UNL     1       0.613   8.893  21.317  0.00  0.00    +0.000 C 
ATOM     12  N   UNL     1      -0.448   9.378  20.782  0.00  0.00    +0.000 NA
ATOM     13  N   UNL     1      -0.437  10.723  20.976  0.00  0.00    +0.000 NA
ATOM     14  C   UNL     1       0.340  11.379  20.124  0.00  0.00    +0.000 C 
ATOM     15  N   UNL     1       0.270  12.728  20.388  0.00  0.00    +0.000 N 
ATOM     16  S   UNL     1       1.376  10.625  18.845  0.00  0.00    +0.000 S 
ATOM     17  H   UNL     1      -0.348  12.847  21.193  0.00  0.00    +0.000 HD
ENDROOT
BRANCH  15  18
ATOM     18  C   UNL     1       0.464  13.982  19.780  0.00  0.00    +0.000 A 
ATOM     19  C   UNL     1      -0.517  14.843  19.309  0.00  0.00    +0.000 A 
ATOM     20  C   UNL     1      -0.162  16.061  18.689  0.00  0.00    +0.000 A 
ATOM     21  C   UNL     1       1.177  16.433  18.523  0.00  0.00    +0.000 A 
ATOM     22  C   UNL     1       2.175  15.592  18.988  0.00  0.00    +0.000 A 
ATOM     23  C   UNL     1       1.812  14.392  19.598  0.00  0.00    +0.000 A 
ATOM     24  F   UNL     1       2.796  13.601  20.060  0.00  0.00    +0.000 F 
ENDBRANCH  15  18
BRANCH   1  26
ATOM     25  C   UNL     1       3.542   1.691  18.652  0.00  0.00    +0.000 C 
ATOM     26  O   UNL     1       3.851   2.804  19.479  0.00  0.00    +0.000 OA
ENDBRANCH   1  26
TORSDOF 2
ENDMDL
MODEL 9
REMARK VINA RESULT:      -7.2      5.504      9.676
REMARK  Name = 
REMARK  3 active torsions:
REMARK  status: ('A' for Active; 'I' for Inactive)
REMARK    1  A    between atoms: C_1  and  O_2
REMARK    2  A    between atoms: O_2  and  C_3
REMARK    3  A    between atoms: N_17  and  C_18
REMARK                            x       y       z     vdW  Elec       q    Type
REMARK                         _______ _______ _______ _____ _____    ______ ____
ROOT
ATOM      1  C   UNL     1       2.318   6.057  19.948  0.00  0.00    +0.000 A 
ATOM      2  C   UNL     1       2.635   6.344  18.628  0.00  0.00    +0.000 A 
ATOM      3  C   UNL     1       2.384   7.644  18.103  0.00  0.00    +0.000 A 
ATOM      4  C   UNL     1       1.815   8.691  18.851  0.00  0.00    +0.000 A 
ATOM      5  N   UNL     1       1.581   9.964  18.361  0.00  0.00    +0.000 NA
ATOM      6  C   UNL     1       0.977  10.910  19.157  0.00  0.00    +0.000 A 
ATOM      7  C   UNL     1       0.619  10.544  20.456  0.00  0.00    +0.000 A 
ATOM      8  C   UNL     1       0.885   9.292  20.988  0.00  0.00    +0.000 A 
ATOM      9  C   UNL     1       1.490   8.344  20.181  0.00  0.00    +0.000 A 
ATOM     10  C   UNL     1       1.743   7.065  20.711  0.00  0.00    +0.000 A 
ATOM     11  C   UNL     1      -0.101  11.506  21.232  0.00  0.00    +0.000 C 
ATOM     12  N   UNL     1      -1.122  11.977  20.612  0.00  0.00    +0.000 NA
ATOM     13  N   UNL     1      -0.979  13.327  20.537  0.00  0.00    +0.000 NA
ATOM     14  C   UNL     1      -0.160  13.724  19.572  0.00  0.00    +0.000 C 
ATOM     15  N   UNL     1      -0.097  15.099  19.565  0.00  0.00    +0.000 N 
ATOM     16  S   UNL     1       0.775  12.637  18.466  0.00  0.00    +0.000 S 
ATOM     17  H   UNL     1      -0.685  15.433  20.332  0.00  0.00    +0.000 HD
ENDROOT
BRANCH  15  18
ATOM     18  C   UNL     1       0.204  16.185  18.723  0.00  0.00    +0.000 A 
ATOM     19  C   UNL     1      -0.698  17.059  18.133  0.00  0.00    +0.000 A 
ATOM     20  C   UNL     1      -0.242  18.088  17.279  0.00  0.00    +0.000 A 
ATOM     21  C   UNL     1       1.118  18.252  16.995  0.00  0.00    +0.000 A 
ATOM     22  C   UNL     1       2.039  17.395  17.574  0.00  0.00    +0.000 A 
ATOM     23  C   UNL     1       1.577  16.384  18.416  0.00  0.00    +0.000 A 
ATOM     24  F   UNL     1       2.489  15.575  18.984  0.00  0.00    +0.000 F 
ENDBRANCH  15  18
BRANCH   1  26
ATOM     25  C   UNL     1       2.088   3.671  20.032  0.00  0.00    +0.000 C 
ATOM     26  O   UNL     1       2.507   4.890  20.628  0.00  0.00    +0.000 OA
ENDBRANCH   1  26
TORSDOF 2
ENDMDL
