MODEL 1
REMARK VINA RESULT:      -7.2      0.000      0.000
REMARK  Name = 
REMARK  10 active torsions:
REMARK  status: ('A' for Active; 'I' for Inactive)
REMARK    1  A    between atoms: C_1  and  C_2
REMARK    2  A    between atoms: C_2  and  C_3
REMARK    3  A    between atoms: C_7  and  C_8
REMARK    4  A    between atoms: C_9  and  N_10
REMARK    5  A    between atoms: C_11  and  C_13
REMARK    6  A    between atoms: C_13  and  O_14
REMARK    7  A    between atoms: O_14  and  C_15
REMARK    8  A    between atoms: C_15  and  C_17
REMARK    9  A    between atoms: C_17  and  N_18
REMARK   10  A    between atoms: C_19  and  C_21
REMARK                            x       y       z     vdW  Elec       q    Type
REMARK                         _______ _______ _______ _____ _____    ______ ____
ROOT
ATOM      1  C   UNL     1       2.505   4.219  21.352  0.00  0.00    +0.000 C 
ENDROOT
BRANCH   1   3
ATOM      2  N   UNL     1       2.455   6.509  20.549  0.00  0.00    +0.000 N 
ATOM      3  C   UNL     1       1.872   5.253  20.413  0.00  0.00    +0.000 C 
ATOM      4  O   UNL     1       0.904   4.983  19.709  0.00  0.00    +0.000 OA
ATOM      5  H   UNL     1       2.855   6.663  21.466  0.00  0.00    +0.000 HD
BRANCH   2  12
ATOM      6  C   UNL     1       1.049   8.545  20.421  0.00  0.00    +0.000 A 
ATOM      7  C   UNL     1       0.614   9.638  19.643  0.00  0.00    +0.000 A 
ATOM      8  C   UNL     1       1.091   9.850  18.353  0.00  0.00    +0.000 A 
ATOM      9  C   UNL     1       2.002   8.960  17.800  0.00  0.00    +0.000 A 
ATOM     10  C   UNL     1       2.456   7.853  18.532  0.00  0.00    +0.000 A 
ATOM     11  C   UNL     1       3.456   6.933  17.885  0.00  0.00    +0.000 C 
ATOM     12  C   UNL     1       1.999   7.660  19.859  0.00  0.00    +0.000 A 
BRANCH   6  14
ATOM     13  C   UNL     1      -0.208   9.527  22.428  0.00  0.00    +0.000 C 
ATOM     14  C   UNL     1       0.327   8.281  21.730  0.00  0.00    +0.000 C 
ENDBRANCH   6  14
ENDBRANCH   2  12
ENDBRANCH   1   3
BRANCH   1  15
ATOM     15  O   UNL     1       2.343   2.883  20.862  0.00  0.00    +0.000 OA
BRANCH  15  16
ATOM     16  C   UNL     1       3.493   2.289  20.440  0.00  0.00    +0.000 C 
ATOM     17  O   UNL     1       4.511   2.164  21.112  0.00  0.00    +0.000 OA
BRANCH  16  18
ATOM     18  C   UNL     1       3.389   1.863  18.986  0.00  0.00    +0.000 C 
BRANCH  18  19
ATOM     19  N   UNL     1       4.382   2.527  18.169  0.00  0.00    +0.000 N 
ATOM     20  C   UNL     1       4.033   3.411  17.172  0.00  0.00    +0.000 C 
ATOM     21  O   UNL     1       2.853   3.637  16.909  0.00  0.00    +0.000 OA
ATOM     22  H   UNL     1       5.354   2.485  18.450  0.00  0.00    +0.000 HD
BRANCH  20  23
ATOM     23  C   UNL     1       5.137   4.040  16.460  0.00  0.00    +0.000 A 
ATOM     24  C   UNL     1       5.243   4.229  15.093  0.00  0.00    +0.000 A 
ATOM     25  C   UNL     1       6.463   4.862  14.718  0.00  0.00    +0.000 A 
ATOM     26  C   UNL     1       7.253   5.142  15.809  0.00  0.00    +0.000 A 
ATOM     27  S   UNL     1       6.521   4.647  17.272  0.00  0.00    +0.000 S 
ENDBRANCH  20  23
ENDBRANCH  18  19
ENDBRANCH  16  18
ENDBRANCH  15  16
ENDBRANCH   1  15
TORSDOF 8
ENDMDL
MODEL 2
REMARK VINA RESULT:      -6.9      5.212      7.099
REMARK  Name = 
REMARK  10 active torsions:
REMARK  status: ('A' for Active; 'I' for Inactive)
REMARK    1  A    between atoms: C_1  and  C_2
REMARK    2  A    between atoms: C_2  and  C_3
REMARK    3  A    between atoms: C_7  and  C_8
REMARK    4  A    between atoms: C_9  and  N_10
REMARK    5  A    between atoms: C_11  and  C_13
REMARK    6  A    between atoms: C_13  and  O_14
REMARK    7  A    between atoms: O_14  and  C_15
REMARK    8  A    between atoms: C_15  and  C_17
REMARK    9  A    between atoms: C_17  and  N_18
REMARK   10  A    between atoms: C_19  and  C_21
REMARK                            x       y       z     vdW  Elec       q    Type
REMARK                         _______ _______ _______ _____ _____    ______ ____
ROOT
ATOM      1  C   UNL     1       7.591   5.031  18.360  0.00  0.00    +0.000 C 
ENDROOT
BRANCH   1   3
ATOM      2  N   UNL     1       5.243   4.678  18.865  0.00  0.00    +0.000 N 
ATOM      3  C   UNL     1       6.208   4.592  17.865  0.00  0.00    +0.000 C 
ATOM      4  O   UNL     1       6.036   4.138  16.739  0.00  0.00    +0.000 OA
ATOM      5  H   UNL     1       5.629   4.586  19.796  0.00  0.00    +0.000 HD
BRANCH   2  12
ATOM      6  C   UNL     1       2.944   5.038  18.015  0.00  0.00    +0.000 A 
ATOM      7  C   UNL     1       1.621   4.557  17.935  0.00  0.00    +0.000 A 
ATOM      8  C   UNL     1       1.250   3.345  18.510  0.00  0.00    +0.000 A 
ATOM      9  C   UNL     1       2.192   2.592  19.199  0.00  0.00    +0.000 A 
ATOM     10  C   UNL     1       3.518   3.035  19.312  0.00  0.00    +0.000 A 
ATOM     11  C   UNL     1       4.497   2.167  20.057  0.00  0.00    +0.000 C 
ATOM     12  C   UNL     1       3.903   4.251  18.694  0.00  0.00    +0.000 A 
BRANCH   6  14
ATOM     13  C   UNL     1       2.491   7.542  18.333  0.00  0.00    +0.000 C 
ATOM     14  C   UNL     1       3.207   6.455  17.538  0.00  0.00    +0.000 C 
ENDBRANCH   6  14
ENDBRANCH   2  12
ENDBRANCH   1   3
BRANCH   1  15
ATOM     15  O   UNL     1       7.670   6.450  18.534  0.00  0.00    +0.000 OA
BRANCH  15  16
ATOM     16  C   UNL     1       7.664   7.167  17.377  0.00  0.00    +0.000 C 
ATOM     17  O   UNL     1       7.917   6.715  16.265  0.00  0.00    +0.000 OA
BRANCH  16  18
ATOM     18  C   UNL     1       7.379   8.635  17.641  0.00  0.00    +0.000 C 
BRANCH  18  19
ATOM     19  N   UNL     1       8.498   9.281  18.292  0.00  0.00    +0.000 N 
ATOM     20  C   UNL     1       8.722  10.636  18.181  0.00  0.00    +0.000 C 
ATOM     21  O   UNL     1       7.998  11.344  17.484  0.00  0.00    +0.000 OA
ATOM     22  H   UNL     1       9.023   8.766  18.989  0.00  0.00    +0.000 HD
BRANCH  20  23
ATOM     23  C   UNL     1       9.859  11.159  18.927  0.00  0.00    +0.000 A 
ATOM     24  C   UNL     1       9.890  11.485  20.272  0.00  0.00    +0.000 A 
ATOM     25  C   UNL     1      11.156  11.989  20.688  0.00  0.00    +0.000 A 
ATOM     26  C   UNL     1      12.057  12.031  19.649  0.00  0.00    +0.000 A 
ATOM     27  S   UNL     1      11.378  11.460  18.188  0.00  0.00    +0.000 S 
ENDBRANCH  20  23
ENDBRANCH  18  19
ENDBRANCH  16  18
ENDBRANCH  15  16
ENDBRANCH   1  15
TORSDOF 8
ENDMDL
MODEL 3
REMARK VINA RESULT:      -6.6      4.549      6.331
REMARK  Name = 
REMARK  10 active torsions:
REMARK  status: ('A' for Active; 'I' for Inactive)
REMARK    1  A    between atoms: C_1  and  C_2
REMARK    2  A    between atoms: C_2  and  C_3
REMARK    3  A    between atoms: C_7  and  C_8
REMARK    4  A    between atoms: C_9  and  N_10
REMARK    5  A    between atoms: C_11  and  C_13
REMARK    6  A    between atoms: C_13  and  O_14
REMARK    7  A    between atoms: O_14  and  C_15
REMARK    8  A    between atoms: C_15  and  C_17
REMARK    9  A    between atoms: C_17  and  N_18
REMARK   10  A    between atoms: C_19  and  C_21
REMARK                            x       y       z     vdW  Elec       q    Type
REMARK                         _______ _______ _______ _____ _____    ______ ____
ROOT
ATOM      1  C   UNL     1       6.342   4.861  17.339  0.00  0.00    +0.000 C 
ENDROOT
BRANCH   1   3
ATOM      2  N   UNL     1       4.642   4.539  19.042  0.00  0.00    +0.000 N 
ATOM      3  C   UNL     1       4.921   4.402  17.685  0.00  0.00    +0.000 C 
ATOM      4  O   UNL     1       4.181   3.894  16.848  0.00  0.00    +0.000 OA
ATOM      5  H   UNL     1       5.470   4.492  19.623  0.00  0.00    +0.000 HD
BRANCH   2  12
ATOM      6  C   UNL     1       2.250   4.886  19.586  0.00  0.00    +0.000 A 
ATOM      7  C   UNL     1       1.103   4.402  20.249  0.00  0.00    +0.000 A 
ATOM      8  C   UNL     1       1.117   3.196  20.943  0.00  0.00    +0.000 A 
ATOM      9  C   UNL     1       2.289   2.452  21.010  0.00  0.00    +0.000 A 
ATOM     10  C   UNL     1       3.457   2.899  20.376  0.00  0.00    +0.000 A 
ATOM     11  C   UNL     1       4.691   2.042  20.470  0.00  0.00    +0.000 C 
ATOM     12  C   UNL     1       3.431   4.108  19.637  0.00  0.00    +0.000 A 
BRANCH   6  14
ATOM     13  C   UNL     1       2.100   7.397  20.082  0.00  0.00    +0.000 C 
ATOM     14  C   UNL     1       2.198   6.297  19.030  0.00  0.00    +0.000 C 
ENDBRANCH   6  14
ENDBRANCH   2  12
ENDBRANCH   1   3
BRANCH   1  15
ATOM     15  O   UNL     1       7.256   4.624  18.415  0.00  0.00    +0.000 OA
BRANCH  15  16
ATOM     16  C   UNL     1       7.715   5.749  19.029  0.00  0.00    +0.000 C 
ATOM     17  O   UNL     1       7.959   5.851  20.226  0.00  0.00    +0.000 OA
BRANCH  16  18
ATOM     18  C   UNL     1       7.817   6.907  18.051  0.00  0.00    +0.000 C 
BRANCH  18  19
ATOM     19  N   UNL     1       8.467   8.051  18.652  0.00  0.00    +0.000 N 
ATOM     20  C   UNL     1       8.348   9.318  18.123  0.00  0.00    +0.000 C 
ATOM     21  O   UNL     1       7.715   9.517  17.088  0.00  0.00    +0.000 OA
ATOM     22  H   UNL     1       8.866   7.956  19.578  0.00  0.00    +0.000 HD
BRANCH  20  23
ATOM     23  C   UNL     1       9.018  10.382  18.858  0.00  0.00    +0.000 A 
ATOM     24  C   UNL     1       9.699  10.261  20.057  0.00  0.00    +0.000 A 
ATOM     25  C   UNL     1      10.225  11.501  20.520  0.00  0.00    +0.000 A 
ATOM     26  C   UNL     1       9.933  12.535  19.660  0.00  0.00    +0.000 A 
ATOM     27  S   UNL     1       9.037  12.006  18.304  0.00  0.00    +0.000 S 
ENDBRANCH  20  23
ENDBRANCH  18  19
ENDBRANCH  16  18
ENDBRANCH  15  16
ENDBRANCH   1  15
TORSDOF 8
ENDMDL
MODEL 4
REMARK VINA RESULT:      -6.6      5.539      7.302
REMARK  Name = 
REMARK  10 active torsions:
REMARK  status: ('A' for Active; 'I' for Inactive)
REMARK    1  A    between atoms: C_1  and  C_2
REMARK    2  A    between atoms: C_2  and  C_3
REMARK    3  A    between atoms: C_7  and  C_8
REMARK    4  A    between atoms: C_9  and  N_10
REMARK    5  A    between atoms: C_11  and  C_13
REMARK    6  A    between atoms: C_13  and  O_14
REMARK    7  A    between atoms: O_14  and  C_15
REMARK    8  A    between atoms: C_15  and  C_17
REMARK    9  A    between atoms: C_17  and  N_18
REMARK   10  A    between atoms: C_19  and  C_21
REMARK                            x       y       z     vdW  Elec       q    Type
REMARK                         _______ _______ _______ _____ _____    ______ ____
ROOT
ATOM      1  C   UNL     1       7.233   5.637  18.849  0.00  0.00    +0.000 C 
ENDROOT
BRANCH   1   3
ATOM      2  N   UNL     1       4.931   4.928  19.153  0.00  0.00    +0.000 N 
ATOM      3  C   UNL     1       5.983   4.989  18.243  0.00  0.00    +0.000 C 
ATOM      4  O   UNL     1       5.983   4.510  17.113  0.00  0.00    +0.000 OA
ATOM      5  H   UNL     1       5.242   4.900  20.116  0.00  0.00    +0.000 HD
BRANCH   2  12
ATOM      6  C   UNL     1       2.642   4.972  18.208  0.00  0.00    +0.000 A 
ATOM      7  C   UNL     1       1.426   4.285  18.015  0.00  0.00    +0.000 A 
ATOM      8  C   UNL     1       1.246   2.981  18.466  0.00  0.00    +0.000 A 
ATOM      9  C   UNL     1       2.275   2.337  19.143  0.00  0.00    +0.000 A 
ATOM     10  C   UNL     1       3.498   2.985  19.367  0.00  0.00    +0.000 A 
ATOM     11  C   UNL     1       4.581   2.231  20.091  0.00  0.00    +0.000 C 
ATOM     12  C   UNL     1       3.693   4.299  18.873  0.00  0.00    +0.000 A 
BRANCH   6  14
ATOM     13  C   UNL     1       2.389   7.386  19.033  0.00  0.00    +0.000 C 
ATOM     14  C   UNL     1       2.677   6.450  17.864  0.00  0.00    +0.000 C 
ENDBRANCH   6  14
ENDBRANCH   2  12
ENDBRANCH   1   3
BRANCH   1  15
ATOM     15  O   UNL     1       8.001   6.338  17.865  0.00  0.00    +0.000 OA
BRANCH  15  16
ATOM     16  C   UNL     1       7.803   7.685  17.842  0.00  0.00    +0.000 C 
ATOM     17  O   UNL     1       7.143   8.287  17.003  0.00  0.00    +0.000 OA
BRANCH  16  18
ATOM     18  C   UNL     1       8.577   8.373  18.954  0.00  0.00    +0.000 C 
BRANCH  18  19
ATOM     19  N   UNL     1       9.050   9.676  18.539  0.00  0.00    +0.000 N 
ATOM     20  C   UNL     1       9.377  10.657  19.451  0.00  0.00    +0.000 C 
ATOM     21  O   UNL     1       9.236  10.473  20.658  0.00  0.00    +0.000 OA
ATOM     22  H   UNL     1       9.320   9.814  17.573  0.00  0.00    +0.000 HD
BRANCH  20  23
ATOM     23  C   UNL     1       9.883  11.903  18.893  0.00  0.00    +0.000 A 
ATOM     24  C   UNL     1       9.876  12.280  17.561  0.00  0.00    +0.000 A 
ATOM     25  C   UNL     1      10.466  13.559  17.347  0.00  0.00    +0.000 A 
ATOM     26  C   UNL     1      10.904  14.124  18.522  0.00  0.00    +0.000 A 
ATOM     27  S   UNL     1      10.598  13.119  19.870  0.00  0.00    +0.000 S 
ENDBRANCH  20  23
ENDBRANCH  18  19
ENDBRANCH  16  18
ENDBRANCH  15  16
ENDBRANCH   1  15
TORSDOF 8
ENDMDL
MODEL 5
REMARK VINA RESULT:      -6.6      4.640      6.691
REMARK  Name = 
REMARK  10 active torsions:
REMARK  status: ('A' for Active; 'I' for Inactive)
REMARK    1  A    between atoms: C_1  and  C_2
REMARK    2  A    between atoms: C_2  and  C_3
REMARK    3  A    between atoms: C_7  and  C_8
REMARK    4  A    between atoms: C_9  and  N_10
REMARK    5  A    between atoms: C_11  and  C_13
REMARK    6  A    between atoms: C_13  and  O_14
REMARK    7  A    between atoms: O_14  and  C_15
REMARK    8  A    between atoms: C_15  and  C_17
REMARK    9  A    between atoms: C_17  and  N_18
REMARK   10  A    between atoms: C_19  and  C_21
REMARK                            x       y       z     vdW  Elec       q    Type
REMARK                         _______ _______ _______ _____ _____    ______ ____
ROOT
ATOM      1  C   UNL     1       6.480   4.921  17.044  0.00  0.00    +0.000 C 
ENDROOT
BRANCH   1   3
ATOM      2  N   UNL     1       4.876   4.719  18.855  0.00  0.00    +0.000 N 
ATOM      3  C   UNL     1       5.073   4.511  17.493  0.00  0.00    +0.000 C 
ATOM      4  O   UNL     1       4.276   3.980  16.726  0.00  0.00    +0.000 OA
ATOM      5  H   UNL     1       5.735   4.682  19.389  0.00  0.00    +0.000 HD
BRANCH   2  12
ATOM      6  C   UNL     1       3.503   3.041  20.053  0.00  0.00    +0.000 A 
ATOM      7  C   UNL     1       2.273   2.742  20.676  0.00  0.00    +0.000 A 
ATOM      8  C   UNL     1       1.261   3.690  20.783  0.00  0.00    +0.000 A 
ATOM      9  C   UNL     1       1.446   4.960  20.250  0.00  0.00    +0.000 A 
ATOM     10  C   UNL     1       2.648   5.300  19.614  0.00  0.00    +0.000 A 
ATOM     11  C   UNL     1       2.797   6.696  19.070  0.00  0.00    +0.000 C 
ATOM     12  C   UNL     1       3.693   4.344  19.539  0.00  0.00    +0.000 A 
BRANCH   6  14
ATOM     13  C   UNL     1       5.087   1.295  21.061  0.00  0.00    +0.000 C 
ATOM     14  C   UNL     1       4.463   1.892  19.804  0.00  0.00    +0.000 C 
ENDBRANCH   6  14
ENDBRANCH   2  12
ENDBRANCH   1   3
BRANCH   1  15
ATOM     15  O   UNL     1       7.444   4.750  18.089  0.00  0.00    +0.000 OA
BRANCH  15  16
ATOM     16  C   UNL     1       7.652   5.854  18.857  0.00  0.00    +0.000 C 
ATOM     17  O   UNL     1       7.701   5.863  20.082  0.00  0.00    +0.000 OA
BRANCH  16  18
ATOM     18  C   UNL     1       7.740   7.108  18.005  0.00  0.00    +0.000 C 
BRANCH  18  19
ATOM     19  N   UNL     1       8.552   8.123  18.640  0.00  0.00    +0.000 N 
ATOM     20  C   UNL     1       8.448   9.455  18.304  0.00  0.00    +0.000 C 
ATOM     21  O   UNL     1       7.686   9.828  17.415  0.00  0.00    +0.000 OA
ATOM     22  H   UNL     1       9.076   7.880  19.472  0.00  0.00    +0.000 HD
BRANCH  20  23
ATOM     23  C   UNL     1       9.294  10.371  19.057  0.00  0.00    +0.000 A 
ATOM     24  C   UNL     1       9.258  10.602  20.422  0.00  0.00    +0.000 A 
ATOM     25  C   UNL     1      10.210  11.576  20.841  0.00  0.00    +0.000 A 
ATOM     26  C   UNL     1      10.948  12.059  19.785  0.00  0.00    +0.000 A 
ATOM     27  S   UNL     1      10.496  11.336  18.304  0.00  0.00    +0.000 S 
ENDBRANCH  20  23
ENDBRANCH  18  19
ENDBRANCH  16  18
ENDBRANCH  15  16
ENDBRANCH   1  15
TORSDOF 8
ENDMDL
MODEL 6
REMARK VINA RESULT:      -6.5      6.632      8.068
REMARK  Name = 
REMARK  10 active torsions:
REMARK  status: ('A' for Active; 'I' for Inactive)
REMARK    1  A    between atoms: C_1  and  C_2
REMARK    2  A    between atoms: C_2  and  C_3
REMARK    3  A    between atoms: C_7  and  C_8
REMARK    4  A    between atoms: C_9  and  N_10
REMARK    5  A    between atoms: C_11  and  C_13
REMARK    6  A    between atoms: C_13  and  O_14
REMARK    7  A    between atoms: O_14  and  C_15
REMARK    8  A    between atoms: C_15  and  C_17
REMARK    9  A    between atoms: C_17  and  N_18
REMARK   10  A    between atoms: C_19  and  C_21
REMARK                            x       y       z     vdW  Elec       q    Type
REMARK                         _______ _______ _______ _____ _____    ______ ____
ROOT
ATOM      1  C   UNL     1       8.664   8.624  18.390  0.00  0.00    +0.000 C 
ENDROOT
BRANCH   1   3
ATOM      2  N   UNL     1       9.643  10.628  19.348  0.00  0.00    +0.000 N 
ATOM      3  C   UNL     1       8.710  10.155  18.429  0.00  0.00    +0.000 C 
ATOM      4  O   UNL     1       7.934  10.845  17.776  0.00  0.00    +0.000 OA
ATOM      5  H   UNL     1       9.812   9.981  20.108  0.00  0.00    +0.000 HD
BRANCH   2  12
ATOM      6  C   UNL     1      10.427  12.893  18.722  0.00  0.00    +0.000 A 
ATOM      7  C   UNL     1      10.611  14.234  19.116  0.00  0.00    +0.000 A 
ATOM      8  C   UNL     1      10.220  14.684  20.373  0.00  0.00    +0.000 A 
ATOM      9  C   UNL     1       9.653  13.797  21.279  0.00  0.00    +0.000 A 
ATOM     10  C   UNL     1       9.459  12.451  20.935  0.00  0.00    +0.000 A 
ATOM     11  C   UNL     1       8.825  11.540  21.951  0.00  0.00    +0.000 C 
ATOM     12  C   UNL     1       9.823  12.002  19.640  0.00  0.00    +0.000 A 
BRANCH   6  14
ATOM     13  C   UNL     1      12.330  13.207  17.033  0.00  0.00    +0.000 C 
ATOM     14  C   UNL     1      11.064  12.449  17.418  0.00  0.00    +0.000 C 
ENDBRANCH   6  14
ENDBRANCH   2  12
ENDBRANCH   1   3
BRANCH   1  15
ATOM     15  O   UNL     1       7.455   8.141  17.793  0.00  0.00    +0.000 OA
BRANCH  15  16
ATOM     16  C   UNL     1       7.461   6.813  17.491  0.00  0.00    +0.000 C 
ATOM     17  O   UNL     1       7.434   6.347  16.357  0.00  0.00    +0.000 OA
BRANCH  16  18
ATOM     18  C   UNL     1       7.425   5.963  18.749  0.00  0.00    +0.000 C 
BRANCH  18  19
ATOM     19  N   UNL     1       6.557   4.817  18.588  0.00  0.00    +0.000 N 
ATOM     20  C   UNL     1       5.237   4.841  18.980  0.00  0.00    +0.000 C 
ATOM     21  O   UNL     1       4.756   5.832  19.526  0.00  0.00    +0.000 OA
ATOM     22  H   UNL     1       6.870   4.045  18.012  0.00  0.00    +0.000 HD
BRANCH  20  23
ATOM     23  C   UNL     1       4.469   3.632  18.715  0.00  0.00    +0.000 A 
ATOM     24  C   UNL     1       3.831   3.298  17.533  0.00  0.00    +0.000 A 
ATOM     25  C   UNL     1       3.150   2.048  17.609  0.00  0.00    +0.000 A 
ATOM     26  C   UNL     1       3.290   1.463  18.846  0.00  0.00    +0.000 A 
ATOM     27  S   UNL     1       4.241   2.414  19.901  0.00  0.00    +0.000 S 
ENDBRANCH  20  23
ENDBRANCH  18  19
ENDBRANCH  16  18
ENDBRANCH  15  16
ENDBRANCH   1  15
TORSDOF 8
ENDMDL
MODEL 7
REMARK VINA RESULT:      -6.5      5.294      7.041
REMARK  Name = 
REMARK  10 active torsions:
REMARK  status: ('A' for Active; 'I' for Inactive)
REMARK    1  A    between atoms: C_1  and  C_2
REMARK    2  A    between atoms: C_2  and  C_3
REMARK    3  A    between atoms: C_7  and  C_8
REMARK    4  A    between atoms: C_9  and  N_10
REMARK    5  A    between atoms: C_11  and  C_13
REMARK    6  A    between atoms: C_13  and  O_14
REMARK    7  A    between atoms: O_14  and  C_15
REMARK    8  A    between atoms: C_15  and  C_17
REMARK    9  A    between atoms: C_17  and  N_18
REMARK   10  A    between atoms: C_19  and  C_21
REMARK                            x       y       z     vdW  Elec       q    Type
REMARK                         _______ _______ _______ _____ _____    ______ ____
ROOT
ATOM      1  C   UNL     1       6.248   5.625  17.673  0.00  0.00    +0.000 C 
ENDROOT
BRANCH   1   3
ATOM      2  N   UNL     1       3.990   4.838  18.087  0.00  0.00    +0.000 N 
ATOM      3  C   UNL     1       5.288   4.857  18.588  0.00  0.00    +0.000 C 
ATOM      4  O   UNL     1       5.646   4.407  19.673  0.00  0.00    +0.000 OA
ATOM      5  H   UNL     1       3.783   5.631  17.494  0.00  0.00    +0.000 HD
BRANCH   2  12
ATOM      6  C   UNL     1       2.074   5.030  19.646  0.00  0.00    +0.000 A 
ATOM      7  C   UNL     1       1.036   4.370  20.335  0.00  0.00    +0.000 A 
ATOM      8  C   UNL     1       0.815   3.004  20.185  0.00  0.00    +0.000 A 
ATOM      9  C   UNL     1       1.643   2.259  19.355  0.00  0.00    +0.000 A 
ATOM     10  C   UNL     1       2.694   2.870  18.657  0.00  0.00    +0.000 A 
ATOM     11  C   UNL     1       3.547   2.014  17.760  0.00  0.00    +0.000 C 
ATOM     12  C   UNL     1       2.894   4.268  18.781  0.00  0.00    +0.000 A 
BRANCH   6  14
ATOM     13  C   UNL     1       2.263   7.468  18.876  0.00  0.00    +0.000 C 
ATOM     14  C   UNL     1       2.364   6.471  20.025  0.00  0.00    +0.000 C 
ENDBRANCH   6  14
ENDBRANCH   2  12
ENDBRANCH   1   3
BRANCH   1  15
ATOM     15  O   UNL     1       7.301   6.255  18.411  0.00  0.00    +0.000 OA
BRANCH  15  16
ATOM     16  C   UNL     1       7.762   7.415  17.867  0.00  0.00    +0.000 C 
ATOM     17  O   UNL     1       7.647   7.737  16.690  0.00  0.00    +0.000 OA
BRANCH  16  18
ATOM     18  C   UNL     1       8.518   8.240  18.893  0.00  0.00    +0.000 C 
BRANCH  18  19
ATOM     19  N   UNL     1       8.823   9.562  18.388  0.00  0.00    +0.000 N 
ATOM     20  C   UNL     1       9.341  10.550  19.196  0.00  0.00    +0.000 C 
ATOM     21  O   UNL     1       9.524  10.357  20.396  0.00  0.00    +0.000 OA
ATOM     22  H   UNL     1       8.829   9.712  17.386  0.00  0.00    +0.000 HD
BRANCH  20  23
ATOM     23  C   UNL     1       9.643  11.816  18.543  0.00  0.00    +0.000 A 
ATOM     24  C   UNL     1       8.804  12.911  18.427  0.00  0.00    +0.000 A 
ATOM     25  C   UNL     1       9.399  13.989  17.711  0.00  0.00    +0.000 A 
ATOM     26  C   UNL     1      10.678  13.688  17.302  0.00  0.00    +0.000 A 
ATOM     27  S   UNL     1      11.153  12.119  17.787  0.00  0.00    +0.000 S 
ENDBRANCH  20  23
ENDBRANCH  18  19
ENDBRANCH  16  18
ENDBRANCH  15  16
ENDBRANCH   1  15
TORSDOF 8
ENDMDL
MODEL 8
REMARK VINA RESULT:      -6.4      6.894      9.018
REMARK  Name = 
REMARK  10 active torsions:
REMARK  status: ('A' for Active; 'I' for Inactive)
REMARK    1  A    between atoms: C_1  and  C_2
REMARK    2  A    between atoms: C_2  and  C_3
REMARK    3  A    between atoms: C_7  and  C_8
REMARK    4  A    between atoms: C_9  and  N_10
REMARK    5  A    between atoms: C_11  and  C_13
REMARK    6  A    between atoms: C_13  and  O_14
REMARK    7  A    between atoms: O_14  and  C_15
REMARK    8  A    between atoms: C_15  and  C_17
REMARK    9  A    between atoms: C_17  and  N_18
REMARK   10  A    between atoms: C_19  and  C_21
REMARK                            x       y       z     vdW  Elec       q    Type
REMARK                         _______ _______ _______ _____ _____    ______ ____
ROOT
ATOM      1  C   UNL     1       7.500   8.051  17.331  0.00  0.00    +0.000 C 
ENDROOT
BRANCH   1   3
ATOM      2  N   UNL     1       5.543   6.670  16.940  0.00  0.00    +0.000 N 
ATOM      3  C   UNL     1       6.683   6.815  17.725  0.00  0.00    +0.000 C 
ATOM      4  O   UNL     1       6.985   6.117  18.687  0.00  0.00    +0.000 OA
ATOM      5  H   UNL     1       5.203   7.548  16.568  0.00  0.00    +0.000 HD
BRANCH   2  12
ATOM      6  C   UNL     1       4.760   4.331  16.707  0.00  0.00    +0.000 A 
ATOM      7  C   UNL     1       3.720   3.402  16.918  0.00  0.00    +0.000 A 
ATOM      8  C   UNL     1       2.532   3.769  17.542  0.00  0.00    +0.000 A 
ATOM      9  C   UNL     1       2.345   5.083  17.952  0.00  0.00    +0.000 A 
ATOM     10  C   UNL     1       3.347   6.044  17.754  0.00  0.00    +0.000 A 
ATOM     11  C   UNL     1       3.093   7.448  18.234  0.00  0.00    +0.000 C 
ATOM     12  C   UNL     1       4.572   5.660  17.153  0.00  0.00    +0.000 A 
BRANCH   6  14
ATOM     13  C   UNL     1       5.800   4.242  14.365  0.00  0.00    +0.000 C 
ATOM     14  C   UNL     1       5.929   3.893  15.844  0.00  0.00    +0.000 C 
ENDBRANCH   6  14
ENDBRANCH   2  12
ENDBRANCH   1   3
BRANCH   1  15
ATOM     15  O   UNL     1       8.423   8.430  18.358  0.00  0.00    +0.000 OA
BRANCH  15  16
ATOM     16  C   UNL     1       8.646   9.770  18.456  0.00  0.00    +0.000 C 
ATOM     17  O   UNL     1       8.302  10.605  17.627  0.00  0.00    +0.000 OA
BRANCH  16  18
ATOM     18  C   UNL     1       9.453  10.103  19.699  0.00  0.00    +0.000 C 
BRANCH  18  19
ATOM     19  N   UNL     1       9.672  11.528  19.820  0.00  0.00    +0.000 N 
ATOM     20  C   UNL     1      10.900  12.100  19.568  0.00  0.00    +0.000 C 
ATOM     21  O   UNL     1      11.873  11.410  19.271  0.00  0.00    +0.000 OA
ATOM     22  H   UNL     1       8.871  12.140  19.913  0.00  0.00    +0.000 HD
BRANCH  20  23
ATOM     23  C   UNL     1      10.964  13.551  19.684  0.00  0.00    +0.000 A 
ATOM     24  C   UNL     1      10.676  14.307  20.807  0.00  0.00    +0.000 A 
ATOM     25  C   UNL     1      10.820  15.706  20.581  0.00  0.00    +0.000 A 
ATOM     26  C   UNL     1      11.217  15.979  19.293  0.00  0.00    +0.000 A 
ATOM     27  S   UNL     1      11.418  14.555  18.369  0.00  0.00    +0.000 S 
ENDBRANCH  20  23
ENDBRANCH  18  19
ENDBRANCH  16  18
ENDBRANCH  15  16
ENDBRANCH   1  15
TORSDOF 8
ENDMDL
MODEL 9
REMARK VINA RESULT:      -6.4      7.209      9.492
REMARK  Name = 
REMARK  10 active torsions:
REMARK  status: ('A' for Active; 'I' for Inactive)
REMARK    1  A    between atoms: C_1  and  C_2
REMARK    2  A    between atoms: C_2  and  C_3
REMARK    3  A    between atoms: C_7  and  C_8
REMARK    4  A    between atoms: C_9  and  N_10
REMARK    5  A    between atoms: C_11  and  C_13
REMARK    6  A    between atoms: C_13  and  O_14
REMARK    7  A    between atoms: O_14  and  C_15
REMARK    8  A    between atoms: C_15  and  C_17
REMARK    9  A    between atoms: C_17  and  N_18
REMARK   10  A    between atoms: C_19  and  C_21
REMARK                            x       y       z     vdW  Elec       q    Type
REMARK                         _______ _______ _______ _____ _____    ______ ____
ROOT
ATOM      1  C   UNL     1       8.018   8.805  17.781  0.00  0.00    +0.000 C 
ENDROOT
BRANCH   1   3
ATOM      2  N   UNL     1       6.306   7.255  17.034  0.00  0.00    +0.000 N 
ATOM      3  C   UNL     1       7.417   7.397  17.862  0.00  0.00    +0.000 C 
ATOM      4  O   UNL     1       7.839   6.555  18.647  0.00  0.00    +0.000 OA
ATOM      5  H   UNL     1       5.825   8.129  16.863  0.00  0.00    +0.000 HD
BRANCH   2  12
ATOM      6  C   UNL     1       5.956   4.903  16.339  0.00  0.00    +0.000 A 
ATOM      7  C   UNL     1       5.082   3.797  16.297  0.00  0.00    +0.000 A 
ATOM      8  C   UNL     1       3.814   3.849  16.866  0.00  0.00    +0.000 A 
ATOM      9  C   UNL     1       3.378   5.019  17.475  0.00  0.00    +0.000 A 
ATOM     10  C   UNL     1       4.208   6.147  17.532  0.00  0.00    +0.000 A 
ATOM     11  C   UNL     1       3.687   7.381  18.219  0.00  0.00    +0.000 C 
ATOM     12  C   UNL     1       5.515   6.081  16.986  0.00  0.00    +0.000 A 
BRANCH   6  14
ATOM     13  C   UNL     1       7.023   4.776  14.011  0.00  0.00    +0.000 C 
ATOM     14  C   UNL     1       7.232   4.822  15.521  0.00  0.00    +0.000 C 
ENDBRANCH   6  14
ENDBRANCH   2  12
ENDBRANCH   1   3
BRANCH   1  15
ATOM     15  O   UNL     1       8.940   9.053  18.848  0.00  0.00    +0.000 OA
BRANCH  15  16
ATOM     16  C   UNL     1       9.214  10.369  19.068  0.00  0.00    +0.000 C 
ATOM     17  O   UNL     1       8.940  10.986  20.091  0.00  0.00    +0.000 OA
BRANCH  16  18
ATOM     18  C   UNL     1       9.841  11.011  17.843  0.00  0.00    +0.000 C 
BRANCH  18  19
ATOM     19  N   UNL     1       9.639  12.444  17.836  0.00  0.00    +0.000 N 
ATOM     20  C   UNL     1      10.690  13.329  17.941  0.00  0.00    +0.000 C 
ATOM     21  O   UNL     1      11.843  12.930  18.090  0.00  0.00    +0.000 OA
ATOM     22  H   UNL     1       8.733  12.809  17.566  0.00  0.00    +0.000 HD
BRANCH  20  23
ATOM     23  C   UNL     1      10.344  14.742  17.874  0.00  0.00    +0.000 A 
ATOM     24  C   UNL     1       9.308  15.375  18.539  0.00  0.00    +0.000 A 
ATOM     25  C   UNL     1       9.230  16.767  18.240  0.00  0.00    +0.000 A 
ATOM     26  C   UNL     1      10.211  17.157  17.358  0.00  0.00    +0.000 A 
ATOM     27  S   UNL     1      11.218  15.853  16.902  0.00  0.00    +0.000 S 
ENDBRANCH  20  23
ENDBRANCH  18  19
ENDBRANCH  16  18
ENDBRANCH  15  16
ENDBRANCH   1  15
TORSDOF 8
ENDMDL
