MODEL 1
REMARK VINA RESULT:      -8.1      0.000      0.000
REMARK  Name = 
REMARK  7 active torsions:
REMARK  status: ('A' for Active; 'I' for Inactive)
REMARK    1  A    between atoms: C_1  and  C_2
REMARK    2  A    between atoms: C_2  and  C_3
REMARK    3  A    between atoms: C_4  and  C_5
REMARK    4  A    between atoms: C_5  and  C_6
REMARK    5  A    between atoms: C_7  and  O_8
REMARK    6  A    between atoms: C_10  and  O_11
REMARK    7  A    between atoms: C_16  and  C_17
REMARK                            x       y       z     vdW  Elec       q    Type
REMARK                         _______ _______ _______ _____ _____    ______ ____
ROOT
ATOM      1  C   UNL     1       2.312   3.934  17.931  0.00  0.00    +0.000 A 
ATOM      2  C   UNL     1       3.025   2.884  17.335  0.00  0.00    +0.000 A 
ATOM      3  C   UNL     1       4.271   3.096  16.748  0.00  0.00    +0.000 A 
ATOM      4  C   UNL     1       4.830   4.371  16.737  0.00  0.00    +0.000 A 
ATOM      5  C   UNL     1       4.128   5.449  17.282  0.00  0.00    +0.000 A 
ATOM      6  C   UNL     1       4.668   6.826  17.274  0.00  0.00    +0.000 A 
ATOM      7  O   UNL     1       5.780   7.139  16.878  0.00  0.00    +0.000 OA
ATOM      8  C   UNL     1       3.782   7.878  17.782  0.00  0.00    +0.000 A 
ATOM      9  C   UNL     1       2.595   7.560  18.308  0.00  0.00    +0.000 A 
ATOM     10  O   UNL     1       2.119   6.261  18.398  0.00  0.00    +0.000 OA
ATOM     11  C   UNL     1       2.870   5.232  17.865  0.00  0.00    +0.000 A 
ENDROOT
BRANCH   9  12
ATOM     12  C   UNL     1       1.675   8.602  18.814  0.00  0.00    +0.000 A 
ATOM     13  C   UNL     1       1.135   9.575  17.954  0.00  0.00    +0.000 A 
ATOM     14  C   UNL     1       0.231  10.532  18.419  0.00  0.00    +0.000 A 
ATOM     15  C   UNL     1      -0.138  10.541  19.761  0.00  0.00    +0.000 A 
ATOM     16  C   UNL     1       0.406   9.598  20.630  0.00  0.00    +0.000 A 
ATOM     17 BR   UNL     1      -0.094   9.612  22.454  0.00  0.00    +0.000 Br
ATOM     18  C   UNL     1       1.307   8.635  20.168  0.00  0.00    +0.000 A 
ENDBRANCH   9  12
BRANCH   2  19
ATOM     19  O   UNL     1       2.575   1.594  17.282  0.00  0.00    +0.000 OA
ATOM     20  H   UNL     1       3.304   0.969  17.422  0.00  0.00    +0.000 HD
ENDBRANCH   2  19
BRANCH   4  21
ATOM     21  O   UNL     1       6.061   4.542  16.175  0.00  0.00    +0.000 OA
ATOM     22  H   UNL     1       6.048   5.282  15.548  0.00  0.00    +0.000 HD
ENDBRANCH   4  21
BRANCH   1  23
ATOM     23  C   UNL     1       0.990   3.708  18.630  0.00  0.00    +0.000 C 
BRANCH  23  27
ATOM     24  C   UNL     1       1.638   2.328  22.221  0.00  0.00    +0.000 C 
ATOM     25  C   UNL     1       1.584   3.274  21.053  0.00  0.00    +0.000 C 
ATOM     26  C   UNL     1       2.094   4.670  21.272  0.00  0.00    +0.000 C 
ATOM     27  C   UNL     1       1.109   2.853  19.863  0.00  0.00    +0.000 C 
ENDBRANCH  23  27
ENDBRANCH   1  23
TORSDOF 5
ENDMDL
MODEL 2
REMARK VINA RESULT:      -7.5      1.686      4.224
REMARK  Name = 
REMARK  7 active torsions:
REMARK  status: ('A' for Active; 'I' for Inactive)
REMARK    1  A    between atoms: C_1  and  C_2
REMARK    2  A    between atoms: C_2  and  C_3
REMARK    3  A    between atoms: C_4  and  C_5
REMARK    4  A    between atoms: C_5  and  C_6
REMARK    5  A    between atoms: C_7  and  O_8
REMARK    6  A    between atoms: C_10  and  O_11
REMARK    7  A    between atoms: C_16  and  C_17
REMARK                            x       y       z     vdW  Elec       q    Type
REMARK                         _______ _______ _______ _____ _____    ______ ____
ROOT
ATOM      1  C   UNL     1       4.030   4.812  17.377  0.00  0.00    +0.000 A 
ATOM      2  C   UNL     1       4.523   3.530  17.094  0.00  0.00    +0.000 A 
ATOM      3  C   UNL     1       4.033   2.403  17.751  0.00  0.00    +0.000 A 
ATOM      4  C   UNL     1       3.040   2.537  18.717  0.00  0.00    +0.000 A 
ATOM      5  C   UNL     1       2.557   3.803  19.058  0.00  0.00    +0.000 A 
ATOM      6  C   UNL     1       1.520   3.999  20.094  0.00  0.00    +0.000 A 
ATOM      7  O   UNL     1       0.939   3.099  20.681  0.00  0.00    +0.000 OA
ATOM      8  C   UNL     1       1.182   5.386  20.427  0.00  0.00    +0.000 A 
ATOM      9  C   UNL     1       1.731   6.394  19.740  0.00  0.00    +0.000 A 
ATOM     10  O   UNL     1       2.639   6.214  18.708  0.00  0.00    +0.000 OA
ATOM     11  C   UNL     1       3.059   4.935  18.398  0.00  0.00    +0.000 A 
ENDROOT
BRANCH   9  12
ATOM     12  C   UNL     1       1.420   7.803  20.064  0.00  0.00    +0.000 A 
ATOM     13  C   UNL     1       1.701   8.836  19.152  0.00  0.00    +0.000 A 
ATOM     14  C   UNL     1       1.367  10.162  19.435  0.00  0.00    +0.000 A 
ATOM     15  C   UNL     1       0.759  10.480  20.646  0.00  0.00    +0.000 A 
ATOM     16  C   UNL     1       0.497   9.470  21.568  0.00  0.00    +0.000 A 
ATOM     17 BR   UNL     1      -0.327   9.903  23.215  0.00  0.00    +0.000 Br
ATOM     18  C   UNL     1       0.823   8.141  21.288  0.00  0.00    +0.000 A 
ENDBRANCH   9  12
BRANCH   2  19
ATOM     19  O   UNL     1       5.499   3.279  16.168  0.00  0.00    +0.000 OA
ATOM     20  H   UNL     1       6.353   3.627  16.467  0.00  0.00    +0.000 HD
ENDBRANCH   2  19
BRANCH   4  21
ATOM     21  O   UNL     1       2.564   1.412  19.327  0.00  0.00    +0.000 OA
ATOM     22  H   UNL     1       3.225   0.703  19.293  0.00  0.00    +0.000 HD
ENDBRANCH   4  21
BRANCH   1  23
ATOM     23  C   UNL     1       4.505   6.036  16.626  0.00  0.00    +0.000 C 
BRANCH  23  27
ATOM     24  C   UNL     1       7.849   7.527  17.976  0.00  0.00    +0.000 C 
ATOM     25  C   UNL     1       6.890   6.678  17.187  0.00  0.00    +0.000 C 
ATOM     26  C   UNL     1       7.480   5.681  16.229  0.00  0.00    +0.000 C 
ATOM     27  C   UNL     1       5.560   6.814  17.366  0.00  0.00    +0.000 C 
ENDBRANCH  23  27
ENDBRANCH   1  23
TORSDOF 5
ENDMDL
MODEL 3
REMARK VINA RESULT:      -7.4      1.931      4.456
REMARK  Name = 
REMARK  7 active torsions:
REMARK  status: ('A' for Active; 'I' for Inactive)
REMARK    1  A    between atoms: C_1  and  C_2
REMARK    2  A    between atoms: C_2  and  C_3
REMARK    3  A    between atoms: C_4  and  C_5
REMARK    4  A    between atoms: C_5  and  C_6
REMARK    5  A    between atoms: C_7  and  O_8
REMARK    6  A    between atoms: C_10  and  O_11
REMARK    7  A    between atoms: C_16  and  C_17
REMARK                            x       y       z     vdW  Elec       q    Type
REMARK                         _______ _______ _______ _____ _____    ______ ____
ROOT
ATOM      1  C   UNL     1       3.977   4.907  17.458  0.00  0.00    +0.000 A 
ATOM      2  C   UNL     1       4.439   3.637  17.084  0.00  0.00    +0.000 A 
ATOM      3  C   UNL     1       3.924   2.479  17.664  0.00  0.00    +0.000 A 
ATOM      4  C   UNL     1       2.938   2.568  18.642  0.00  0.00    +0.000 A 
ATOM      5  C   UNL     1       2.485   3.818  19.071  0.00  0.00    +0.000 A 
ATOM      6  C   UNL     1       1.456   3.965  20.123  0.00  0.00    +0.000 A 
ATOM      7  O   UNL     1       0.856   3.040  20.649  0.00  0.00    +0.000 OA
ATOM      8  C   UNL     1       1.152   5.333  20.552  0.00  0.00    +0.000 A 
ATOM      9  C   UNL     1       1.722   6.373  19.934  0.00  0.00    +0.000 A 
ATOM     10  O   UNL     1       2.622   6.245  18.888  0.00  0.00    +0.000 OA
ATOM     11  C   UNL     1       3.012   4.981  18.489  0.00  0.00    +0.000 A 
ENDROOT
BRANCH   9  12
ATOM     12  C   UNL     1       1.445   7.763  20.356  0.00  0.00    +0.000 A 
ATOM     13  C   UNL     1       1.138   8.070  21.694  0.00  0.00    +0.000 A 
ATOM     14  C   UNL     1       0.921   9.386  22.104  0.00  0.00    +0.000 A 
ATOM     15  C   UNL     1       0.991  10.421  21.176  0.00  0.00    +0.000 A 
ATOM     16  C   UNL     1       1.272  10.131  19.844  0.00  0.00    +0.000 A 
ATOM     17 BR   UNL     1       1.365  11.538  18.583  0.00  0.00    +0.000 Br
ATOM     18  C   UNL     1       1.495   8.816  19.429  0.00  0.00    +0.000 A 
ENDBRANCH   9  12
BRANCH   2  19
ATOM     19  O   UNL     1       5.406   3.428  16.139  0.00  0.00    +0.000 OA
ATOM     20  H   UNL     1       5.007   3.224  15.279  0.00  0.00    +0.000 HD
ENDBRANCH   2  19
BRANCH   4  21
ATOM     21  O   UNL     1       2.437   1.415  19.174  0.00  0.00    +0.000 OA
ATOM     22  H   UNL     1       1.662   1.119  18.672  0.00  0.00    +0.000 HD
ENDBRANCH   4  21
BRANCH   1  23
ATOM     23  C   UNL     1       4.478   6.169  16.791  0.00  0.00    +0.000 C 
BRANCH  23  27
ATOM     24  C   UNL     1       7.942   7.408  18.091  0.00  0.00    +0.000 C 
ATOM     25  C   UNL     1       6.912   6.675  17.276  0.00  0.00    +0.000 C 
ATOM     26  C   UNL     1       7.412   5.764  16.190  0.00  0.00    +0.000 C 
ATOM     27  C   UNL     1       5.599   6.833  17.544  0.00  0.00    +0.000 C 
ENDBRANCH  23  27
ENDBRANCH   1  23
TORSDOF 5
ENDMDL
MODEL 4
REMARK VINA RESULT:      -7.4      1.343      1.532
REMARK  Name = 
REMARK  7 active torsions:
REMARK  status: ('A' for Active; 'I' for Inactive)
REMARK    1  A    between atoms: C_1  and  C_2
REMARK    2  A    between atoms: C_2  and  C_3
REMARK    3  A    between atoms: C_4  and  C_5
REMARK    4  A    between atoms: C_5  and  C_6
REMARK    5  A    between atoms: C_7  and  O_8
REMARK    6  A    between atoms: C_10  and  O_11
REMARK    7  A    between atoms: C_16  and  C_17
REMARK                            x       y       z     vdW  Elec       q    Type
REMARK                         _______ _______ _______ _____ _____    ______ ____
ROOT
ATOM      1  C   UNL     1       2.361   4.081  17.885  0.00  0.00    +0.000 A 
ATOM      2  C   UNL     1       3.132   2.989  17.459  0.00  0.00    +0.000 A 
ATOM      3  C   UNL     1       4.418   3.165  16.953  0.00  0.00    +0.000 A 
ATOM      4  C   UNL     1       4.960   4.443  16.853  0.00  0.00    +0.000 A 
ATOM      5  C   UNL     1       4.204   5.557  17.225  0.00  0.00    +0.000 A 
ATOM      6  C   UNL     1       4.726   6.936  17.116  0.00  0.00    +0.000 A 
ATOM      7  O   UNL     1       5.863   7.230  16.778  0.00  0.00    +0.000 OA
ATOM      8  C   UNL     1       3.791   8.017  17.441  0.00  0.00    +0.000 A 
ATOM      9  C   UNL     1       2.569   7.731  17.902  0.00  0.00    +0.000 A 
ATOM     10  O   UNL     1       2.103   6.439  18.090  0.00  0.00    +0.000 OA
ATOM     11  C   UNL     1       2.907   5.376  17.728  0.00  0.00    +0.000 A 
ENDROOT
BRANCH   9  12
ATOM     12  C   UNL     1       1.599   8.801  18.223  0.00  0.00    +0.000 A 
ATOM     13  C   UNL     1       1.882   9.767  19.206  0.00  0.00    +0.000 A 
ATOM     14  C   UNL     1       0.988  10.804  19.479  0.00  0.00    +0.000 A 
ATOM     15  C   UNL     1      -0.215  10.884  18.784  0.00  0.00    +0.000 A 
ATOM     16  C   UNL     1      -0.518   9.921  17.825  0.00  0.00    +0.000 A 
ATOM     17 BR   UNL     1      -2.154  10.028  16.882  0.00  0.00    +0.000 Br
ATOM     18  C   UNL     1       0.374   8.884  17.543  0.00  0.00    +0.000 A 
ENDBRANCH   9  12
BRANCH   2  19
ATOM     19  O   UNL     1       2.703   1.692  17.507  0.00  0.00    +0.000 OA
ATOM     20  H   UNL     1       2.948   1.279  18.350  0.00  0.00    +0.000 HD
ENDBRANCH   2  19
BRANCH   4  21
ATOM     21  O   UNL     1       6.231   4.580  16.374  0.00  0.00    +0.000 OA
ATOM     22  H   UNL     1       6.600   5.439  16.634  0.00  0.00    +0.000 HD
ENDBRANCH   4  21
BRANCH   1  23
ATOM     23  C   UNL     1       0.989   3.901  18.498  0.00  0.00    +0.000 C 
BRANCH  23  27
ATOM     24  C   UNL     1       1.418   2.423  22.083  0.00  0.00    +0.000 C 
ATOM     25  C   UNL     1       1.482   3.383  20.927  0.00  0.00    +0.000 C 
ATOM     26  C   UNL     1       2.121   4.721  21.176  0.00  0.00    +0.000 C 
ATOM     27  C   UNL     1       0.997   3.024  19.721  0.00  0.00    +0.000 C 
ENDBRANCH  23  27
ENDBRANCH   1  23
TORSDOF 5
ENDMDL
MODEL 5
REMARK VINA RESULT:      -7.3      1.408      1.567
REMARK  Name = 
REMARK  7 active torsions:
REMARK  status: ('A' for Active; 'I' for Inactive)
REMARK    1  A    between atoms: C_1  and  C_2
REMARK    2  A    between atoms: C_2  and  C_3
REMARK    3  A    between atoms: C_4  and  C_5
REMARK    4  A    between atoms: C_5  and  C_6
REMARK    5  A    between atoms: C_7  and  O_8
REMARK    6  A    between atoms: C_10  and  O_11
REMARK    7  A    between atoms: C_16  and  C_17
REMARK                            x       y       z     vdW  Elec       q    Type
REMARK                         _______ _______ _______ _____ _____    ______ ____
ROOT
ATOM      1  C   UNL     1       2.415   4.154  17.854  0.00  0.00    +0.000 A 
ATOM      2  C   UNL     1       3.088   2.992  17.449  0.00  0.00    +0.000 A 
ATOM      3  C   UNL     1       4.375   3.049  16.917  0.00  0.00    +0.000 A 
ATOM      4  C   UNL     1       5.016   4.276  16.771  0.00  0.00    +0.000 A 
ATOM      5  C   UNL     1       4.359   5.458  17.122  0.00  0.00    +0.000 A 
ATOM      6  C   UNL     1       4.988   6.786  16.964  0.00  0.00    +0.000 A 
ATOM      7  O   UNL     1       6.138   6.978  16.599  0.00  0.00    +0.000 OA
ATOM      8  C   UNL     1       4.147   7.948  17.271  0.00  0.00    +0.000 A 
ATOM      9  C   UNL     1       2.915   7.775  17.760  0.00  0.00    +0.000 A 
ATOM     10  O   UNL     1       2.351   6.530  17.994  0.00  0.00    +0.000 OA
ATOM     11  C   UNL     1       3.060   5.396  17.650  0.00  0.00    +0.000 A 
ENDROOT
BRANCH   9  12
ATOM     12  C   UNL     1       2.040   8.927  18.065  0.00  0.00    +0.000 A 
ATOM     13  C   UNL     1       0.694   8.742  18.428  0.00  0.00    +0.000 A 
ATOM     14  C   UNL     1      -0.123   9.824  18.760  0.00  0.00    +0.000 A 
ATOM     15  C   UNL     1       0.391  11.117  18.720  0.00  0.00    +0.000 A 
ATOM     16  C   UNL     1       1.716  11.318  18.340  0.00  0.00    +0.000 A 
ATOM     17 BR   UNL     1       2.413  13.076  18.284  0.00  0.00    +0.000 Br
ATOM     18  C   UNL     1       2.539  10.238  18.012  0.00  0.00    +0.000 A 
ENDBRANCH   9  12
BRANCH   2  19
ATOM     19  O   UNL     1       2.557   1.735  17.542  0.00  0.00    +0.000 OA
ATOM     20  H   UNL     1       1.590   1.765  17.475  0.00  0.00    +0.000 HD
ENDBRANCH   2  19
BRANCH   4  21
ATOM     21  O   UNL     1       6.285   4.296  16.269  0.00  0.00    +0.000 OA
ATOM     22  H   UNL     1       6.562   5.208  16.086  0.00  0.00    +0.000 HD
ENDBRANCH   4  21
BRANCH   1  23
ATOM     23  C   UNL     1       1.045   4.102  18.494  0.00  0.00    +0.000 C 
BRANCH  23  27
ATOM     24  C   UNL     1       1.353   2.507  22.041  0.00  0.00    +0.000 C 
ATOM     25  C   UNL     1       1.491   3.489  20.910  0.00  0.00    +0.000 C 
ATOM     26  C   UNL     1       2.225   4.769  21.194  0.00  0.00    +0.000 C 
ATOM     27  C   UNL     1       0.984   3.197  19.695  0.00  0.00    +0.000 C 
ENDBRANCH  23  27
ENDBRANCH   1  23
TORSDOF 5
ENDMDL
MODEL 6
REMARK VINA RESULT:      -7.2      1.828      4.205
REMARK  Name = 
REMARK  7 active torsions:
REMARK  status: ('A' for Active; 'I' for Inactive)
REMARK    1  A    between atoms: C_1  and  C_2
REMARK    2  A    between atoms: C_2  and  C_3
REMARK    3  A    between atoms: C_4  and  C_5
REMARK    4  A    between atoms: C_5  and  C_6
REMARK    5  A    between atoms: C_7  and  O_8
REMARK    6  A    between atoms: C_10  and  O_11
REMARK    7  A    between atoms: C_16  and  C_17
REMARK                            x       y       z     vdW  Elec       q    Type
REMARK                         _______ _______ _______ _____ _____    ______ ____
ROOT
ATOM      1  C   UNL     1       4.349   5.099  17.571  0.00  0.00    +0.000 A 
ATOM      2  C   UNL     1       4.935   3.825  17.593  0.00  0.00    +0.000 A 
ATOM      3  C   UNL     1       4.589   2.885  18.561  0.00  0.00    +0.000 A 
ATOM      4  C   UNL     1       3.651   3.204  19.539  0.00  0.00    +0.000 A 
ATOM      5  C   UNL     1       3.080   4.478  19.575  0.00  0.00    +0.000 A 
ATOM      6  C   UNL     1       2.097   4.873  20.607  0.00  0.00    +0.000 A 
ATOM      7  O   UNL     1       1.636   4.125  21.457  0.00  0.00    +0.000 OA
ATOM      8  C   UNL     1       1.659   6.272  20.592  0.00  0.00    +0.000 A 
ATOM      9  C   UNL     1       2.072   7.094  19.622  0.00  0.00    +0.000 A 
ATOM     10  O   UNL     1       2.925   6.707  18.600  0.00  0.00    +0.000 OA
ATOM     11  C   UNL     1       3.437   5.424  18.602  0.00  0.00    +0.000 A 
ENDROOT
BRANCH   9  12
ATOM     12  C   UNL     1       1.658   8.513  19.589  0.00  0.00    +0.000 A 
ATOM     13  C   UNL     1       1.963   9.334  18.488  0.00  0.00    +0.000 A 
ATOM     14  C   UNL     1       1.535  10.662  18.435  0.00  0.00    +0.000 A 
ATOM     15  C   UNL     1       0.805  11.197  19.492  0.00  0.00    +0.000 A 
ATOM     16  C   UNL     1       0.515  10.403  20.598  0.00  0.00    +0.000 A 
ATOM     17 BR   UNL     1      -0.475  11.133  22.035  0.00  0.00    +0.000 Br
ATOM     18  C   UNL     1       0.936   9.072  20.655  0.00  0.00    +0.000 A 
ENDBRANCH   9  12
BRANCH   2  19
ATOM     19  O   UNL     1       5.868   3.403  16.687  0.00  0.00    +0.000 OA
ATOM     20  H   UNL     1       6.543   4.085  16.544  0.00  0.00    +0.000 HD
ENDBRANCH   2  19
BRANCH   4  21
ATOM     21  O   UNL     1       3.316   2.254  20.460  0.00  0.00    +0.000 OA
ATOM     22  H   UNL     1       3.180   1.396  20.028  0.00  0.00    +0.000 HD
ENDBRANCH   4  21
BRANCH   1  23
ATOM     23  C   UNL     1       4.665   6.106  16.488  0.00  0.00    +0.000 C 
BRANCH  23  27
ATOM     24  C   UNL     1       7.633   8.324  17.712  0.00  0.00    +0.000 C 
ATOM     25  C   UNL     1       6.854   7.119  17.262  0.00  0.00    +0.000 C 
ATOM     26  C   UNL     1       7.590   5.810  17.187  0.00  0.00    +0.000 C 
ATOM     27  C   UNL     1       5.543   7.233  16.963  0.00  0.00    +0.000 C 
ENDBRANCH  23  27
ENDBRANCH   1  23
TORSDOF 5
ENDMDL
MODEL 7
REMARK VINA RESULT:      -7.2      3.938      8.282
REMARK  Name = 
REMARK  7 active torsions:
REMARK  status: ('A' for Active; 'I' for Inactive)
REMARK    1  A    between atoms: C_1  and  C_2
REMARK    2  A    between atoms: C_2  and  C_3
REMARK    3  A    between atoms: C_4  and  C_5
REMARK    4  A    between atoms: C_5  and  C_6
REMARK    5  A    between atoms: C_7  and  O_8
REMARK    6  A    between atoms: C_10  and  O_11
REMARK    7  A    between atoms: C_16  and  C_17
REMARK                            x       y       z     vdW  Elec       q    Type
REMARK                         _______ _______ _______ _____ _____    ______ ____
ROOT
ATOM      1  C   UNL     1      -1.190  11.791  19.666  0.00  0.00    +0.000 A 
ATOM      2  C   UNL     1      -2.091  12.616  20.355  0.00  0.00    +0.000 A 
ATOM      3  C   UNL     1      -2.220  12.549  21.741  0.00  0.00    +0.000 A 
ATOM      4  C   UNL     1      -1.453  11.644  22.470  0.00  0.00    +0.000 A 
ATOM      5  C   UNL     1      -0.578  10.776  21.813  0.00  0.00    +0.000 A 
ATOM      6  C   UNL     1       0.241   9.782  22.540  0.00  0.00    +0.000 A 
ATOM      7  O   UNL     1       0.297   9.676  23.755  0.00  0.00    +0.000 OA
ATOM      8  C   UNL     1       1.036   8.864  21.718  0.00  0.00    +0.000 A 
ATOM      9  C   UNL     1       1.071   9.010  20.390  0.00  0.00    +0.000 A 
ATOM     10  O   UNL     1       0.373   9.996  19.708  0.00  0.00    +0.000 OA
ATOM     11  C   UNL     1      -0.457  10.843  20.416  0.00  0.00    +0.000 A 
ENDROOT
BRANCH   9  12
ATOM     12  C   UNL     1       1.851   8.089  19.536  0.00  0.00    +0.000 A 
ATOM     13  C   UNL     1       2.322   8.493  18.273  0.00  0.00    +0.000 A 
ATOM     14  C   UNL     1       3.098   7.642  17.484  0.00  0.00    +0.000 A 
ATOM     15  C   UNL     1       3.404   6.363  17.938  0.00  0.00    +0.000 A 
ATOM     16  C   UNL     1       2.925   5.941  19.176  0.00  0.00    +0.000 A 
ATOM     17 BR   UNL     1       3.339   4.201  19.792  0.00  0.00    +0.000 Br
ATOM     18  C   UNL     1       2.153   6.790  19.973  0.00  0.00    +0.000 A 
ENDBRANCH   9  12
BRANCH   2  19
ATOM     19  O   UNL     1      -2.897  13.537  19.745  0.00  0.00    +0.000 OA
ATOM     20  H   UNL     1      -2.681  14.434  20.044  0.00  0.00    +0.000 HD
ENDBRANCH   2  19
BRANCH   4  21
ATOM     21  O   UNL     1      -1.585  11.618  23.828  0.00  0.00    +0.000 OA
ATOM     22  H   UNL     1      -2.087  10.836  24.105  0.00  0.00    +0.000 HD
ENDBRANCH   4  21
BRANCH   1  23
ATOM     23  C   UNL     1      -0.991  11.899  18.170  0.00  0.00    +0.000 C 
BRANCH  23  27
ATOM     24  C   UNL     1      -3.097   9.286  16.180  0.00  0.00    +0.000 C 
ATOM     25  C   UNL     1      -2.729  10.535  16.932  0.00  0.00    +0.000 C 
ATOM     26  C   UNL     1      -3.807  11.565  17.126  0.00  0.00    +0.000 C 
ATOM     27  C   UNL     1      -1.481  10.690  17.418  0.00  0.00    +0.000 C 
ENDBRANCH  23  27
ENDBRANCH   1  23
TORSDOF 5
ENDMDL
MODEL 8
REMARK VINA RESULT:      -7.1      3.728      8.117
REMARK  Name = 
REMARK  7 active torsions:
REMARK  status: ('A' for Active; 'I' for Inactive)
REMARK    1  A    between atoms: C_1  and  C_2
REMARK    2  A    between atoms: C_2  and  C_3
REMARK    3  A    between atoms: C_4  and  C_5
REMARK    4  A    between atoms: C_5  and  C_6
REMARK    5  A    between atoms: C_7  and  O_8
REMARK    6  A    between atoms: C_10  and  O_11
REMARK    7  A    between atoms: C_16  and  C_17
REMARK                            x       y       z     vdW  Elec       q    Type
REMARK                         _______ _______ _______ _____ _____    ______ ____
ROOT
ATOM      1  C   UNL     1      -0.799  11.028  19.403  0.00  0.00    +0.000 A 
ATOM      2  C   UNL     1      -1.638  12.039  19.892  0.00  0.00    +0.000 A 
ATOM      3  C   UNL     1      -1.784  12.261  21.260  0.00  0.00    +0.000 A 
ATOM      4  C   UNL     1      -1.096  11.466  22.173  0.00  0.00    +0.000 A 
ATOM      5  C   UNL     1      -0.286  10.421  21.723  0.00  0.00    +0.000 A 
ATOM      6  C   UNL     1       0.445   9.535  22.653  0.00  0.00    +0.000 A 
ATOM      7  O   UNL     1       0.482   9.671  23.867  0.00  0.00    +0.000 OA
ATOM      8  C   UNL     1       1.173   8.413  22.051  0.00  0.00    +0.000 A 
ATOM      9  C   UNL     1       1.231   8.287  20.721  0.00  0.00    +0.000 A 
ATOM     10  O   UNL     1       0.619   9.165  19.840  0.00  0.00    +0.000 OA
ATOM     11  C   UNL     1      -0.148  10.197  20.345  0.00  0.00    +0.000 A 
ENDROOT
BRANCH   9  12
ATOM     12  C   UNL     1       1.944   7.158  20.087  0.00  0.00    +0.000 A 
ATOM     13  C   UNL     1       1.782   5.840  20.554  0.00  0.00    +0.000 A 
ATOM     14  C   UNL     1       2.418   4.767  19.929  0.00  0.00    +0.000 A 
ATOM     15  C   UNL     1       3.244   4.994  18.831  0.00  0.00    +0.000 A 
ATOM     16  C   UNL     1       3.432   6.295  18.372  0.00  0.00    +0.000 A 
ATOM     17 BR   UNL     1       4.556   6.604  16.882  0.00  0.00    +0.000 Br
ATOM     18  C   UNL     1       2.793   7.373  18.990  0.00  0.00    +0.000 A 
ENDBRANCH   9  12
BRANCH   2  19
ATOM     19  O   UNL     1      -2.364  12.877  19.091  0.00  0.00    +0.000 OA
ATOM     20  H   UNL     1      -3.304  12.853  19.330  0.00  0.00    +0.000 HD
ENDBRANCH   2  19
BRANCH   4  21
ATOM     21  O   UNL     1      -1.242  11.723  23.505  0.00  0.00    +0.000 OA
ATOM     22  H   UNL     1      -1.621  12.606  23.640  0.00  0.00    +0.000 HD
ENDBRANCH   4  21
BRANCH   1  23
ATOM     23  C   UNL     1      -0.579  10.818  17.921  0.00  0.00    +0.000 C 
BRANCH  23  27
ATOM     24  C   UNL     1      -3.449   9.157  15.865  0.00  0.00    +0.000 C 
ATOM     25  C   UNL     1      -2.531  10.207  16.427  0.00  0.00    +0.000 C 
ATOM     26  C   UNL     1      -2.756  11.627  15.988  0.00  0.00    +0.000 C 
ATOM     27  C   UNL     1      -1.565   9.863  17.304  0.00  0.00    +0.000 C 
ENDBRANCH  23  27
ENDBRANCH   1  23
TORSDOF 5
ENDMDL
MODEL 9
REMARK VINA RESULT:      -7.1      6.347      9.022
REMARK  Name = 
REMARK  7 active torsions:
REMARK  status: ('A' for Active; 'I' for Inactive)
REMARK    1  A    between atoms: C_1  and  C_2
REMARK    2  A    between atoms: C_2  and  C_3
REMARK    3  A    between atoms: C_4  and  C_5
REMARK    4  A    between atoms: C_5  and  C_6
REMARK    5  A    between atoms: C_7  and  O_8
REMARK    6  A    between atoms: C_10  and  O_11
REMARK    7  A    between atoms: C_16  and  C_17
REMARK                            x       y       z     vdW  Elec       q    Type
REMARK                         _______ _______ _______ _____ _____    ______ ____
ROOT
ATOM      1  C   UNL     1      -1.352  11.193  18.917  0.00  0.00    +0.000 A 
ATOM      2  C   UNL     1      -1.001  10.361  17.844  0.00  0.00    +0.000 A 
ATOM      3  C   UNL     1      -1.911  10.060  16.832  0.00  0.00    +0.000 A 
ATOM      4  C   UNL     1      -3.201  10.580  16.878  0.00  0.00    +0.000 A 
ATOM      5  C   UNL     1      -3.600  11.375  17.955  0.00  0.00    +0.000 A 
ATOM      6  C   UNL     1      -4.966  11.931  18.061  0.00  0.00    +0.000 A 
ATOM      7  O   UNL     1      -5.834  11.825  17.207  0.00  0.00    +0.000 OA
ATOM      8  C   UNL     1      -5.282  12.659  19.294  0.00  0.00    +0.000 A 
ATOM      9  C   UNL     1      -4.331  12.874  20.208  0.00  0.00    +0.000 A 
ATOM     10  O   UNL     1      -3.024  12.431  20.075  0.00  0.00    +0.000 OA
ATOM     11  C   UNL     1      -2.682  11.670  18.974  0.00  0.00    +0.000 A 
ENDROOT
BRANCH   9  12
ATOM     12  C   UNL     1      -4.624  13.592  21.467  0.00  0.00    +0.000 A 
ATOM     13  C   UNL     1      -3.702  14.501  22.018  0.00  0.00    +0.000 A 
ATOM     14  C   UNL     1      -3.995  15.214  23.181  0.00  0.00    +0.000 A 
ATOM     15  C   UNL     1      -5.213  15.019  23.826  0.00  0.00    +0.000 A 
ATOM     16  C   UNL     1      -6.126  14.105  23.306  0.00  0.00    +0.000 A 
ATOM     17 BR   UNL     1      -7.780  13.838  24.184  0.00  0.00    +0.000 Br
ATOM     18  C   UNL     1      -5.841  13.393  22.138  0.00  0.00    +0.000 A 
ENDBRANCH   9  12
BRANCH   2  19
ATOM     19  O   UNL     1       0.234   9.792  17.696  0.00  0.00    +0.000 OA
ATOM     20  H   UNL     1       0.587   9.962  16.809  0.00  0.00    +0.000 HD
ENDBRANCH   2  19
BRANCH   4  21
ATOM     21  O   UNL     1      -4.063  10.285  15.861  0.00  0.00    +0.000 OA
ATOM     22  H   UNL     1      -3.576   9.950  15.092  0.00  0.00    +0.000 HD
ENDBRANCH   4  21
BRANCH   1  23
ATOM     23  C   UNL     1      -0.356  11.582  19.986  0.00  0.00    +0.000 C 
BRANCH  23  27
ATOM     24  C   UNL     1      -0.298   9.502  23.287  0.00  0.00    +0.000 C 
ATOM     25  C   UNL     1      -0.521  10.643  22.333  0.00  0.00    +0.000 C 
ATOM     26  C   UNL     1      -1.122  11.902  22.891  0.00  0.00    +0.000 C 
ATOM     27  C   UNL     1      -0.167  10.520  21.037  0.00  0.00    +0.000 C 
ENDBRANCH  23  27
ENDBRANCH   1  23
TORSDOF 5
ENDMDL
