MODEL 1
REMARK VINA RESULT:      -5.3      0.000      0.000
REMARK  Name = 
REMARK  5 active torsions:
REMARK  status: ('A' for Active; 'I' for Inactive)
REMARK    1  A    between atoms: C_1  and  C_2
REMARK    2  A    between atoms: C_2  and  O_3
REMARK    3  A    between atoms: C_2  and  C_4
REMARK    4  A    between atoms: C_4  and  N_5
REMARK    5  A    between atoms: C_4  and  C_6
REMARK                            x       y       z     vdW  Elec       q    Type
REMARK                         _______ _______ _______ _____ _____    ______ ____
ROOT
ATOM      1  C   UNL     1       4.423   3.487  18.806  0.00  0.00    +0.000 C 
ENDROOT
BRANCH   1   2
ATOM      2  C   UNL     1       5.679   4.293  18.395  0.00  0.00    +0.000 C 
ATOM      3  O   UNL     1       6.412   4.793  19.256  0.00  0.00    +0.000 OA
ATOM      4  N   UNL     1       5.969   4.389  17.049  0.00  0.00    +0.000 N 
ATOM      5  C   UNL     1       5.172   3.898  15.940  0.00  0.00    +0.000 C 
ATOM      6  C   UNL     1       6.120   3.925  14.756  0.00  0.00    +0.000 C 
ATOM      7  C   UNL     1       7.024   5.113  15.049  0.00  0.00    +0.000 C 
ATOM      8  C   UNL     1       7.102   5.166  16.575  0.00  0.00    +0.000 C 
ENDBRANCH   1   2
BRANCH   1   9
ATOM      9  N   UNL     1       4.792   2.526  19.876  0.00  0.00    +0.000 NA
ATOM     10  H   UNL     1       4.247   1.672  19.711  0.00  0.00    +0.000 HD
ATOM     11  H   UNL     1       4.478   2.880  20.779  0.00  0.00    +0.000 HD
ENDBRANCH   1   9
BRANCH   1  13
ATOM     12  C   UNL     1       2.351   4.861  18.197  0.00  0.00    +0.000 C 
ATOM     13  C   UNL     1       3.306   4.437  19.305  0.00  0.00    +0.000 C 
BRANCH  13  14
ATOM     14  O   UNL     1       3.849   5.607  19.939  0.00  0.00    +0.000 OA
ATOM     15  H   UNL     1       3.841   6.320  19.264  0.00  0.00    +0.000 HD
ENDBRANCH  13  14
ENDBRANCH   1  13
TORSDOF 4
ENDMDL
MODEL 2
REMARK VINA RESULT:      -5.3      2.177      4.645
REMARK  Name = 
REMARK  5 active torsions:
REMARK  status: ('A' for Active; 'I' for Inactive)
REMARK    1  A    between atoms: C_1  and  C_2
REMARK    2  A    between atoms: C_2  and  O_3
REMARK    3  A    between atoms: C_2  and  C_4
REMARK    4  A    between atoms: C_4  and  N_5
REMARK    5  A    between atoms: C_4  and  C_6
REMARK                            x       y       z     vdW  Elec       q    Type
REMARK                         _______ _______ _______ _____ _____    ______ ____
ROOT
ATOM      1  C   UNL     1       5.561   5.241  18.960  0.00  0.00    +0.000 C 
ENDROOT
BRANCH   1   2
ATOM      2  C   UNL     1       4.718   4.053  19.486  0.00  0.00    +0.000 C 
ATOM      3  O   UNL     1       5.227   2.933  19.614  0.00  0.00    +0.000 OA
ATOM      4  N   UNL     1       3.410   4.302  19.846  0.00  0.00    +0.000 N 
ATOM      5  C   UNL     1       2.679   5.547  19.699  0.00  0.00    +0.000 C 
ATOM      6  C   UNL     1       1.459   5.373  20.584  0.00  0.00    +0.000 C 
ATOM      7  C   UNL     1       1.166   3.883  20.499  0.00  0.00    +0.000 C 
ATOM      8  C   UNL     1       2.536   3.235  20.304  0.00  0.00    +0.000 C 
ENDBRANCH   1   2
BRANCH   1   9
ATOM      9  N   UNL     1       6.845   5.291  19.703  0.00  0.00    +0.000 NA
ATOM     10  H   UNL     1       7.354   6.115  19.365  0.00  0.00    +0.000 HD
ATOM     11  H   UNL     1       7.422   4.490  19.445  0.00  0.00    +0.000 HD
ENDBRANCH   1   9
BRANCH   1  13
ATOM     12  C   UNL     1       4.919   5.966  16.591  0.00  0.00    +0.000 C 
ATOM     13  C   UNL     1       5.828   5.088  17.443  0.00  0.00    +0.000 C 
BRANCH  13  14
ATOM     14  O   UNL     1       5.704   3.721  17.016  0.00  0.00    +0.000 OA
ATOM     15  H   UNL     1       6.190   3.178  17.672  0.00  0.00    +0.000 HD
ENDBRANCH  13  14
ENDBRANCH   1  13
TORSDOF 4
ENDMDL
MODEL 3
REMARK VINA RESULT:      -5.3      1.661      4.181
REMARK  Name = 
REMARK  5 active torsions:
REMARK  status: ('A' for Active; 'I' for Inactive)
REMARK    1  A    between atoms: C_1  and  C_2
REMARK    2  A    between atoms: C_2  and  O_3
REMARK    3  A    between atoms: C_2  and  C_4
REMARK    4  A    between atoms: C_4  and  N_5
REMARK    5  A    between atoms: C_4  and  C_6
REMARK                            x       y       z     vdW  Elec       q    Type
REMARK                         _______ _______ _______ _____ _____    ______ ____
ROOT
ATOM      1  C   UNL     1       5.884   5.504  17.029  0.00  0.00    +0.000 C 
ENDROOT
BRANCH   1   2
ATOM      2  C   UNL     1       5.651   4.600  18.264  0.00  0.00    +0.000 C 
ATOM      3  O   UNL     1       6.408   4.665  19.239  0.00  0.00    +0.000 OA
ATOM      4  N   UNL     1       4.553   3.765  18.251  0.00  0.00    +0.000 N 
ATOM      5  C   UNL     1       3.621   3.553  17.159  0.00  0.00    +0.000 C 
ATOM      6  C   UNL     1       2.435   2.863  17.806  0.00  0.00    +0.000 C 
ATOM      7  C   UNL     1       3.065   2.039  18.919  0.00  0.00    +0.000 C 
ATOM      8  C   UNL     1       4.287   2.850  19.349  0.00  0.00    +0.000 C 
ENDBRANCH   1   2
BRANCH   1   9
ATOM      9  N   UNL     1       6.206   6.879  17.488  0.00  0.00    +0.000 NA
ATOM     10  H   UNL     1       7.131   6.837  17.930  0.00  0.00    +0.000 HD
ATOM     11  H   UNL     1       5.562   7.152  18.231  0.00  0.00    +0.000 HD
ENDBRANCH   1   9
BRANCH   1  13
ATOM     12  C   UNL     1       6.542   4.166  14.949  0.00  0.00    +0.000 C 
ATOM     13  C   UNL     1       7.038   4.949  16.158  0.00  0.00    +0.000 C 
BRANCH  13  14
ATOM     14  O   UNL     1       7.932   4.124  16.924  0.00  0.00    +0.000 OA
ATOM     15  H   UNL     1       7.811   4.377  17.864  0.00  0.00    +0.000 HD
ENDBRANCH  13  14
ENDBRANCH   1  13
TORSDOF 4
ENDMDL
MODEL 4
REMARK VINA RESULT:      -5.2      2.141      4.156
REMARK  Name = 
REMARK  5 active torsions:
REMARK  status: ('A' for Active; 'I' for Inactive)
REMARK    1  A    between atoms: C_1  and  C_2
REMARK    2  A    between atoms: C_2  and  O_3
REMARK    3  A    between atoms: C_2  and  C_4
REMARK    4  A    between atoms: C_4  and  N_5
REMARK    5  A    between atoms: C_4  and  C_6
REMARK                            x       y       z     vdW  Elec       q    Type
REMARK                         _______ _______ _______ _____ _____    ______ ____
ROOT
ATOM      1  C   UNL     1       6.814   4.552  18.054  0.00  0.00    +0.000 C 
ENDROOT
BRANCH   1   2
ATOM      2  C   UNL     1       5.424   4.612  17.373  0.00  0.00    +0.000 C 
ATOM      3  O   UNL     1       5.264   5.263  16.334  0.00  0.00    +0.000 OA
ATOM      4  N   UNL     1       4.400   3.880  17.938  0.00  0.00    +0.000 N 
ATOM      5  C   UNL     1       4.438   3.121  19.174  0.00  0.00    +0.000 C 
ATOM      6  C   UNL     1       3.209   2.234  19.108  0.00  0.00    +0.000 C 
ATOM      7  C   UNL     1       2.203   3.076  18.339  0.00  0.00    +0.000 C 
ATOM      8  C   UNL     1       3.054   3.917  17.389  0.00  0.00    +0.000 C 
ENDBRANCH   1   2
BRANCH   1   9
ATOM      9  N   UNL     1       7.863   4.467  17.007  0.00  0.00    +0.000 NA
ATOM     10  H   UNL     1       8.315   3.551  17.111  0.00  0.00    +0.000 HD
ATOM     11  H   UNL     1       8.594   5.154  17.197  0.00  0.00    +0.000 HD
ENDBRANCH   1   9
BRANCH   1  13
ATOM     12  C   UNL     1       7.820   6.900  18.219  0.00  0.00    +0.000 C 
ATOM     13  C   UNL     1       7.041   5.804  18.936  0.00  0.00    +0.000 C 
BRANCH  13  14
ATOM     14  O   UNL     1       7.708   5.474  20.166  0.00  0.00    +0.000 OA
ATOM     15  H   UNL     1       7.657   6.272  20.735  0.00  0.00    +0.000 HD
ENDBRANCH  13  14
ENDBRANCH   1  13
TORSDOF 4
ENDMDL
MODEL 5
REMARK VINA RESULT:      -5.2      2.134      4.833
REMARK  Name = 
REMARK  5 active torsions:
REMARK  status: ('A' for Active; 'I' for Inactive)
REMARK    1  A    between atoms: C_1  and  C_2
REMARK    2  A    between atoms: C_2  and  O_3
REMARK    3  A    between atoms: C_2  and  C_4
REMARK    4  A    between atoms: C_4  and  N_5
REMARK    5  A    between atoms: C_4  and  C_6
REMARK                            x       y       z     vdW  Elec       q    Type
REMARK                         _______ _______ _______ _____ _____    ______ ____
ROOT
ATOM      1  C   UNL     1       4.280   4.896  17.625  0.00  0.00    +0.000 C 
ENDROOT
BRANCH   1   2
ATOM      2  C   UNL     1       4.296   4.011  18.895  0.00  0.00    +0.000 C 
ATOM      3  O   UNL     1       5.366   3.607  19.363  0.00  0.00    +0.000 OA
ATOM      4  N   UNL     1       3.087   3.734  19.501  0.00  0.00    +0.000 N 
ATOM      5  C   UNL     1       1.764   4.099  19.032  0.00  0.00    +0.000 C 
ATOM      6  C   UNL     1       0.868   3.894  20.238  0.00  0.00    +0.000 C 
ATOM      7  C   UNL     1       1.517   2.731  20.972  0.00  0.00    +0.000 C 
ATOM      8  C   UNL     1       3.008   2.873  20.669  0.00  0.00    +0.000 C 
ENDBRANCH   1   2
BRANCH   1   9
ATOM      9  N   UNL     1       4.281   6.325  18.030  0.00  0.00    +0.000 NA
ATOM     10  H   UNL     1       5.231   6.542  18.353  0.00  0.00    +0.000 HD
ATOM     11  H   UNL     1       3.680   6.451  18.844  0.00  0.00    +0.000 HD
ENDBRANCH   1   9
BRANCH   1  13
ATOM     12  C   UNL     1       5.503   5.375  15.428  0.00  0.00    +0.000 C 
ATOM     13  C   UNL     1       5.510   4.593  16.735  0.00  0.00    +0.000 C 
BRANCH  13  14
ATOM     14  O   UNL     1       5.624   3.189  16.447  0.00  0.00    +0.000 OA
ATOM     15  H   UNL     1       6.530   2.921  16.713  0.00  0.00    +0.000 HD
ENDBRANCH  13  14
ENDBRANCH   1  13
TORSDOF 4
ENDMDL
MODEL 6
REMARK VINA RESULT:      -5.1      1.875      4.454
REMARK  Name = 
REMARK  5 active torsions:
REMARK  status: ('A' for Active; 'I' for Inactive)
REMARK    1  A    between atoms: C_1  and  C_2
REMARK    2  A    between atoms: C_2  and  O_3
REMARK    3  A    between atoms: C_2  and  C_4
REMARK    4  A    between atoms: C_4  and  N_5
REMARK    5  A    between atoms: C_4  and  C_6
REMARK                            x       y       z     vdW  Elec       q    Type
REMARK                         _______ _______ _______ _____ _____    ______ ____
ROOT
ATOM      1  C   UNL     1       6.674   6.045  17.499  0.00  0.00    +0.000 C 
ENDROOT
BRANCH   1   2
ATOM      2  C   UNL     1       5.818   5.417  18.626  0.00  0.00    +0.000 C 
ATOM      3  O   UNL     1       6.330   4.646  19.445  0.00  0.00    +0.000 OA
ATOM      4  N   UNL     1       4.491   5.786  18.706  0.00  0.00    +0.000 N 
ATOM      5  C   UNL     1       3.757   6.634  17.787  0.00  0.00    +0.000 C 
ATOM      6  C   UNL     1       2.496   7.007  18.544  0.00  0.00    +0.000 C 
ATOM      7  C   UNL     1       2.222   5.783  19.404  0.00  0.00    +0.000 C 
ATOM      8  C   UNL     1       3.606   5.209  19.705  0.00  0.00    +0.000 C 
ENDBRANCH   1   2
BRANCH   1   9
ATOM      9  N   UNL     1       7.776   6.832  18.108  0.00  0.00    +0.000 NA
ATOM     10  H   UNL     1       8.096   7.499  17.396  0.00  0.00    +0.000 HD
ATOM     11  H   UNL     1       8.575   6.222  18.287  0.00  0.00    +0.000 HD
ENDBRANCH   1   9
BRANCH   1  13
ATOM     12  C   UNL     1       6.170   4.110  15.902  0.00  0.00    +0.000 C 
ATOM     13  C   UNL     1       7.252   4.943  16.577  0.00  0.00    +0.000 C 
BRANCH  13  14
ATOM     14  O   UNL     1       8.148   4.073  17.287  0.00  0.00    +0.000 OA
ATOM     15  H   UNL     1       7.730   3.886  18.155  0.00  0.00    +0.000 HD
ENDBRANCH  13  14
ENDBRANCH   1  13
TORSDOF 4
ENDMDL
MODEL 7
REMARK VINA RESULT:      -5.1      2.286      2.676
REMARK  Name = 
REMARK  5 active torsions:
REMARK  status: ('A' for Active; 'I' for Inactive)
REMARK    1  A    between atoms: C_1  and  C_2
REMARK    2  A    between atoms: C_2  and  O_3
REMARK    3  A    between atoms: C_2  and  C_4
REMARK    4  A    between atoms: C_4  and  N_5
REMARK    5  A    between atoms: C_4  and  C_6
REMARK                            x       y       z     vdW  Elec       q    Type
REMARK                         _______ _______ _______ _____ _____    ______ ____
ROOT
ATOM      1  C   UNL     1       2.662   2.782  19.014  0.00  0.00    +0.000 C 
ENDROOT
BRANCH   1   2
ATOM      2  C   UNL     1       4.125   3.258  19.188  0.00  0.00    +0.000 C 
ATOM      3  O   UNL     1       4.911   2.619  19.895  0.00  0.00    +0.000 OA
ATOM      4  N   UNL     1       4.522   4.382  18.492  0.00  0.00    +0.000 N 
ATOM      5  C   UNL     1       3.695   5.249  17.675  0.00  0.00    +0.000 C 
ATOM      6  C   UNL     1       4.687   6.063  16.866  0.00  0.00    +0.000 C 
ATOM      7  C   UNL     1       5.878   6.204  17.801  0.00  0.00    +0.000 C 
ATOM      8  C   UNL     1       5.864   4.923  18.635  0.00  0.00    +0.000 C 
ENDBRANCH   1   2
BRANCH   1   9
ATOM      9  N   UNL     1       2.662   1.370  18.556  0.00  0.00    +0.000 NA
ATOM     10  H   UNL     1       3.573   1.200  18.114  0.00  0.00    +0.000 HD
ATOM     11  H   UNL     1       1.972   1.250  17.814  0.00  0.00    +0.000 HD
ENDBRANCH   1   9
BRANCH   1  13
ATOM     12  C   UNL     1       1.246   4.280  20.531  0.00  0.00    +0.000 C 
ATOM     13  C   UNL     1       1.887   2.910  20.348  0.00  0.00    +0.000 C 
BRANCH  13  14
ATOM     14  O   UNL     1       2.725   2.623  21.480  0.00  0.00    +0.000 OA
ATOM     15  H   UNL     1       3.597   2.350  21.121  0.00  0.00    +0.000 HD
ENDBRANCH  13  14
ENDBRANCH   1  13
TORSDOF 4
ENDMDL
MODEL 8
REMARK VINA RESULT:      -5.1      2.174      4.467
REMARK  Name = 
REMARK  5 active torsions:
REMARK  status: ('A' for Active; 'I' for Inactive)
REMARK    1  A    between atoms: C_1  and  C_2
REMARK    2  A    between atoms: C_2  and  O_3
REMARK    3  A    between atoms: C_2  and  C_4
REMARK    4  A    between atoms: C_4  and  N_5
REMARK    5  A    between atoms: C_4  and  C_6
REMARK                            x       y       z     vdW  Elec       q    Type
REMARK                         _______ _______ _______ _____ _____    ______ ____
ROOT
ATOM      1  C   UNL     1       5.955   4.103  16.037  0.00  0.00    +0.000 C 
ENDROOT
BRANCH   1   2
ATOM      2  C   UNL     1       4.786   4.958  16.585  0.00  0.00    +0.000 C 
ATOM      3  O   UNL     1       4.759   6.178  16.391  0.00  0.00    +0.000 OA
ATOM      4  N   UNL     1       3.766   4.304  17.246  0.00  0.00    +0.000 N 
ATOM      5  C   UNL     1       3.699   2.894  17.584  0.00  0.00    +0.000 C 
ATOM      6  C   UNL     1       2.242   2.663  17.938  0.00  0.00    +0.000 C 
ATOM      7  C   UNL     1       1.809   3.985  18.551  0.00  0.00    +0.000 C 
ATOM      8  C   UNL     1       2.655   5.035  17.831  0.00  0.00    +0.000 C 
ENDBRANCH   1   2
BRANCH   1   9
ATOM      9  N   UNL     1       5.876   4.065  14.555  0.00  0.00    +0.000 NA
ATOM     10  H   UNL     1       6.803   3.790  14.213  0.00  0.00    +0.000 HD
ATOM     11  H   UNL     1       5.722   5.007  14.196  0.00  0.00    +0.000 HD
ENDBRANCH   1   9
BRANCH   1  13
ATOM     12  C   UNL     1       7.457   4.774  17.998  0.00  0.00    +0.000 C 
ATOM     13  C   UNL     1       7.315   4.693  16.483  0.00  0.00    +0.000 C 
BRANCH  13  14
ATOM     14  O   UNL     1       7.542   5.994  15.916  0.00  0.00    +0.000 OA
ATOM     15  H   UNL     1       7.594   5.871  14.944  0.00  0.00    +0.000 HD
ENDBRANCH  13  14
ENDBRANCH   1  13
TORSDOF 4
ENDMDL
MODEL 9
REMARK VINA RESULT:      -5.1      1.938      4.539
REMARK  Name = 
REMARK  5 active torsions:
REMARK  status: ('A' for Active; 'I' for Inactive)
REMARK    1  A    between atoms: C_1  and  C_2
REMARK    2  A    between atoms: C_2  and  O_3
REMARK    3  A    between atoms: C_2  and  C_4
REMARK    4  A    between atoms: C_4  and  N_5
REMARK    5  A    between atoms: C_4  and  C_6
REMARK                            x       y       z     vdW  Elec       q    Type
REMARK                         _______ _______ _______ _____ _____    ______ ____
ROOT
ATOM      1  C   UNL     1       6.327   5.640  16.534  0.00  0.00    +0.000 C 
ENDROOT
BRANCH   1   2
ATOM      2  C   UNL     1       5.796   5.227  17.929  0.00  0.00    +0.000 C 
ATOM      3  O   UNL     1       6.470   4.495  18.663  0.00  0.00    +0.000 OA
ATOM      4  N   UNL     1       4.580   5.740  18.332  0.00  0.00    +0.000 N 
ATOM      5  C   UNL     1       3.671   6.560  17.555  0.00  0.00    +0.000 C 
ATOM      6  C   UNL     1       2.717   7.140  18.582  0.00  0.00    +0.000 C 
ATOM      7  C   UNL     1       2.621   6.049  19.636  0.00  0.00    +0.000 C 
ATOM      8  C   UNL     1       3.988   5.366  19.606  0.00  0.00    +0.000 C 
ENDBRANCH   1   2
BRANCH   1   9
ATOM      9  N   UNL     1       7.490   6.545  16.706  0.00  0.00    +0.000 NA
ATOM     10  H   UNL     1       8.219   6.221  16.060  0.00  0.00    +0.000 HD
ATOM     11  H   UNL     1       7.882   6.426  17.641  0.00  0.00    +0.000 HD
ENDBRANCH   1   9
BRANCH   1  13
ATOM     12  C   UNL     1       6.713   4.631  14.214  0.00  0.00    +0.000 C 
ATOM     13  C   UNL     1       6.739   4.390  15.718  0.00  0.00    +0.000 C 
BRANCH  13  14
ATOM     14  O   UNL     1       5.916   3.255  16.031  0.00  0.00    +0.000 OA
ATOM     15  H   UNL     1       5.774   3.271  17.002  0.00  0.00    +0.000 HD
ENDBRANCH  13  14
ENDBRANCH   1  13
TORSDOF 4
ENDMDL
