MODEL 1
REMARK VINA RESULT:      -6.5      0.000      0.000
REMARK  Name = 
REMARK  7 active torsions:
REMARK  status: ('A' for Active; 'I' for Inactive)
REMARK    1  A    between atoms: C_1  and  O_2
REMARK    2  A    between atoms: O_2  and  C_3
REMARK    3  A    between atoms: C_6  and  C_7
REMARK    4  A    between atoms: N_9  and  C_10
REMARK    5  A    between atoms: N_9  and  C_11
REMARK    6  A    between atoms: C_11  and  C_12
REMARK    7  A    between atoms: C_12  and  N_13
REMARK                            x       y       z     vdW  Elec       q    Type
REMARK                         _______ _______ _______ _____ _____    ______ ____
ROOT
ATOM      1  C   UNL     1       4.767   4.436  17.084  0.00  0.00    +0.000 C 
ATOM      2  O   UNL     1       5.190   3.419  16.524  0.00  0.00    +0.000 OA
ATOM      3  N   UNL     1       3.400   4.533  17.423  0.00  0.00    +0.000 N 
ATOM      4  C   UNL     1       2.774   5.593  18.196  0.00  0.00    +0.000 C 
ENDROOT
BRANCH   1   8
ATOM      5  C   UNL     1       7.756   7.401  18.179  0.00  0.00    +0.000 A 
ATOM      6  C   UNL     1       7.703   6.149  18.785  0.00  0.00    +0.000 A 
ATOM      7  C   UNL     1       6.735   5.212  18.400  0.00  0.00    +0.000 A 
ATOM      8  C   UNL     1       5.802   5.493  17.383  0.00  0.00    +0.000 A 
ATOM      9  C   UNL     1       5.927   6.725  16.733  0.00  0.00    +0.000 A 
ATOM     10  C   UNL     1       6.852   7.687  17.160  0.00  0.00    +0.000 A 
BRANCH   5  12
ATOM     11  C   UNL     1       8.585   9.616  18.270  0.00  0.00    +0.000 C 
ATOM     12  O   UNL     1       8.717   8.250  18.651  0.00  0.00    +0.000 OA
ENDBRANCH   5  12
ENDBRANCH   1   8
BRANCH   3  13
ATOM     13  C   UNL     1       2.561   3.339  17.173  0.00  0.00    +0.000 C 
BRANCH  13  14
ATOM     14  C   UNL     1       2.821   2.155  18.105  0.00  0.00    +0.000 C 
BRANCH  14  15
ATOM     15  N   UNL     1       2.469   2.459  19.478  0.00  0.00    +0.000 N 
ATOM     16  C   UNL     1       3.318   2.524  20.545  0.00  0.00    +0.000 A 
ATOM     17  C   UNL     1       2.523   2.794  21.641  0.00  0.00    +0.000 A 
ATOM     18  C   UNL     1       1.216   2.861  21.127  0.00  0.00    +0.000 A 
ATOM     19  N   UNL     1       1.176   2.652  19.809  0.00  0.00    +0.000 NA
ENDBRANCH  14  15
ENDBRANCH  13  14
ENDBRANCH   3  13
TORSDOF 5
ENDMDL
MODEL 2
REMARK VINA RESULT:      -6.3      3.140      4.381
REMARK  Name = 
REMARK  7 active torsions:
REMARK  status: ('A' for Active; 'I' for Inactive)
REMARK    1  A    between atoms: C_1  and  O_2
REMARK    2  A    between atoms: O_2  and  C_3
REMARK    3  A    between atoms: C_6  and  C_7
REMARK    4  A    between atoms: N_9  and  C_10
REMARK    5  A    between atoms: N_9  and  C_11
REMARK    6  A    between atoms: C_11  and  C_12
REMARK    7  A    between atoms: C_12  and  N_13
REMARK                            x       y       z     vdW  Elec       q    Type
REMARK                         _______ _______ _______ _____ _____    ______ ____
ROOT
ATOM      1  C   UNL     1       3.400   5.610  18.398  0.00  0.00    +0.000 C 
ATOM      2  O   UNL     1       4.568   5.515  18.791  0.00  0.00    +0.000 OA
ATOM      3  N   UNL     1       2.799   4.528  17.719  0.00  0.00    +0.000 N 
ATOM      4  C   UNL     1       1.407   4.428  17.313  0.00  0.00    +0.000 C 
ENDROOT
BRANCH   1   8
ATOM      5  C   UNL     1       1.257   9.232  19.497  0.00  0.00    +0.000 A 
ATOM      6  C   UNL     1       1.462   8.194  20.401  0.00  0.00    +0.000 A 
ATOM      7  C   UNL     1       2.167   7.046  20.019  0.00  0.00    +0.000 A 
ATOM      8  C   UNL     1       2.706   6.910  18.725  0.00  0.00    +0.000 A 
ATOM      9  C   UNL     1       2.558   7.999  17.860  0.00  0.00    +0.000 A 
ATOM     10  C   UNL     1       1.797   9.120  18.220  0.00  0.00    +0.000 A 
BRANCH   5  12
ATOM     11  C   UNL     1       0.179  10.252  21.342  0.00  0.00    +0.000 C 
ATOM     12  O   UNL     1       0.529  10.291  19.962  0.00  0.00    +0.000 OA
ENDBRANCH   5  12
ENDBRANCH   1   8
BRANCH   3  13
ATOM     13  C   UNL     1       3.592   3.281  17.609  0.00  0.00    +0.000 C 
BRANCH  13  14
ATOM     14  C   UNL     1       2.961   2.051  18.263  0.00  0.00    +0.000 C 
BRANCH  14  15
ATOM     15  N   UNL     1       2.522   2.322  19.617  0.00  0.00    +0.000 N 
ATOM     16  C   UNL     1       1.233   2.405  20.059  0.00  0.00    +0.000 A 
ATOM     17  C   UNL     1       1.315   2.727  21.399  0.00  0.00    +0.000 A 
ATOM     18  C   UNL     1       2.694   2.825  21.659  0.00  0.00    +0.000 A 
ATOM     19  N   UNL     1       3.435   2.585  20.574  0.00  0.00    +0.000 NA
ENDBRANCH  14  15
ENDBRANCH  13  14
ENDBRANCH   3  13
TORSDOF 5
ENDMDL
MODEL 3
REMARK VINA RESULT:      -6.3      0.670      1.025
REMARK  Name = 
REMARK  7 active torsions:
REMARK  status: ('A' for Active; 'I' for Inactive)
REMARK    1  A    between atoms: C_1  and  O_2
REMARK    2  A    between atoms: O_2  and  C_3
REMARK    3  A    between atoms: C_6  and  C_7
REMARK    4  A    between atoms: N_9  and  C_10
REMARK    5  A    between atoms: N_9  and  C_11
REMARK    6  A    between atoms: C_11  and  C_12
REMARK    7  A    between atoms: C_12  and  N_13
REMARK                            x       y       z     vdW  Elec       q    Type
REMARK                         _______ _______ _______ _____ _____    ______ ____
ROOT
ATOM      1  C   UNL     1       4.113   4.716  17.203  0.00  0.00    +0.000 C 
ATOM      2  O   UNL     1       4.295   3.758  16.445  0.00  0.00    +0.000 OA
ATOM      3  N   UNL     1       2.836   4.933  17.765  0.00  0.00    +0.000 N 
ATOM      4  C   UNL     1       2.490   5.925  18.770  0.00  0.00    +0.000 C 
ENDROOT
BRANCH   1   8
ATOM      5  C   UNL     1       7.600   7.101  18.239  0.00  0.00    +0.000 A 
ATOM      6  C   UNL     1       7.297   5.913  18.897  0.00  0.00    +0.000 A 
ATOM      7  C   UNL     1       6.173   5.163  18.531  0.00  0.00    +0.000 A 
ATOM      8  C   UNL     1       5.327   5.568  17.481  0.00  0.00    +0.000 A 
ATOM      9  C   UNL     1       5.698   6.721  16.780  0.00  0.00    +0.000 A 
ATOM     10  C   UNL     1       6.784   7.507  17.187  0.00  0.00    +0.000 A 
BRANCH   5  12
ATOM     11  C   UNL     1       8.668   9.189  18.562  0.00  0.00    +0.000 C 
ATOM     12  O   UNL     1       8.699   7.772  18.696  0.00  0.00    +0.000 OA
ENDBRANCH   5  12
ENDBRANCH   1   8
BRANCH   3  13
ATOM     13  C   UNL     1       1.798   3.914  17.485  0.00  0.00    +0.000 C 
BRANCH  13  14
ATOM     14  C   UNL     1       2.055   2.539  18.103  0.00  0.00    +0.000 C 
BRANCH  14  15
ATOM     15  N   UNL     1       2.058   2.588  19.551  0.00  0.00    +0.000 N 
ATOM     16  C   UNL     1       0.995   2.858  20.364  0.00  0.00    +0.000 A 
ATOM     17  C   UNL     1       1.493   2.841  21.652  0.00  0.00    +0.000 A 
ATOM     18  C   UNL     1       2.863   2.563  21.502  0.00  0.00    +0.000 A 
ATOM     19  N   UNL     1       3.215   2.413  20.222  0.00  0.00    +0.000 NA
ENDBRANCH  14  15
ENDBRANCH  13  14
ENDBRANCH   3  13
TORSDOF 5
ENDMDL
MODEL 4
REMARK VINA RESULT:      -6.2      3.133      4.272
REMARK  Name = 
REMARK  7 active torsions:
REMARK  status: ('A' for Active; 'I' for Inactive)
REMARK    1  A    between atoms: C_1  and  O_2
REMARK    2  A    between atoms: O_2  and  C_3
REMARK    3  A    between atoms: C_6  and  C_7
REMARK    4  A    between atoms: N_9  and  C_10
REMARK    5  A    between atoms: N_9  and  C_11
REMARK    6  A    between atoms: C_11  and  C_12
REMARK    7  A    between atoms: C_12  and  N_13
REMARK                            x       y       z     vdW  Elec       q    Type
REMARK                         _______ _______ _______ _____ _____    ______ ____
ROOT
ATOM      1  C   UNL     1       3.426   5.712  18.265  0.00  0.00    +0.000 C 
ATOM      2  O   UNL     1       4.622   5.656  18.570  0.00  0.00    +0.000 OA
ATOM      3  N   UNL     1       2.801   4.596  17.669  0.00  0.00    +0.000 N 
ATOM      4  C   UNL     1       1.384   4.452  17.374  0.00  0.00    +0.000 C 
ENDROOT
BRANCH   1   8
ATOM      5  C   UNL     1       1.273   9.319  19.393  0.00  0.00    +0.000 A 
ATOM      6  C   UNL     1       1.486   8.278  20.291  0.00  0.00    +0.000 A 
ATOM      7  C   UNL     1       2.194   7.134  19.899  0.00  0.00    +0.000 A 
ATOM      8  C   UNL     1       2.727   7.007  18.602  0.00  0.00    +0.000 A 
ATOM      9  C   UNL     1       2.571   8.101  17.743  0.00  0.00    +0.000 A 
ATOM     10  C   UNL     1       1.808   9.217  18.113  0.00  0.00    +0.000 A 
BRANCH   5  12
ATOM     11  C   UNL     1      -0.114  11.170  18.887  0.00  0.00    +0.000 C 
ATOM     12  O   UNL     1       0.542  10.373  19.867  0.00  0.00    +0.000 OA
ENDBRANCH   5  12
ENDBRANCH   1   8
BRANCH   3  13
ATOM     13  C   UNL     1       3.612   3.363  17.539  0.00  0.00    +0.000 C 
BRANCH  13  14
ATOM     14  C   UNL     1       3.034   2.129  18.233  0.00  0.00    +0.000 C 
BRANCH  14  15
ATOM     15  N   UNL     1       2.608   2.419  19.587  0.00  0.00    +0.000 N 
ATOM     16  C   UNL     1       3.409   2.706  20.655  0.00  0.00    +0.000 A 
ATOM     17  C   UNL     1       2.560   2.860  21.732  0.00  0.00    +0.000 A 
ATOM     18  C   UNL     1       1.274   2.636  21.208  0.00  0.00    +0.000 A 
ATOM     19  N   UNL     1       1.298   2.361  19.902  0.00  0.00    +0.000 NA
ENDBRANCH  14  15
ENDBRANCH  13  14
ENDBRANCH   3  13
TORSDOF 5
ENDMDL
MODEL 5
REMARK VINA RESULT:      -6.2      1.400      1.963
REMARK  Name = 
REMARK  7 active torsions:
REMARK  status: ('A' for Active; 'I' for Inactive)
REMARK    1  A    between atoms: C_1  and  O_2
REMARK    2  A    between atoms: O_2  and  C_3
REMARK    3  A    between atoms: C_6  and  C_7
REMARK    4  A    between atoms: N_9  and  C_10
REMARK    5  A    between atoms: N_9  and  C_11
REMARK    6  A    between atoms: C_11  and  C_12
REMARK    7  A    between atoms: C_12  and  N_13
REMARK                            x       y       z     vdW  Elec       q    Type
REMARK                         _______ _______ _______ _____ _____    ______ ____
ROOT
ATOM      1  C   UNL     1       5.137   3.743  18.616  0.00  0.00    +0.000 C 
ATOM      2  O   UNL     1       5.259   3.254  19.745  0.00  0.00    +0.000 OA
ATOM      3  N   UNL     1       4.289   3.125  17.672  0.00  0.00    +0.000 N 
ATOM      4  C   UNL     1       3.935   3.641  16.360  0.00  0.00    +0.000 C 
ENDROOT
BRANCH   1   8
ATOM      5  C   UNL     1       7.275   7.413  17.679  0.00  0.00    +0.000 A 
ATOM      6  C   UNL     1       6.011   7.146  17.164  0.00  0.00    +0.000 A 
ATOM      7  C   UNL     1       5.344   5.959  17.496  0.00  0.00    +0.000 A 
ATOM      8  C   UNL     1       5.915   5.013  18.369  0.00  0.00    +0.000 A 
ATOM      9  C   UNL     1       7.150   5.342  18.938  0.00  0.00    +0.000 A 
ATOM     10  C   UNL     1       7.846   6.497  18.557  0.00  0.00    +0.000 A 
BRANCH   5  12
ATOM     11  C   UNL     1       8.489   9.356  18.277  0.00  0.00    +0.000 C 
ATOM     12  O   UNL     1       7.850   8.583  17.267  0.00  0.00    +0.000 OA
ENDBRANCH   5  12
ENDBRANCH   1   8
BRANCH   3  13
ATOM     13  C   UNL     1       3.501   1.961  18.139  0.00  0.00    +0.000 C 
BRANCH  13  14
ATOM     14  C   UNL     1       2.030   2.252  18.441  0.00  0.00    +0.000 C 
BRANCH  14  15
ATOM     15  N   UNL     1       1.875   3.115  19.594  0.00  0.00    +0.000 N 
ATOM     16  C   UNL     1       1.625   4.458  19.585  0.00  0.00    +0.000 A 
ATOM     17  C   UNL     1       1.610   4.847  20.909  0.00  0.00    +0.000 A 
ATOM     18  C   UNL     1       1.871   3.668  21.631  0.00  0.00    +0.000 A 
ATOM     19  N   UNL     1       2.039   2.610  20.834  0.00  0.00    +0.000 NA
ENDBRANCH  14  15
ENDBRANCH  13  14
ENDBRANCH   3  13
TORSDOF 5
ENDMDL
MODEL 6
REMARK VINA RESULT:      -6.2      1.500      1.865
REMARK  Name = 
REMARK  7 active torsions:
REMARK  status: ('A' for Active; 'I' for Inactive)
REMARK    1  A    between atoms: C_1  and  O_2
REMARK    2  A    between atoms: O_2  and  C_3
REMARK    3  A    between atoms: C_6  and  C_7
REMARK    4  A    between atoms: N_9  and  C_10
REMARK    5  A    between atoms: N_9  and  C_11
REMARK    6  A    between atoms: C_11  and  C_12
REMARK    7  A    between atoms: C_12  and  N_13
REMARK                            x       y       z     vdW  Elec       q    Type
REMARK                         _______ _______ _______ _____ _____    ______ ____
ROOT
ATOM      1  C   UNL     1       4.917   3.506  18.545  0.00  0.00    +0.000 C 
ATOM      2  O   UNL     1       5.290   3.097  19.650  0.00  0.00    +0.000 OA
ATOM      3  N   UNL     1       3.944   2.783  17.821  0.00  0.00    +0.000 N 
ATOM      4  C   UNL     1       3.305   3.195  16.581  0.00  0.00    +0.000 C 
ENDROOT
BRANCH   1   8
ATOM      5  C   UNL     1       6.914   7.184  17.361  0.00  0.00    +0.000 A 
ATOM      6  C   UNL     1       7.624   6.038  17.706  0.00  0.00    +0.000 A 
ATOM      7  C   UNL     1       6.950   4.866  18.071  0.00  0.00    +0.000 A 
ATOM      8  C   UNL     1       5.543   4.800  18.083  0.00  0.00    +0.000 A 
ATOM      9  C   UNL     1       4.852   5.938  17.655  0.00  0.00    +0.000 A 
ATOM     10  C   UNL     1       5.524   7.130  17.352  0.00  0.00    +0.000 A 
BRANCH   5  12
ATOM     11  C   UNL     1       8.256   8.966  18.155  0.00  0.00    +0.000 C 
ATOM     12  O   UNL     1       7.669   8.281  17.053  0.00  0.00    +0.000 OA
ENDBRANCH   5  12
ENDBRANCH   1   8
BRANCH   3  13
ATOM     13  C   UNL     1       3.343   1.609  18.494  0.00  0.00    +0.000 C 
BRANCH  13  14
ATOM     14  C   UNL     1       1.920   1.816  19.016  0.00  0.00    +0.000 C 
BRANCH  14  15
ATOM     15  N   UNL     1       1.829   2.961  19.898  0.00  0.00    +0.000 N 
ATOM     16  C   UNL     1       1.301   4.185  19.601  0.00  0.00    +0.000 A 
ATOM     17  C   UNL     1       1.481   4.957  20.731  0.00  0.00    +0.000 A 
ATOM     18  C   UNL     1       2.135   4.109  21.643  0.00  0.00    +0.000 A 
ATOM     19  N   UNL     1       2.355   2.893  21.138  0.00  0.00    +0.000 NA
ENDBRANCH  14  15
ENDBRANCH  13  14
ENDBRANCH   3  13
TORSDOF 5
ENDMDL
MODEL 7
REMARK VINA RESULT:      -6.2      2.658      6.169
REMARK  Name = 
REMARK  7 active torsions:
REMARK  status: ('A' for Active; 'I' for Inactive)
REMARK    1  A    between atoms: C_1  and  O_2
REMARK    2  A    between atoms: O_2  and  C_3
REMARK    3  A    between atoms: C_6  and  C_7
REMARK    4  A    between atoms: N_9  and  C_10
REMARK    5  A    between atoms: N_9  and  C_11
REMARK    6  A    between atoms: C_11  and  C_12
REMARK    7  A    between atoms: C_12  and  N_13
REMARK                            x       y       z     vdW  Elec       q    Type
REMARK                         _______ _______ _______ _____ _____    ______ ____
ROOT
ATOM      1  C   UNL     1       4.107   5.612  16.957  0.00  0.00    +0.000 C 
ATOM      2  O   UNL     1       4.257   6.839  16.938  0.00  0.00    +0.000 OA
ATOM      3  N   UNL     1       4.800   4.806  16.029  0.00  0.00    +0.000 N 
ATOM      4  C   UNL     1       4.838   3.353  16.004  0.00  0.00    +0.000 C 
ENDROOT
BRANCH   1   8
ATOM      5  C   UNL     1       1.647   4.073  20.198  0.00  0.00    +0.000 A 
ATOM      6  C   UNL     1       2.783   4.841  20.436  0.00  0.00    +0.000 A 
ATOM      7  C   UNL     1       3.546   5.332  19.369  0.00  0.00    +0.000 A 
ATOM      8  C   UNL     1       3.185   5.085  18.030  0.00  0.00    +0.000 A 
ATOM      9  C   UNL     1       1.996   4.381  17.816  0.00  0.00    +0.000 A 
ATOM     10  C   UNL     1       1.267   3.834  18.881  0.00  0.00    +0.000 A 
BRANCH   5  12
ATOM     11  C   UNL     1       1.490   2.408  21.874  0.00  0.00    +0.000 C 
ATOM     12  O   UNL     1       0.994   3.618  21.309  0.00  0.00    +0.000 OA
ENDBRANCH   5  12
ENDBRANCH   1   8
BRANCH   3  13
ATOM     13  C   UNL     1       5.766   5.490  15.138  0.00  0.00    +0.000 C 
BRANCH  13  14
ATOM     14  C   UNL     1       7.239   5.291  15.501  0.00  0.00    +0.000 C 
BRANCH  14  15
ATOM     15  N   UNL     1       7.536   5.768  16.836  0.00  0.00    +0.000 N 
ATOM     16  C   UNL     1       7.632   5.017  17.972  0.00  0.00    +0.000 A 
ATOM     17  C   UNL     1       7.881   5.911  18.994  0.00  0.00    +0.000 A 
ATOM     18  C   UNL     1       7.904   7.171  18.369  0.00  0.00    +0.000 A 
ATOM     19  N   UNL     1       7.688   7.090  17.054  0.00  0.00    +0.000 NA
ENDBRANCH  14  15
ENDBRANCH  13  14
ENDBRANCH   3  13
TORSDOF 5
ENDMDL
MODEL 8
REMARK VINA RESULT:      -6.1      2.447      3.865
REMARK  Name = 
REMARK  7 active torsions:
REMARK  status: ('A' for Active; 'I' for Inactive)
REMARK    1  A    between atoms: C_1  and  O_2
REMARK    2  A    between atoms: O_2  and  C_3
REMARK    3  A    between atoms: C_6  and  C_7
REMARK    4  A    between atoms: N_9  and  C_10
REMARK    5  A    between atoms: N_9  and  C_11
REMARK    6  A    between atoms: C_11  and  C_12
REMARK    7  A    between atoms: C_12  and  N_13
REMARK                            x       y       z     vdW  Elec       q    Type
REMARK                         _______ _______ _______ _____ _____    ______ ____
ROOT
ATOM      1  C   UNL     1       5.045   4.891  18.189  0.00  0.00    +0.000 C 
ATOM      2  O   UNL     1       5.510   4.092  19.010  0.00  0.00    +0.000 OA
ATOM      3  N   UNL     1       4.024   5.783  18.580  0.00  0.00    +0.000 N 
ATOM      4  C   UNL     1       3.467   6.865  17.783  0.00  0.00    +0.000 C 
ENDROOT
BRANCH   1   8
ATOM      5  C   UNL     1       6.710   4.544  14.186  0.00  0.00    +0.000 A 
ATOM      6  C   UNL     1       5.461   4.025  14.512  0.00  0.00    +0.000 A 
ATOM      7  C   UNL     1       4.949   4.164  15.808  0.00  0.00    +0.000 A 
ATOM      8  C   UNL     1       5.663   4.845  16.813  0.00  0.00    +0.000 A 
ATOM      9  C   UNL     1       6.878   5.429  16.440  0.00  0.00    +0.000 A 
ATOM     10  C   UNL     1       7.421   5.235  15.163  0.00  0.00    +0.000 A 
BRANCH   5  12
ATOM     11  C   UNL     1       6.356   3.404  12.142  0.00  0.00    +0.000 C 
ATOM     12  O   UNL     1       7.130   4.324  12.904  0.00  0.00    +0.000 OA
ENDBRANCH   5  12
ENDBRANCH   1   8
BRANCH   3  13
ATOM     13  C   UNL     1       3.638   5.775  20.011  0.00  0.00    +0.000 C 
BRANCH  13  14
ATOM     14  C   UNL     1       2.215   5.293  20.298  0.00  0.00    +0.000 C 
BRANCH  14  15
ATOM     15  N   UNL     1       1.962   3.986  19.727  0.00  0.00    +0.000 N 
ATOM     16  C   UNL     1       1.168   3.701  18.653  0.00  0.00    +0.000 A 
ATOM     17  C   UNL     1       1.198   2.327  18.517  0.00  0.00    +0.000 A 
ATOM     18  C   UNL     1       2.028   1.883  19.563  0.00  0.00    +0.000 A 
ATOM     19  N   UNL     1       2.491   2.890  20.307  0.00  0.00    +0.000 NA
ENDBRANCH  14  15
ENDBRANCH  13  14
ENDBRANCH   3  13
TORSDOF 5
ENDMDL
MODEL 9
REMARK VINA RESULT:      -6.1      3.190      4.522
REMARK  Name = 
REMARK  7 active torsions:
REMARK  status: ('A' for Active; 'I' for Inactive)
REMARK    1  A    between atoms: C_1  and  O_2
REMARK    2  A    between atoms: O_2  and  C_3
REMARK    3  A    between atoms: C_6  and  C_7
REMARK    4  A    between atoms: N_9  and  C_10
REMARK    5  A    between atoms: N_9  and  C_11
REMARK    6  A    between atoms: C_11  and  C_12
REMARK    7  A    between atoms: C_12  and  N_13
REMARK                            x       y       z     vdW  Elec       q    Type
REMARK                         _______ _______ _______ _____ _____    ______ ____
ROOT
ATOM      1  C   UNL     1       3.345   5.809  18.407  0.00  0.00    +0.000 C 
ATOM      2  O   UNL     1       4.529   5.794  18.763  0.00  0.00    +0.000 OA
ATOM      3  N   UNL     1       2.803   4.698  17.726  0.00  0.00    +0.000 N 
ATOM      4  C   UNL     1       1.409   4.503  17.362  0.00  0.00    +0.000 C 
ENDROOT
BRANCH   1   8
ATOM      5  C   UNL     1       1.240   9.507  19.308  0.00  0.00    +0.000 A 
ATOM      6  C   UNL     1       1.724   9.227  18.034  0.00  0.00    +0.000 A 
ATOM      7  C   UNL     1       2.388   8.021  17.775  0.00  0.00    +0.000 A 
ATOM      8  C   UNL     1       2.569   7.050  18.778  0.00  0.00    +0.000 A 
ATOM      9  C   UNL     1       2.002   7.318  20.029  0.00  0.00    +0.000 A 
ATOM     10  C   UNL     1       1.396   8.551  20.307  0.00  0.00    +0.000 A 
BRANCH   5  12
ATOM     11  C   UNL     1      -0.784  10.716  19.521  0.00  0.00    +0.000 C 
ATOM     12  O   UNL     1       0.638  10.725  19.462  0.00  0.00    +0.000 OA
ENDBRANCH   5  12
ENDBRANCH   1   8
BRANCH   3  13
ATOM     13  C   UNL     1       3.680   3.514  17.570  0.00  0.00    +0.000 C 
BRANCH  13  14
ATOM     14  C   UNL     1       3.156   2.229  18.212  0.00  0.00    +0.000 C 
BRANCH  14  15
ATOM     15  N   UNL     1       2.687   2.451  19.564  0.00  0.00    +0.000 N 
ATOM     16  C   UNL     1       3.451   2.721  20.663  0.00  0.00    +0.000 A 
ATOM     17  C   UNL     1       2.571   2.804  21.723  0.00  0.00    +0.000 A 
ATOM     18  C   UNL     1       1.306   2.558  21.157  0.00  0.00    +0.000 A 
ATOM     19  N   UNL     1       1.372   2.337  19.842  0.00  0.00    +0.000 NA
ENDBRANCH  14  15
ENDBRANCH  13  14
ENDBRANCH   3  13
TORSDOF 5
ENDMDL
