MODEL 1
REMARK VINA RESULT:      -6.4      0.000      0.000
REMARK  Name = 
REMARK  10 active torsions:
REMARK  status: ('A' for Active; 'I' for Inactive)
REMARK    1  A    between atoms: C_1  and  C_2
REMARK    2  A    between atoms: C_2  and  C_3
REMARK    3  A    between atoms: C_2  and  C_4
REMARK    4  A    between atoms: C_4  and  N_5
REMARK    5  A    between atoms: C_4  and  C_15
REMARK    6  A    between atoms: N_5  and  C_6
REMARK    7  A    between atoms: C_6  and  C_7
REMARK    8  A    between atoms: C_10  and  C_11
REMARK    9  A    between atoms: C_15  and  C_16
REMARK   10  A    between atoms: C_16  and  O_17
REMARK                            x       y       z     vdW  Elec       q    Type
REMARK                         _______ _______ _______ _____ _____    ______ ____
ROOT
ATOM      1  C   UNL     1       3.832   4.645  17.381  0.00  0.00    +0.000 C 
ENDROOT
BRANCH   1   2
ATOM      2  C   UNL     1       2.959   3.598  18.163  0.00  0.00    +0.000 C 
ATOM      3  C   UNL     1       2.955   3.829  19.720  0.00  0.00    +0.000 C 
ATOM      4  C   UNL     1       1.427   3.665  19.729  0.00  0.00    +0.000 C 
ATOM      5  C   UNL     1       1.427   3.918  18.220  0.00  0.00    +0.000 C 
BRANCH   2   6
ATOM      6  C   UNL     1       3.202   2.115  17.825  0.00  0.00    +0.000 C 
BRANCH   6   7
ATOM      7  O   UNL     1       4.083   1.506  18.761  0.00  0.00    +0.000 OA
ATOM      8  H   UNL     1       3.913   1.933  19.627  0.00  0.00    +0.000 HD
ENDBRANCH   6   7
ENDBRANCH   2   6
ENDBRANCH   1   2
BRANCH   1  10
ATOM      9  C   UNL     1       6.439   4.556  17.646  0.00  0.00    +0.000 C 
ATOM     10  C   UNL     1       5.212   4.125  16.847  0.00  0.00    +0.000 C 
ATOM     11  C   UNL     1       5.458   4.322  15.347  0.00  0.00    +0.000 C 
ENDBRANCH   1  10
BRANCH   1  12
ATOM     12  N   UNL     1       4.001   5.881  18.203  0.00  0.00    +0.000 NA
ATOM     13  H   UNL     1       3.473   5.775  19.072  0.00  0.00    +0.000 HD
BRANCH  12  14
ATOM     14  C   UNL     1       3.491   7.092  17.536  0.00  0.00    +0.000 C 
BRANCH  14  15
ATOM     15  C   UNL     1       2.503   7.864  18.379  0.00  0.00    +0.000 A 
ATOM     16  C   UNL     1       2.220   7.461  19.696  0.00  0.00    +0.000 A 
ATOM     17  C   UNL     1       1.385   8.231  20.509  0.00  0.00    +0.000 A 
ATOM     18  C   UNL     1       0.828   9.413  20.018  0.00  0.00    +0.000 A 
ATOM     19  C   UNL     1       1.119   9.832  18.714  0.00  0.00    +0.000 A 
ATOM     20  C   UNL     1       1.954   9.061  17.903  0.00  0.00    +0.000 A 
BRANCH  18  21
ATOM     21  C   UNL     1      -0.021  10.207  20.852  0.00  0.00    +0.000 C 
ATOM     22  N   UNL     1      -0.708  10.849  21.537  0.00  0.00    +0.000 NA
ENDBRANCH  18  21
ENDBRANCH  14  15
ENDBRANCH  12  14
ENDBRANCH   1  12
TORSDOF 8
ENDMDL
MODEL 2
REMARK VINA RESULT:      -6.4      1.703      3.316
REMARK  Name = 
REMARK  10 active torsions:
REMARK  status: ('A' for Active; 'I' for Inactive)
REMARK    1  A    between atoms: C_1  and  C_2
REMARK    2  A    between atoms: C_2  and  C_3
REMARK    3  A    between atoms: C_2  and  C_4
REMARK    4  A    between atoms: C_4  and  N_5
REMARK    5  A    between atoms: C_4  and  C_15
REMARK    6  A    between atoms: N_5  and  C_6
REMARK    7  A    between atoms: C_6  and  C_7
REMARK    8  A    between atoms: C_10  and  C_11
REMARK    9  A    between atoms: C_15  and  C_16
REMARK   10  A    between atoms: C_16  and  O_17
REMARK                            x       y       z     vdW  Elec       q    Type
REMARK                         _______ _______ _______ _____ _____    ______ ____
ROOT
ATOM      1  C   UNL     1       4.595   4.657  18.000  0.00  0.00    +0.000 C 
ENDROOT
BRANCH   1   2
ATOM      2  C   UNL     1       5.762   4.945  16.987  0.00  0.00    +0.000 C 
ATOM      3  C   UNL     1       5.880   3.861  15.851  0.00  0.00    +0.000 C 
ATOM      4  C   UNL     1       5.995   4.984  14.808  0.00  0.00    +0.000 C 
ATOM      5  C   UNL     1       5.415   5.953  15.840  0.00  0.00    +0.000 C 
BRANCH   2   6
ATOM      6  C   UNL     1       7.139   5.256  17.600  0.00  0.00    +0.000 C 
BRANCH   6   7
ATOM      7  O   UNL     1       7.922   4.077  17.748  0.00  0.00    +0.000 OA
ATOM      8  H   UNL     1       7.952   3.647  16.867  0.00  0.00    +0.000 HD
ENDBRANCH   6   7
ENDBRANCH   2   6
ENDBRANCH   1   2
BRANCH   1  10
ATOM      9  C   UNL     1       2.540   3.198  17.278  0.00  0.00    +0.000 C 
ATOM     10  C   UNL     1       3.934   3.238  17.900  0.00  0.00    +0.000 C 
ATOM     11  C   UNL     1       3.970   2.398  19.180  0.00  0.00    +0.000 C 
ENDBRANCH   1  10
BRANCH   1  12
ATOM     12  N   UNL     1       3.568   5.739  17.916  0.00  0.00    +0.000 NA
ATOM     13  H   UNL     1       3.971   6.538  17.419  0.00  0.00    +0.000 HD
BRANCH  12  14
ATOM     14  C   UNL     1       3.136   6.229  19.236  0.00  0.00    +0.000 C 
BRANCH  14  15
ATOM     15  C   UNL     1       2.284   7.474  19.160  0.00  0.00    +0.000 A 
ATOM     16  C   UNL     1       1.692   8.006  20.319  0.00  0.00    +0.000 A 
ATOM     17  C   UNL     1       0.990   9.211  20.267  0.00  0.00    +0.000 A 
ATOM     18  C   UNL     1       0.876   9.903  19.059  0.00  0.00    +0.000 A 
ATOM     19  C   UNL     1       1.479   9.391  17.904  0.00  0.00    +0.000 A 
ATOM     20  C   UNL     1       2.181   8.185  17.958  0.00  0.00    +0.000 A 
BRANCH  18  21
ATOM     21  C   UNL     1       0.164  11.143  19.006  0.00  0.00    +0.000 C 
ATOM     22  N   UNL     1      -0.408  12.155  18.965  0.00  0.00    +0.000 NA
ENDBRANCH  18  21
ENDBRANCH  14  15
ENDBRANCH  12  14
ENDBRANCH   1  12
TORSDOF 8
ENDMDL
MODEL 3
REMARK VINA RESULT:      -6.3      1.906      3.637
REMARK  Name = 
REMARK  10 active torsions:
REMARK  status: ('A' for Active; 'I' for Inactive)
REMARK    1  A    between atoms: C_1  and  C_2
REMARK    2  A    between atoms: C_2  and  C_3
REMARK    3  A    between atoms: C_2  and  C_4
REMARK    4  A    between atoms: C_4  and  N_5
REMARK    5  A    between atoms: C_4  and  C_15
REMARK    6  A    between atoms: N_5  and  C_6
REMARK    7  A    between atoms: C_6  and  C_7
REMARK    8  A    between atoms: C_10  and  C_11
REMARK    9  A    between atoms: C_15  and  C_16
REMARK   10  A    between atoms: C_16  and  O_17
REMARK                            x       y       z     vdW  Elec       q    Type
REMARK                         _______ _______ _______ _____ _____    ______ ____
ROOT
ATOM      1  C   UNL     1       5.031   5.090  18.531  0.00  0.00    +0.000 C 
ENDROOT
BRANCH   1   2
ATOM      2  C   UNL     1       6.321   5.557  17.764  0.00  0.00    +0.000 C 
ATOM      3  C   UNL     1       6.184   6.993  17.133  0.00  0.00    +0.000 C 
ATOM      4  C   UNL     1       7.563   7.362  17.704  0.00  0.00    +0.000 C 
ATOM      5  C   UNL     1       7.443   6.177  18.664  0.00  0.00    +0.000 C 
BRANCH   2   6
ATOM      6  C   UNL     1       6.912   4.562  16.749  0.00  0.00    +0.000 C 
BRANCH   6   7
ATOM      7  O   UNL     1       8.150   4.028  17.203  0.00  0.00    +0.000 OA
ATOM      8  H   UNL     1       8.722   3.931  16.412  0.00  0.00    +0.000 HD
ENDBRANCH   6   7
ENDBRANCH   2   6
ENDBRANCH   1   2
BRANCH   1  10
ATOM      9  C   UNL     1       3.496   3.320  17.354  0.00  0.00    +0.000 C 
ATOM     10  C   UNL     1       4.628   3.586  18.343  0.00  0.00    +0.000 C 
ATOM     11  C   UNL     1       4.403   2.795  19.635  0.00  0.00    +0.000 C 
ENDBRANCH   1  10
BRANCH   1  12
ATOM     12  N   UNL     1       3.890   6.000  18.210  0.00  0.00    +0.000 NA
ATOM     13  H   UNL     1       4.263   6.903  17.907  0.00  0.00    +0.000 HD
BRANCH  12  14
ATOM     14  C   UNL     1       3.018   6.262  19.367  0.00  0.00    +0.000 C 
BRANCH  14  15
ATOM     15  C   UNL     1       2.291   7.584  19.278  0.00  0.00    +0.000 A 
ATOM     16  C   UNL     1       2.194   8.264  18.051  0.00  0.00    +0.000 A 
ATOM     17  C   UNL     1       1.438   9.433  17.946  0.00  0.00    +0.000 A 
ATOM     18  C   UNL     1       0.766   9.933  19.063  0.00  0.00    +0.000 A 
ATOM     19  C   UNL     1       0.841   9.252  20.284  0.00  0.00    +0.000 A 
ATOM     20  C   UNL     1       1.597   8.083  20.387  0.00  0.00    +0.000 A 
BRANCH  18  21
ATOM     21  C   UNL     1      -0.017  11.127  18.955  0.00  0.00    +0.000 C 
ATOM     22  N   UNL     1      -0.646  12.100  18.863  0.00  0.00    +0.000 NA
ENDBRANCH  18  21
ENDBRANCH  14  15
ENDBRANCH  12  14
ENDBRANCH   1  12
TORSDOF 8
ENDMDL
MODEL 4
REMARK VINA RESULT:      -6.3      3.009      5.030
REMARK  Name = 
REMARK  10 active torsions:
REMARK  status: ('A' for Active; 'I' for Inactive)
REMARK    1  A    between atoms: C_1  and  C_2
REMARK    2  A    between atoms: C_2  and  C_3
REMARK    3  A    between atoms: C_2  and  C_4
REMARK    4  A    between atoms: C_4  and  N_5
REMARK    5  A    between atoms: C_4  and  C_15
REMARK    6  A    between atoms: N_5  and  C_6
REMARK    7  A    between atoms: C_6  and  C_7
REMARK    8  A    between atoms: C_10  and  C_11
REMARK    9  A    between atoms: C_15  and  C_16
REMARK   10  A    between atoms: C_16  and  O_17
REMARK                            x       y       z     vdW  Elec       q    Type
REMARK                         _______ _______ _______ _____ _____    ______ ____
ROOT
ATOM      1  C   UNL     1       3.021   4.249  18.819  0.00  0.00    +0.000 C 
ENDROOT
BRANCH   1   2
ATOM      2  C   UNL     1       2.206   3.130  19.563  0.00  0.00    +0.000 C 
ATOM      3  C   UNL     1       2.845   2.706  20.938  0.00  0.00    +0.000 C 
ATOM      4  C   UNL     1       1.460   2.801  21.598  0.00  0.00    +0.000 C 
ATOM      5  C   UNL     1       0.991   3.642  20.409  0.00  0.00    +0.000 C 
BRANCH   2   6
ATOM      6  C   UNL     1       1.820   1.895  18.729  0.00  0.00    +0.000 C 
BRANCH   6   7
ATOM      7  O   UNL     1       2.935   1.037  18.521  0.00  0.00    +0.000 OA
ATOM      8  H   UNL     1       2.938   0.805  17.568  0.00  0.00    +0.000 HD
ENDBRANCH   6   7
ENDBRANCH   2   6
ENDBRANCH   1   2
BRANCH   1  10
ATOM      9  C   UNL     1       1.792   6.245  17.645  0.00  0.00    +0.000 C 
ATOM     10  C   UNL     1       2.438   5.702  18.918  0.00  0.00    +0.000 C 
ATOM     11  C   UNL     1       3.372   6.751  19.530  0.00  0.00    +0.000 C 
ENDBRANCH   1  10
BRANCH   1  12
ATOM     12  N   UNL     1       3.250   3.853  17.397  0.00  0.00    +0.000 NA
ATOM     13  H   UNL     1       2.727   2.995  17.205  0.00  0.00    +0.000 HD
BRANCH  12  14
ATOM     14  C   UNL     1       4.664   3.571  17.096  0.00  0.00    +0.000 C 
BRANCH  14  15
ATOM     15  C   UNL     1       5.555   4.783  17.230  0.00  0.00    +0.000 A 
ATOM     16  C   UNL     1       5.288   5.950  16.493  0.00  0.00    +0.000 A 
ATOM     17  C   UNL     1       6.049   7.103  16.691  0.00  0.00    +0.000 A 
ATOM     18  C   UNL     1       7.084   7.106  17.629  0.00  0.00    +0.000 A 
ATOM     19  C   UNL     1       7.345   5.954  18.381  0.00  0.00    +0.000 A 
ATOM     20  C   UNL     1       6.582   4.802  18.182  0.00  0.00    +0.000 A 
BRANCH  18  21
ATOM     21  C   UNL     1       7.860   8.289  17.839  0.00  0.00    +0.000 C 
ATOM     22  N   UNL     1       8.499   9.246  18.009  0.00  0.00    +0.000 NA
ENDBRANCH  18  21
ENDBRANCH  14  15
ENDBRANCH  12  14
ENDBRANCH   1  12
TORSDOF 8
ENDMDL
MODEL 5
REMARK VINA RESULT:      -6.2      1.212      1.792
REMARK  Name = 
REMARK  10 active torsions:
REMARK  status: ('A' for Active; 'I' for Inactive)
REMARK    1  A    between atoms: C_1  and  C_2
REMARK    2  A    between atoms: C_2  and  C_3
REMARK    3  A    between atoms: C_2  and  C_4
REMARK    4  A    between atoms: C_4  and  N_5
REMARK    5  A    between atoms: C_4  and  C_15
REMARK    6  A    between atoms: N_5  and  C_6
REMARK    7  A    between atoms: C_6  and  C_7
REMARK    8  A    between atoms: C_10  and  C_11
REMARK    9  A    between atoms: C_15  and  C_16
REMARK   10  A    between atoms: C_16  and  O_17
REMARK                            x       y       z     vdW  Elec       q    Type
REMARK                         _______ _______ _______ _____ _____    ______ ____
ROOT
ATOM      1  C   UNL     1       3.084   4.531  18.605  0.00  0.00    +0.000 C 
ENDROOT
BRANCH   1   2
ATOM      2  C   UNL     1       2.155   3.561  19.420  0.00  0.00    +0.000 C 
ATOM      3  C   UNL     1       2.906   2.811  20.583  0.00  0.00    +0.000 C 
ATOM      4  C   UNL     1       1.752   3.158  21.537  0.00  0.00    +0.000 C 
ATOM      5  C   UNL     1       1.310   4.240  20.550  0.00  0.00    +0.000 C 
BRANCH   2   6
ATOM      6  C   UNL     1       1.295   2.584  18.597  0.00  0.00    +0.000 C 
BRANCH   6   7
ATOM      7  O   UNL     1       2.088   1.557  18.014  0.00  0.00    +0.000 OA
ATOM      8  H   UNL     1       2.851   1.416  18.613  0.00  0.00    +0.000 HD
ENDBRANCH   6   7
ENDBRANCH   2   6
ENDBRANCH   1   2
BRANCH   1  10
ATOM      9  C   UNL     1       5.668   4.744  18.998  0.00  0.00    +0.000 C 
ATOM     10  C   UNL     1       4.529   4.002  18.301  0.00  0.00    +0.000 C 
ATOM     11  C   UNL     1       4.860   3.791  16.820  0.00  0.00    +0.000 C 
ENDBRANCH   1  10
BRANCH   1  12
ATOM     12  N   UNL     1       3.126   5.870  19.265  0.00  0.00    +0.000 NA
ATOM     13  H   UNL     1       2.368   5.925  19.950  0.00  0.00    +0.000 HD
BRANCH  12  14
ATOM     14  C   UNL     1       2.933   6.986  18.322  0.00  0.00    +0.000 C 
BRANCH  14  15
ATOM     15  C   UNL     1       2.058   8.087  18.873  0.00  0.00    +0.000 A 
ATOM     16  C   UNL     1       1.538   9.078  18.021  0.00  0.00    +0.000 A 
ATOM     17  C   UNL     1       0.648  10.036  18.510  0.00  0.00    +0.000 A 
ATOM     18  C   UNL     1       0.264  10.014  19.852  0.00  0.00    +0.000 A 
ATOM     19  C   UNL     1       0.761   9.019  20.703  0.00  0.00    +0.000 A 
ATOM     20  C   UNL     1       1.651   8.061  20.212  0.00  0.00    +0.000 A 
BRANCH  18  21
ATOM     21  C   UNL     1      -0.655  10.990  20.353  0.00  0.00    +0.000 C 
ATOM     22  N   UNL     1      -1.395  11.789  20.762  0.00  0.00    +0.000 NA
ENDBRANCH  18  21
ENDBRANCH  14  15
ENDBRANCH  12  14
ENDBRANCH   1  12
TORSDOF 8
ENDMDL
MODEL 6
REMARK VINA RESULT:      -6.2      1.225      1.474
REMARK  Name = 
REMARK  10 active torsions:
REMARK  status: ('A' for Active; 'I' for Inactive)
REMARK    1  A    between atoms: C_1  and  C_2
REMARK    2  A    between atoms: C_2  and  C_3
REMARK    3  A    between atoms: C_2  and  C_4
REMARK    4  A    between atoms: C_4  and  N_5
REMARK    5  A    between atoms: C_4  and  C_15
REMARK    6  A    between atoms: N_5  and  C_6
REMARK    7  A    between atoms: C_6  and  C_7
REMARK    8  A    between atoms: C_10  and  C_11
REMARK    9  A    between atoms: C_15  and  C_16
REMARK   10  A    between atoms: C_16  and  O_17
REMARK                            x       y       z     vdW  Elec       q    Type
REMARK                         _______ _______ _______ _____ _____    ______ ____
ROOT
ATOM      1  C   UNL     1       3.059   4.611  18.576  0.00  0.00    +0.000 C 
ENDROOT
BRANCH   1   2
ATOM      2  C   UNL     1       2.140   3.677  19.444  0.00  0.00    +0.000 C 
ATOM      3  C   UNL     1       2.930   2.880  20.549  0.00  0.00    +0.000 C 
ATOM      4  C   UNL     1       1.860   3.272  21.580  0.00  0.00    +0.000 C 
ATOM      5  C   UNL     1       1.405   4.383  20.633  0.00  0.00    +0.000 C 
BRANCH   2   6
ATOM      6  C   UNL     1       1.182   2.750  18.674  0.00  0.00    +0.000 C 
BRANCH   6   7
ATOM      7  O   UNL     1       1.701   1.428  18.578  0.00  0.00    +0.000 OA
ATOM      8  H   UNL     1       2.096   1.217  19.451  0.00  0.00    +0.000 HD
ENDBRANCH   6   7
ENDBRANCH   2   6
ENDBRANCH   1   2
BRANCH   1  10
ATOM      9  C   UNL     1       5.668   4.570  18.832  0.00  0.00    +0.000 C 
ATOM     10  C   UNL     1       4.435   4.000  18.135  0.00  0.00    +0.000 C 
ATOM     11  C   UNL     1       4.669   3.920  16.623  0.00  0.00    +0.000 C 
ENDBRANCH   1  10
BRANCH   1  12
ATOM     12  N   UNL     1       3.245   5.924  19.263  0.00  0.00    +0.000 NA
ATOM     13  H   UNL     1       2.540   6.014  19.999  0.00  0.00    +0.000 HD
BRANCH  12  14
ATOM     14  C   UNL     1       3.074   7.076  18.362  0.00  0.00    +0.000 C 
BRANCH  14  15
ATOM     15  C   UNL     1       2.033   8.060  18.844  0.00  0.00    +0.000 A 
ATOM     16  C   UNL     1       1.675   8.111  20.202  0.00  0.00    +0.000 A 
ATOM     17  C   UNL     1       0.789   9.086  20.665  0.00  0.00    +0.000 A 
ATOM     18  C   UNL     1       0.256  10.024  19.779  0.00  0.00    +0.000 A 
ATOM     19  C   UNL     1       0.623   9.993  18.428  0.00  0.00    +0.000 A 
ATOM     20  C   UNL     1       1.509   9.017  17.967  0.00  0.00    +0.000 A 
BRANCH  18  21
ATOM     21  C   UNL     1      -0.645  11.030  20.253  0.00  0.00    +0.000 C 
ATOM     22  N   UNL     1      -1.371  11.851  20.642  0.00  0.00    +0.000 NA
ENDBRANCH  18  21
ENDBRANCH  14  15
ENDBRANCH  12  14
ENDBRANCH   1  12
TORSDOF 8
ENDMDL
MODEL 7
REMARK VINA RESULT:      -6.2      2.870      6.220
REMARK  Name = 
REMARK  10 active torsions:
REMARK  status: ('A' for Active; 'I' for Inactive)
REMARK    1  A    between atoms: C_1  and  C_2
REMARK    2  A    between atoms: C_2  and  C_3
REMARK    3  A    between atoms: C_2  and  C_4
REMARK    4  A    between atoms: C_4  and  N_5
REMARK    5  A    between atoms: C_4  and  C_15
REMARK    6  A    between atoms: N_5  and  C_6
REMARK    7  A    between atoms: C_6  and  C_7
REMARK    8  A    between atoms: C_10  and  C_11
REMARK    9  A    between atoms: C_15  and  C_16
REMARK   10  A    between atoms: C_16  and  O_17
REMARK                            x       y       z     vdW  Elec       q    Type
REMARK                         _______ _______ _______ _____ _____    ______ ____
ROOT
ATOM      1  C   UNL     1       3.537   4.509  19.822  0.00  0.00    +0.000 C 
ENDROOT
BRANCH   1   2
ATOM      2  C   UNL     1       2.620   3.261  20.090  0.00  0.00    +0.000 C 
ATOM      3  C   UNL     1       2.736   2.708  21.560  0.00  0.00    +0.000 C 
ATOM      4  C   UNL     1       1.203   2.640  21.643  0.00  0.00    +0.000 C 
ATOM      5  C   UNL     1       1.132   3.592  20.448  0.00  0.00    +0.000 C 
BRANCH   2   6
ATOM      6  C   UNL     1       2.701   2.118  19.061  0.00  0.00    +0.000 C 
BRANCH   6   7
ATOM      7  O   UNL     1       1.425   1.830  18.502  0.00  0.00    +0.000 OA
ATOM      8  H   UNL     1       1.128   0.983  18.898  0.00  0.00    +0.000 HD
ENDBRANCH   6   7
ENDBRANCH   2   6
ENDBRANCH   1   2
BRANCH   1  10
ATOM      9  C   UNL     1       2.387   6.857  19.627  0.00  0.00    +0.000 C 
ATOM     10  C   UNL     1       2.925   5.624  18.904  0.00  0.00    +0.000 C 
ATOM     11  C   UNL     1       1.920   5.141  17.855  0.00  0.00    +0.000 C 
ENDBRANCH   1  10
BRANCH   1  12
ATOM     12  N   UNL     1       4.870   4.063  19.316  0.00  0.00    +0.000 NA
ATOM     13  H   UNL     1       5.459   3.812  20.114  0.00  0.00    +0.000 HD
BRANCH  12  14
ATOM     14  C   UNL     1       5.584   5.112  18.569  0.00  0.00    +0.000 C 
BRANCH  14  15
ATOM     15  C   UNL     1       5.889   4.724  17.141  0.00  0.00    +0.000 A 
ATOM     16  C   UNL     1       4.987   3.932  16.409  0.00  0.00    +0.000 A 
ATOM     17  C   UNL     1       5.218   3.657  15.060  0.00  0.00    +0.000 A 
ATOM     18  C   UNL     1       6.349   4.175  14.425  0.00  0.00    +0.000 A 
ATOM     19  C   UNL     1       7.242   4.980  15.141  0.00  0.00    +0.000 A 
ATOM     20  C   UNL     1       7.010   5.254  16.490  0.00  0.00    +0.000 A 
BRANCH  18  21
ATOM     21  C   UNL     1       6.583   3.901  13.039  0.00  0.00    +0.000 C 
ATOM     22  N   UNL     1       6.782   3.680  11.915  0.00  0.00    +0.000 NA
ENDBRANCH  18  21
ENDBRANCH  14  15
ENDBRANCH  12  14
ENDBRANCH   1  12
TORSDOF 8
ENDMDL
MODEL 8
REMARK VINA RESULT:      -6.2      1.886      3.463
REMARK  Name = 
REMARK  10 active torsions:
REMARK  status: ('A' for Active; 'I' for Inactive)
REMARK    1  A    between atoms: C_1  and  C_2
REMARK    2  A    between atoms: C_2  and  C_3
REMARK    3  A    between atoms: C_2  and  C_4
REMARK    4  A    between atoms: C_4  and  N_5
REMARK    5  A    between atoms: C_4  and  C_15
REMARK    6  A    between atoms: N_5  and  C_6
REMARK    7  A    between atoms: C_6  and  C_7
REMARK    8  A    between atoms: C_10  and  C_11
REMARK    9  A    between atoms: C_15  and  C_16
REMARK   10  A    between atoms: C_16  and  O_17
REMARK                            x       y       z     vdW  Elec       q    Type
REMARK                         _______ _______ _______ _____ _____    ______ ____
ROOT
ATOM      1  C   UNL     1       4.820   4.942  18.421  0.00  0.00    +0.000 C 
ENDROOT
BRANCH   1   2
ATOM      2  C   UNL     1       6.139   5.398  17.698  0.00  0.00    +0.000 C 
ATOM      3  C   UNL     1       6.006   6.795  16.984  0.00  0.00    +0.000 C 
ATOM      4  C   UNL     1       7.344   7.226  17.604  0.00  0.00    +0.000 C 
ATOM      5  C   UNL     1       7.199   6.091  18.619  0.00  0.00    +0.000 C 
BRANCH   2   6
ATOM      6  C   UNL     1       6.803   4.364  16.769  0.00  0.00    +0.000 C 
BRANCH   6   7
ATOM      7  O   UNL     1       8.130   4.065  17.188  0.00  0.00    +0.000 OA
ATOM      8  H   UNL     1       8.732   4.495  16.544  0.00  0.00    +0.000 HD
ENDBRANCH   6   7
ENDBRANCH   2   6
ENDBRANCH   1   2
BRANCH   1  10
ATOM      9  C   UNL     1       3.127   3.340  17.222  0.00  0.00    +0.000 C 
ATOM     10  C   UNL     1       4.349   3.475  18.127  0.00  0.00    +0.000 C 
ATOM     11  C   UNL     1       4.207   2.567  19.352  0.00  0.00    +0.000 C 
ENDBRANCH   1  10
BRANCH   1  12
ATOM     12  N   UNL     1       3.728   5.925  18.156  0.00  0.00    +0.000 NA
ATOM     13  H   UNL     1       4.136   6.772  17.754  0.00  0.00    +0.000 HD
BRANCH  12  14
ATOM     14  C   UNL     1       3.008   6.332  19.375  0.00  0.00    +0.000 C 
BRANCH  14  15
ATOM     15  C   UNL     1       2.232   7.617  19.208  0.00  0.00    +0.000 A 
ATOM     16  C   UNL     1       1.489   8.146  20.278  0.00  0.00    +0.000 A 
ATOM     17  C   UNL     1       0.854   9.384  20.157  0.00  0.00    +0.000 A 
ATOM     18  C   UNL     1       0.958  10.109  18.969  0.00  0.00    +0.000 A 
ATOM     19  C   UNL     1       1.712   9.599  17.905  0.00  0.00    +0.000 A 
ATOM     20  C   UNL     1       2.346   8.361  18.028  0.00  0.00    +0.000 A 
BRANCH  18  21
ATOM     21  C   UNL     1       0.315  11.382  18.845  0.00  0.00    +0.000 C 
ATOM     22  N   UNL     1      -0.200  12.420  18.747  0.00  0.00    +0.000 NA
ENDBRANCH  18  21
ENDBRANCH  14  15
ENDBRANCH  12  14
ENDBRANCH   1  12
TORSDOF 8
ENDMDL
MODEL 9
REMARK VINA RESULT:      -6.2      0.885      1.410
REMARK  Name = 
REMARK  10 active torsions:
REMARK  status: ('A' for Active; 'I' for Inactive)
REMARK    1  A    between atoms: C_1  and  C_2
REMARK    2  A    between atoms: C_2  and  C_3
REMARK    3  A    between atoms: C_2  and  C_4
REMARK    4  A    between atoms: C_4  and  N_5
REMARK    5  A    between atoms: C_4  and  C_15
REMARK    6  A    between atoms: N_5  and  C_6
REMARK    7  A    between atoms: C_6  and  C_7
REMARK    8  A    between atoms: C_10  and  C_11
REMARK    9  A    between atoms: C_15  and  C_16
REMARK   10  A    between atoms: C_16  and  O_17
REMARK                            x       y       z     vdW  Elec       q    Type
REMARK                         _______ _______ _______ _____ _____    ______ ____
ROOT
ATOM      1  C   UNL     1       3.554   4.721  18.155  0.00  0.00    +0.000 C 
ENDROOT
BRANCH   1   2
ATOM      2  C   UNL     1       2.786   3.698  19.069  0.00  0.00    +0.000 C 
ATOM      3  C   UNL     1       2.581   4.213  20.543  0.00  0.00    +0.000 C 
ATOM      4  C   UNL     1       1.108   3.781  20.476  0.00  0.00    +0.000 C 
ATOM      5  C   UNL     1       1.225   3.742  18.952  0.00  0.00    +0.000 C 
BRANCH   2   6
ATOM      6  C   UNL     1       3.301   2.247  19.056  0.00  0.00    +0.000 C 
BRANCH   6   7
ATOM      7  O   UNL     1       2.534   1.429  18.181  0.00  0.00    +0.000 OA
ATOM      8  H   UNL     1       1.749   1.133  18.689  0.00  0.00    +0.000 HD
ENDBRANCH   6   7
ENDBRANCH   2   6
ENDBRANCH   1   2
BRANCH   1  10
ATOM      9  C   UNL     1       6.157   4.965  18.353  0.00  0.00    +0.000 C 
ATOM     10  C   UNL     1       4.978   4.273  17.672  0.00  0.00    +0.000 C 
ATOM     11  C   UNL     1       5.183   4.242  16.155  0.00  0.00    +0.000 C 
ENDBRANCH   1  10
BRANCH   1  12
ATOM     12  N   UNL     1       3.603   6.059  18.817  0.00  0.00    +0.000 NA
ATOM     13  H   UNL     1       3.192   5.980  19.751  0.00  0.00    +0.000 HD
BRANCH  12  14
ATOM     14  C   UNL     1       2.835   7.088  18.096  0.00  0.00    +0.000 C 
BRANCH  14  15
ATOM     15  C   UNL     1       2.085   8.025  19.013  0.00  0.00    +0.000 A 
ATOM     16  C   UNL     1       1.530   9.218  18.517  0.00  0.00    +0.000 A 
ATOM     17  C   UNL     1       0.751  10.033  19.340  0.00  0.00    +0.000 A 
ATOM     18  C   UNL     1       0.513   9.665  20.666  0.00  0.00    +0.000 A 
ATOM     19  C   UNL     1       1.046   8.469  21.163  0.00  0.00    +0.000 A 
ATOM     20  C   UNL     1       1.824   7.655  20.338  0.00  0.00    +0.000 A 
BRANCH  18  21
ATOM     21  C   UNL     1      -0.292  10.495  21.509  0.00  0.00    +0.000 C 
ATOM     22  N   UNL     1      -0.939  11.172  22.198  0.00  0.00    +0.000 NA
ENDBRANCH  18  21
ENDBRANCH  14  15
ENDBRANCH  12  14
ENDBRANCH   1  12
TORSDOF 8
ENDMDL
