MODEL 1
REMARK VINA RESULT:      -7.1      0.000      0.000
REMARK  Name = 
REMARK  4 active torsions:
REMARK  status: ('A' for Active; 'I' for Inactive)
REMARK    1  A    between atoms: C_8  and  N_9
REMARK    2  A    between atoms: N_9  and  C_10
REMARK    3  A    between atoms: C_10  and  C_11
REMARK    4  A    between atoms: C_11  and  O_12
REMARK                            x       y       z     vdW  Elec       q    Type
REMARK                         _______ _______ _______ _____ _____    ______ ____
ROOT
ATOM      1  N   UNL     1       1.976   6.417  20.835  0.00  0.00    +0.000 N 
ATOM      2  C   UNL     1       2.342   5.306  20.109  0.00  0.00    +0.000 A 
ATOM      3  N   UNL     1       1.390   4.417  19.853  0.00  0.00    +0.000 NA
ATOM      4  C   UNL     1       1.777   3.307  19.207  0.00  0.00    +0.000 A 
ATOM      5 CL   UNL     1       0.477   2.222  18.900  0.00  0.00    +0.000 Cl
ATOM      6  C   UNL     1       3.073   3.047  18.822  0.00  0.00    +0.000 A 
ATOM      7 CL   UNL     1       3.553   1.586  18.035  0.00  0.00    +0.000 Cl
ATOM      8  C   UNL     1       3.986   4.063  19.096  0.00  0.00    +0.000 A 
ATOM      9  N   UNL     1       3.621   5.198  19.719  0.00  0.00    +0.000 NA
ATOM     10  H   UNL     1       0.980   6.581  20.765  0.00  0.00    +0.000 HD
ATOM     11  H   UNL     1       2.598   7.192  20.673  0.00  0.00    +0.000 HD
ENDROOT
BRANCH   8  12
ATOM     12  N   UNL     1       5.325   3.861  18.736  0.00  0.00    +0.000 N 
ATOM     13  H   UNL     1       5.906   4.209  19.502  0.00  0.00    +0.000 HD
BRANCH  12  14
ATOM     14  C   UNL     1       5.834   4.272  17.426  0.00  0.00    +0.000 C 
BRANCH  14  15
ATOM     15  C   UNL     1       7.155   5.021  17.712  0.00  0.00    +0.000 C 
ATOM     16  C   UNL     1       7.161   5.632  19.149  0.00  0.00    +0.000 C 
ATOM     17  C   UNL     1       8.013   6.779  18.583  0.00  0.00    +0.000 C 
ATOM     18  C   UNL     1       7.376   6.477  17.206  0.00  0.00    +0.000 C 
BRANCH  15  19
ATOM     19  O   UNL     1       8.271   4.129  17.434  0.00  0.00    +0.000 OA
ATOM     20  H   UNL     1       7.842   3.307  17.124  0.00  0.00    +0.000 HD
ENDBRANCH  15  19
ENDBRANCH  14  15
ENDBRANCH  12  14
ENDBRANCH   8  12
TORSDOF 4
ENDMDL
MODEL 2
REMARK VINA RESULT:      -7.1      3.281      5.995
REMARK  Name = 
REMARK  4 active torsions:
REMARK  status: ('A' for Active; 'I' for Inactive)
REMARK    1  A    between atoms: C_8  and  N_9
REMARK    2  A    between atoms: N_9  and  C_10
REMARK    3  A    between atoms: C_10  and  C_11
REMARK    4  A    between atoms: C_11  and  O_12
REMARK                            x       y       z     vdW  Elec       q    Type
REMARK                         _______ _______ _______ _____ _____    ______ ____
ROOT
ATOM      1  N   UNL     1       7.195   4.991  13.800  0.00  0.00    +0.000 N 
ATOM      2  C   UNL     1       6.793   5.060  15.115  0.00  0.00    +0.000 A 
ATOM      3  N   UNL     1       7.388   5.970  15.876  0.00  0.00    +0.000 NA
ATOM      4  C   UNL     1       7.037   5.976  17.172  0.00  0.00    +0.000 A 
ATOM      5 CL   UNL     1       7.840   7.199  18.078  0.00  0.00    +0.000 Cl
ATOM      6  C   UNL     1       6.129   5.106  17.732  0.00  0.00    +0.000 A 
ATOM      7 CL   UNL     1       5.732   5.105  19.414  0.00  0.00    +0.000 Cl
ATOM      8  C   UNL     1       5.528   4.222  16.839  0.00  0.00    +0.000 A 
ATOM      9  N   UNL     1       5.841   4.211  15.531  0.00  0.00    +0.000 NA
ATOM     10  H   UNL     1       7.617   5.862  13.507  0.00  0.00    +0.000 HD
ATOM     11  H   UNL     1       6.485   4.585  13.212  0.00  0.00    +0.000 HD
ENDROOT
BRANCH   8  12
ATOM     12  N   UNL     1       4.599   3.304  17.345  0.00  0.00    +0.000 N 
ATOM     13  H   UNL     1       4.840   2.384  16.971  0.00  0.00    +0.000 HD
BRANCH  12  14
ATOM     14  C   UNL     1       3.159   3.563  17.288  0.00  0.00    +0.000 C 
BRANCH  14  15
ATOM     15  C   UNL     1       2.617   3.205  18.689  0.00  0.00    +0.000 C 
ATOM     16  C   UNL     1       1.180   2.599  18.605  0.00  0.00    +0.000 C 
ATOM     17  C   UNL     1       0.898   3.258  19.964  0.00  0.00    +0.000 C 
ATOM     18  C   UNL     1       1.990   4.295  19.608  0.00  0.00    +0.000 C 
BRANCH  15  19
ATOM     19  O   UNL     1       3.587   2.357  19.366  0.00  0.00    +0.000 OA
ATOM     20  H   UNL     1       3.072   1.941  20.086  0.00  0.00    +0.000 HD
ENDBRANCH  15  19
ENDBRANCH  14  15
ENDBRANCH  12  14
ENDBRANCH   8  12
TORSDOF 4
ENDMDL
MODEL 3
REMARK VINA RESULT:      -7.0      2.073      2.507
REMARK  Name = 
REMARK  4 active torsions:
REMARK  status: ('A' for Active; 'I' for Inactive)
REMARK    1  A    between atoms: C_8  and  N_9
REMARK    2  A    between atoms: N_9  and  C_10
REMARK    3  A    between atoms: C_10  and  C_11
REMARK    4  A    between atoms: C_11  and  O_12
REMARK                            x       y       z     vdW  Elec       q    Type
REMARK                         _______ _______ _______ _____ _____    ______ ____
ROOT
ATOM      1  N   UNL     1       5.230   1.540  20.609  0.00  0.00    +0.000 N 
ATOM      2  C   UNL     1       4.440   2.486  19.994  0.00  0.00    +0.000 A 
ATOM      3  N   UNL     1       3.208   2.635  20.464  0.00  0.00    +0.000 NA
ATOM      4  C   UNL     1       2.428   3.508  19.809  0.00  0.00    +0.000 A 
ATOM      5 CL   UNL     1       0.858   3.653  20.498  0.00  0.00    +0.000 Cl
ATOM      6  C   UNL     1       2.827   4.223  18.702  0.00  0.00    +0.000 A 
ATOM      7 CL   UNL     1       1.785   5.306  17.848  0.00  0.00    +0.000 Cl
ATOM      8  C   UNL     1       4.151   4.029  18.318  0.00  0.00    +0.000 A 
ATOM      9  N   UNL     1       4.964   3.179  18.972  0.00  0.00    +0.000 NA
ATOM     10  H   UNL     1       4.898   1.348  21.545  0.00  0.00    +0.000 HD
ATOM     11  H   UNL     1       6.211   1.731  20.482  0.00  0.00    +0.000 HD
ENDROOT
BRANCH   8  12
ATOM     12  N   UNL     1       4.620   4.721  17.193  0.00  0.00    +0.000 N 
ATOM     13  H   UNL     1       3.835   4.831  16.549  0.00  0.00    +0.000 HD
BRANCH  12  14
ATOM     14  C   UNL     1       5.847   4.316  16.504  0.00  0.00    +0.000 C 
BRANCH  14  15
ATOM     15  C   UNL     1       6.822   5.505  16.662  0.00  0.00    +0.000 C 
ATOM     16  C   UNL     1       7.643   5.393  17.986  0.00  0.00    +0.000 C 
ATOM     17  C   UNL     1       7.631   6.929  18.041  0.00  0.00    +0.000 C 
ATOM     18  C   UNL     1       6.328   6.878  17.207  0.00  0.00    +0.000 C 
BRANCH  15  19
ATOM     19  O   UNL     1       7.634   5.611  15.459  0.00  0.00    +0.000 OA
ATOM     20  H   UNL     1       8.087   6.472  15.558  0.00  0.00    +0.000 HD
ENDBRANCH  15  19
ENDBRANCH  14  15
ENDBRANCH  12  14
ENDBRANCH   8  12
TORSDOF 4
ENDMDL
MODEL 4
REMARK VINA RESULT:      -7.0      0.965      1.722
REMARK  Name = 
REMARK  4 active torsions:
REMARK  status: ('A' for Active; 'I' for Inactive)
REMARK    1  A    between atoms: C_8  and  N_9
REMARK    2  A    between atoms: N_9  and  C_10
REMARK    3  A    between atoms: C_10  and  C_11
REMARK    4  A    between atoms: C_11  and  O_12
REMARK                            x       y       z     vdW  Elec       q    Type
REMARK                         _______ _______ _______ _____ _____    ______ ____
ROOT
ATOM      1  N   UNL     1       2.037   6.447  20.720  0.00  0.00    +0.000 N 
ATOM      2  C   UNL     1       2.405   5.303  20.049  0.00  0.00    +0.000 A 
ATOM      3  N   UNL     1       1.445   4.424  19.791  0.00  0.00    +0.000 NA
ATOM      4  C   UNL     1       1.831   3.283  19.200  0.00  0.00    +0.000 A 
ATOM      5 CL   UNL     1       0.520   2.213  18.885  0.00  0.00    +0.000 Cl
ATOM      6  C   UNL     1       3.135   2.985  18.871  0.00  0.00    +0.000 A 
ATOM      7 CL   UNL     1       3.611   1.486  18.154  0.00  0.00    +0.000 Cl
ATOM      8  C   UNL     1       4.058   3.992  19.140  0.00  0.00    +0.000 A 
ATOM      9  N   UNL     1       3.694   5.157  19.708  0.00  0.00    +0.000 NA
ATOM     10  H   UNL     1       1.048   6.628  20.609  0.00  0.00    +0.000 HD
ATOM     11  H   UNL     1       2.680   7.204  20.552  0.00  0.00    +0.000 HD
ENDROOT
BRANCH   8  12
ATOM     12  N   UNL     1       5.404   3.751  18.836  0.00  0.00    +0.000 N 
ATOM     13  H   UNL     1       5.789   3.168  19.582  0.00  0.00    +0.000 HD
BRANCH  12  14
ATOM     14  C   UNL     1       6.310   4.840  18.463  0.00  0.00    +0.000 C 
BRANCH  14  15
ATOM     15  C   UNL     1       6.541   4.683  16.943  0.00  0.00    +0.000 C 
ATOM     16  C   UNL     1       5.962   5.898  16.152  0.00  0.00    +0.000 C 
ATOM     17  C   UNL     1       5.657   4.918  15.008  0.00  0.00    +0.000 C 
ATOM     18  C   UNL     1       5.595   3.801  16.076  0.00  0.00    +0.000 C 
BRANCH  15  19
ATOM     19  O   UNL     1       7.956   4.431  16.706  0.00  0.00    +0.000 OA
ATOM     20  H   UNL     1       8.331   5.324  16.568  0.00  0.00    +0.000 HD
ENDBRANCH  15  19
ENDBRANCH  14  15
ENDBRANCH  12  14
ENDBRANCH   8  12
TORSDOF 4
ENDMDL
MODEL 5
REMARK VINA RESULT:      -7.0      2.802      5.534
REMARK  Name = 
REMARK  4 active torsions:
REMARK  status: ('A' for Active; 'I' for Inactive)
REMARK    1  A    between atoms: C_8  and  N_9
REMARK    2  A    between atoms: N_9  and  C_10
REMARK    3  A    between atoms: C_10  and  C_11
REMARK    4  A    between atoms: C_11  and  O_12
REMARK                            x       y       z     vdW  Elec       q    Type
REMARK                         _______ _______ _______ _____ _____    ______ ____
ROOT
ATOM      1  N   UNL     1       8.437   6.424  19.381  0.00  0.00    +0.000 N 
ATOM      2  C   UNL     1       7.459   5.703  18.734  0.00  0.00    +0.000 A 
ATOM      3  N   UNL     1       7.621   5.508  17.431  0.00  0.00    +0.000 NA
ATOM      4  C   UNL     1       6.624   4.867  16.802  0.00  0.00    +0.000 A 
ATOM      5 CL   UNL     1       6.927   4.640  15.123  0.00  0.00    +0.000 Cl
ATOM      6  C   UNL     1       5.475   4.426  17.420  0.00  0.00    +0.000 A 
ATOM      7 CL   UNL     1       4.186   3.645  16.575  0.00  0.00    +0.000 Cl
ATOM      8  C   UNL     1       5.424   4.638  18.795  0.00  0.00    +0.000 A 
ATOM      9  N   UNL     1       6.421   5.256  19.457  0.00  0.00    +0.000 NA
ATOM     10  H   UNL     1       9.306   6.397  18.863  0.00  0.00    +0.000 HD
ATOM     11  H   UNL     1       8.465   6.219  20.366  0.00  0.00    +0.000 HD
ENDROOT
BRANCH   8  12
ATOM     12  N   UNL     1       4.279   4.221  19.485  0.00  0.00    +0.000 N 
ATOM     13  H   UNL     1       4.161   4.839  20.290  0.00  0.00    +0.000 HD
BRANCH  12  14
ATOM     14  C   UNL     1       4.068   2.814  19.835  0.00  0.00    +0.000 C 
BRANCH  14  15
ATOM     15  C   UNL     1       2.544   2.584  19.725  0.00  0.00    +0.000 C 
ATOM     16  C   UNL     1       1.797   3.905  19.357  0.00  0.00    +0.000 C 
ATOM     17  C   UNL     1       0.618   3.389  20.197  0.00  0.00    +0.000 C 
ATOM     18  C   UNL     1       1.645   2.553  20.996  0.00  0.00    +0.000 C 
BRANCH  15  19
ATOM     19  O   UNL     1       2.300   1.481  18.807  0.00  0.00    +0.000 OA
ATOM     20  H   UNL     1       2.065   1.923  17.967  0.00  0.00    +0.000 HD
ENDBRANCH  15  19
ENDBRANCH  14  15
ENDBRANCH  12  14
ENDBRANCH   8  12
TORSDOF 4
ENDMDL
MODEL 6
REMARK VINA RESULT:      -6.9      2.148      3.115
REMARK  Name = 
REMARK  4 active torsions:
REMARK  status: ('A' for Active; 'I' for Inactive)
REMARK    1  A    between atoms: C_8  and  N_9
REMARK    2  A    between atoms: N_9  and  C_10
REMARK    3  A    between atoms: C_10  and  C_11
REMARK    4  A    between atoms: C_11  and  O_12
REMARK                            x       y       z     vdW  Elec       q    Type
REMARK                         _______ _______ _______ _____ _____    ______ ____
ROOT
ATOM      1  N   UNL     1       5.214   1.533  20.440  0.00  0.00    +0.000 N 
ATOM      2  C   UNL     1       4.516   2.631  19.990  0.00  0.00    +0.000 A 
ATOM      3  N   UNL     1       3.202   2.624  20.180  0.00  0.00    +0.000 NA
ATOM      4  C   UNL     1       2.527   3.667  19.672  0.00  0.00    +0.000 A 
ATOM      5 CL   UNL     1       0.836   3.585  19.981  0.00  0.00    +0.000 Cl
ATOM      6  C   UNL     1       3.111   4.703  18.978  0.00  0.00    +0.000 A 
ATOM      7 CL   UNL     1       2.210   6.009  18.294  0.00  0.00    +0.000 Cl
ATOM      8  C   UNL     1       4.498   4.639  18.876  0.00  0.00    +0.000 A 
ATOM      9  N   UNL     1       5.203   3.618  19.397  0.00  0.00    +0.000 NA
ATOM     10  H   UNL     1       4.696   1.046  21.160  0.00  0.00    +0.000 HD
ATOM     11  H   UNL     1       6.182   1.750  20.616  0.00  0.00    +0.000 HD
ENDROOT
BRANCH   8  12
ATOM     12  N   UNL     1       5.155   5.659  18.175  0.00  0.00    +0.000 N 
ATOM     13  H   UNL     1       4.569   5.912  17.377  0.00  0.00    +0.000 HD
BRANCH  12  14
ATOM     14  C   UNL     1       6.568   5.545  17.808  0.00  0.00    +0.000 C 
BRANCH  14  15
ATOM     15  C   UNL     1       6.584   5.373  16.273  0.00  0.00    +0.000 C 
ATOM     16  C   UNL     1       5.215   5.780  15.642  0.00  0.00    +0.000 C 
ATOM     17  C   UNL     1       5.462   4.698  14.579  0.00  0.00    +0.000 C 
ATOM     18  C   UNL     1       6.350   3.978  15.621  0.00  0.00    +0.000 C 
BRANCH  15  19
ATOM     19  O   UNL     1       7.731   6.087  15.731  0.00  0.00    +0.000 OA
ATOM     20  H   UNL     1       7.696   6.957  16.176  0.00  0.00    +0.000 HD
ENDBRANCH  15  19
ENDBRANCH  14  15
ENDBRANCH  12  14
ENDBRANCH   8  12
TORSDOF 4
ENDMDL
MODEL 7
REMARK VINA RESULT:      -6.8      2.942      5.557
REMARK  Name = 
REMARK  4 active torsions:
REMARK  status: ('A' for Active; 'I' for Inactive)
REMARK    1  A    between atoms: C_8  and  N_9
REMARK    2  A    between atoms: N_9  and  C_10
REMARK    3  A    between atoms: C_10  and  C_11
REMARK    4  A    between atoms: C_11  and  O_12
REMARK                            x       y       z     vdW  Elec       q    Type
REMARK                         _______ _______ _______ _____ _____    ______ ____
ROOT
ATOM      1  N   UNL     1       8.267   5.628  19.849  0.00  0.00    +0.000 N 
ATOM      2  C   UNL     1       7.388   5.139  18.909  0.00  0.00    +0.000 A 
ATOM      3  N   UNL     1       7.723   5.300  17.635  0.00  0.00    +0.000 NA
ATOM      4  C   UNL     1       6.823   4.883  16.731  0.00  0.00    +0.000 A 
ATOM      5 CL   UNL     1       7.348   5.112  15.107  0.00  0.00    +0.000 Cl
ATOM      6  C   UNL     1       5.606   4.325  17.050  0.00  0.00    +0.000 A 
ATOM      7 CL   UNL     1       4.445   3.841  15.865  0.00  0.00    +0.000 Cl
ATOM      8  C   UNL     1       5.372   4.157  18.413  0.00  0.00    +0.000 A 
ATOM      9  N   UNL     1       6.267   4.543  19.341  0.00  0.00    +0.000 NA
ATOM     10  H   UNL     1       9.197   5.718  19.460  0.00  0.00    +0.000 HD
ATOM     11  H   UNL     1       8.165   5.163  20.736  0.00  0.00    +0.000 HD
ENDROOT
BRANCH   8  12
ATOM     12  N   UNL     1       4.148   3.602  18.808  0.00  0.00    +0.000 N 
ATOM     13  H   UNL     1       3.464   4.360  18.850  0.00  0.00    +0.000 HD
BRANCH  12  14
ATOM     14  C   UNL     1       4.053   2.708  19.965  0.00  0.00    +0.000 C 
BRANCH  14  15
ATOM     15  C   UNL     1       2.755   3.116  20.697  0.00  0.00    +0.000 C 
ATOM     16  C   UNL     1       1.495   2.824  19.823  0.00  0.00    +0.000 C 
ATOM     17  C   UNL     1       0.844   4.055  20.473  0.00  0.00    +0.000 C 
ATOM     18  C   UNL     1       2.274   4.597  20.709  0.00  0.00    +0.000 C 
BRANCH  15  19
ATOM     19  O   UNL     1       2.736   2.484  22.008  0.00  0.00    +0.000 OA
ATOM     20  H   UNL     1       2.130   1.725  21.893  0.00  0.00    +0.000 HD
ENDBRANCH  15  19
ENDBRANCH  14  15
ENDBRANCH  12  14
ENDBRANCH   8  12
TORSDOF 4
ENDMDL
MODEL 8
REMARK VINA RESULT:      -6.8      2.951      5.599
REMARK  Name = 
REMARK  4 active torsions:
REMARK  status: ('A' for Active; 'I' for Inactive)
REMARK    1  A    between atoms: C_8  and  N_9
REMARK    2  A    between atoms: N_9  and  C_10
REMARK    3  A    between atoms: C_10  and  C_11
REMARK    4  A    between atoms: C_11  and  O_12
REMARK                            x       y       z     vdW  Elec       q    Type
REMARK                         _______ _______ _______ _____ _____    ______ ____
ROOT
ATOM      1  N   UNL     1       8.299   5.668  19.797  0.00  0.00    +0.000 N 
ATOM      2  C   UNL     1       7.389   5.182  18.885  0.00  0.00    +0.000 A 
ATOM      3  N   UNL     1       7.728   5.252  17.604  0.00  0.00    +0.000 NA
ATOM      4  C   UNL     1       6.802   4.840  16.725  0.00  0.00    +0.000 A 
ATOM      5 CL   UNL     1       7.334   4.947  15.091  0.00  0.00    +0.000 Cl
ATOM      6  C   UNL     1       5.554   4.376  17.075  0.00  0.00    +0.000 A 
ATOM      7 CL   UNL     1       4.363   3.898  15.918  0.00  0.00    +0.000 Cl
ATOM      8  C   UNL     1       5.315   4.298  18.444  0.00  0.00    +0.000 A 
ATOM      9  N   UNL     1       6.235   4.680  19.350  0.00  0.00    +0.000 NA
ATOM     10  H   UNL     1       9.231   5.680  19.404  0.00  0.00    +0.000 HD
ATOM     11  H   UNL     1       8.172   5.259  20.708  0.00  0.00    +0.000 HD
ENDROOT
BRANCH   8  12
ATOM     12  N   UNL     1       4.061   3.840  18.870  0.00  0.00    +0.000 N 
ATOM     13  H   UNL     1       3.819   3.029  18.297  0.00  0.00    +0.000 HD
BRANCH  12  14
ATOM     14  C   UNL     1       2.930   4.755  19.038  0.00  0.00    +0.000 C 
BRANCH  14  15
ATOM     15  C   UNL     1       2.263   4.349  20.370  0.00  0.00    +0.000 C 
ATOM     16  C   UNL     1       2.812   2.981  20.885  0.00  0.00    +0.000 C 
ATOM     17  C   UNL     1       1.417   2.722  21.475  0.00  0.00    +0.000 C 
ATOM     18  C   UNL     1       0.860   3.673  20.390  0.00  0.00    +0.000 C 
BRANCH  15  19
ATOM     19  O   UNL     1       2.397   5.445  21.318  0.00  0.00    +0.000 OA
ATOM     20  H   UNL     1       3.208   5.909  21.025  0.00  0.00    +0.000 HD
ENDBRANCH  15  19
ENDBRANCH  14  15
ENDBRANCH  12  14
ENDBRANCH   8  12
TORSDOF 4
ENDMDL
MODEL 9
REMARK VINA RESULT:      -6.8      3.439      5.984
REMARK  Name = 
REMARK  4 active torsions:
REMARK  status: ('A' for Active; 'I' for Inactive)
REMARK    1  A    between atoms: C_8  and  N_9
REMARK    2  A    between atoms: N_9  and  C_10
REMARK    3  A    between atoms: C_10  and  C_11
REMARK    4  A    between atoms: C_11  and  O_12
REMARK                            x       y       z     vdW  Elec       q    Type
REMARK                         _______ _______ _______ _____ _____    ______ ____
ROOT
ATOM      1  N   UNL     1       6.994   4.770  13.947  0.00  0.00    +0.000 N 
ATOM      2  C   UNL     1       6.495   4.976  15.213  0.00  0.00    +0.000 A 
ATOM      3  N   UNL     1       7.257   5.669  16.051  0.00  0.00    +0.000 NA
ATOM      4  C   UNL     1       6.789   5.800  17.302  0.00  0.00    +0.000 A 
ATOM      5 CL   UNL     1       7.829   6.728  18.313  0.00  0.00    +0.000 Cl
ATOM      6  C   UNL     1       5.603   5.260  17.746  0.00  0.00    +0.000 A 
ATOM      7 CL   UNL     1       5.048   5.404  19.376  0.00  0.00    +0.000 Cl
ATOM      8  C   UNL     1       4.858   4.593  16.777  0.00  0.00    +0.000 A 
ATOM      9  N   UNL     1       5.290   4.468  15.509  0.00  0.00    +0.000 NA
ATOM     10  H   UNL     1       7.693   5.464  13.717  0.00  0.00    +0.000 HD
ATOM     11  H   UNL     1       6.261   4.594  13.279  0.00  0.00    +0.000 HD
ENDROOT
BRANCH   8  12
ATOM     12  N   UNL     1       3.642   4.012  17.163  0.00  0.00    +0.000 N 
ATOM     13  H   UNL     1       3.085   4.738  17.619  0.00  0.00    +0.000 HD
BRANCH  12  14
ATOM     14  C   UNL     1       3.600   2.744  17.894  0.00  0.00    +0.000 C 
BRANCH  14  15
ATOM     15  C   UNL     1       2.258   2.752  18.660  0.00  0.00    +0.000 C 
ATOM     16  C   UNL     1       1.664   4.193  18.748  0.00  0.00    +0.000 C 
ATOM     17  C   UNL     1       1.083   3.795  20.113  0.00  0.00    +0.000 C 
ATOM     18  C   UNL     1       2.225   2.756  20.217  0.00  0.00    +0.000 C 
BRANCH  15  19
ATOM     19  O   UNL     1       1.367   1.771  18.058  0.00  0.00    +0.000 OA
ATOM     20  H   UNL     1       1.457   0.988  18.638  0.00  0.00    +0.000 HD
ENDBRANCH  15  19
ENDBRANCH  14  15
ENDBRANCH  12  14
ENDBRANCH   8  12
TORSDOF 4
ENDMDL
