MODEL 1
REMARK VINA RESULT:      -6.8      0.000      0.000
REMARK  Name = 
REMARK  8 active torsions:
REMARK  status: ('A' for Active; 'I' for Inactive)
REMARK    1  A    between atoms: C_1  and  C_2
REMARK    2  A    between atoms: C_2  and  N_3
REMARK    3  A    between atoms: C_6  and  C_7
REMARK    4  A    between atoms: N_8  and  N_9
REMARK    5  A    between atoms: C_10  and  C_12
REMARK    6  A    between atoms: C_12  and  C_13
REMARK    7  A    between atoms: C_16  and  N_17
REMARK    8  A    between atoms: C_22  and  C_23
REMARK                            x       y       z     vdW  Elec       q    Type
REMARK                         _______ _______ _______ _____ _____    ______ ____
ROOT
ATOM      1  N   UNL     1       6.785   6.206  17.842  0.00  0.00    +0.000 N 
ATOM      2  C   UNL     1       7.417   5.406  16.900  0.00  0.00    +0.000 C 
ATOM      3  O   UNL     1       8.028   4.368  17.149  0.00  0.00    +0.000 OA
ATOM      4  H   UNL     1       6.162   6.954  17.555  0.00  0.00    +0.000 HD
ENDROOT
BRANCH   1   6
ATOM      5  C   UNL     1       5.860   5.052  19.614  0.00  0.00    +0.000 C 
ATOM      6  N   UNL     1       6.792   5.827  19.148  0.00  0.00    +0.000 NA
BRANCH   5  10
ATOM      7  N   UNL     1       2.922   3.431  18.272  0.00  0.00    +0.000 N 
ATOM      8  N   UNL     1       2.760   4.614  17.651  0.00  0.00    +0.000 NA
ATOM      9  C   UNL     1       3.784   5.346  18.085  0.00  0.00    +0.000 A 
ATOM     10  C   UNL     1       4.650   4.630  18.940  0.00  0.00    +0.000 A 
ATOM     11  C   UNL     1       4.026   3.398  19.092  0.00  0.00    +0.000 A 
ATOM     12  C   UNL     1       4.379   2.213  19.917  0.00  0.00    +0.000 C 
BRANCH   7  14
ATOM     13  C   UNL     1       0.745   2.464  18.876  0.00  0.00    +0.000 C 
ATOM     14  C   UNL     1       1.978   2.360  17.999  0.00  0.00    +0.000 C 
ENDBRANCH   7  14
ENDBRANCH   5  10
ENDBRANCH   1   6
BRANCH   2  15
ATOM     15  C   UNL     1       7.349   5.967  15.493  0.00  0.00    +0.000 C 
BRANCH  15  16
ATOM     16  C   UNL     1       6.797   5.003  14.470  0.00  0.00    +0.000 A 
ATOM     17  C   UNL     1       5.569   4.364  14.693  0.00  0.00    +0.000 A 
ATOM     18  C   UNL     1       5.013   3.532  13.715  0.00  0.00    +0.000 A 
ATOM     19  C   UNL     1       5.690   3.347  12.501  0.00  0.00    +0.000 A 
ATOM     20  C   UNL     1       6.926   3.962  12.273  0.00  0.00    +0.000 A 
ATOM     21  C   UNL     1       7.473   4.789  13.259  0.00  0.00    +0.000 A 
BRANCH  19  22
ATOM     22  N   UNL     1       5.088   2.509  11.456  0.00  0.00    +0.000 N 
ATOM     23  O   UNL     1       5.675   1.459  11.152  0.00  0.00    +0.000 OA
ATOM     24  O   UNL     1       4.028   2.893  10.945  0.00  0.00    +0.000 OA
ENDBRANCH  19  22
ENDBRANCH  15  16
ENDBRANCH   2  15
TORSDOF 6
ENDMDL
MODEL 2
REMARK VINA RESULT:      -6.7      4.440      7.880
REMARK  Name = 
REMARK  8 active torsions:
REMARK  status: ('A' for Active; 'I' for Inactive)
REMARK    1  A    between atoms: C_1  and  C_2
REMARK    2  A    between atoms: C_2  and  N_3
REMARK    3  A    between atoms: C_6  and  C_7
REMARK    4  A    between atoms: N_8  and  N_9
REMARK    5  A    between atoms: C_10  and  C_12
REMARK    6  A    between atoms: C_12  and  C_13
REMARK    7  A    between atoms: C_16  and  N_17
REMARK    8  A    between atoms: C_22  and  C_23
REMARK                            x       y       z     vdW  Elec       q    Type
REMARK                         _______ _______ _______ _____ _____    ______ ____
ROOT
ATOM      1  N   UNL     1       5.224   6.670  17.278  0.00  0.00    +0.000 N 
ATOM      2  C   UNL     1       4.452   6.090  18.276  0.00  0.00    +0.000 C 
ATOM      3  O   UNL     1       4.894   5.469  19.241  0.00  0.00    +0.000 OA
ATOM      4  H   UNL     1       4.810   7.305  16.604  0.00  0.00    +0.000 HD
ENDROOT
BRANCH   1   6
ATOM      5  C   UNL     1       7.252   5.877  16.509  0.00  0.00    +0.000 C 
ATOM      6  N   UNL     1       6.580   6.594  17.358  0.00  0.00    +0.000 NA
BRANCH   5  10
ATOM      7  N   UNL     1       6.364   3.888  13.625  0.00  0.00    +0.000 N 
ATOM      8  N   UNL     1       5.543   3.285  14.504  0.00  0.00    +0.000 NA
ATOM      9  C   UNL     1       5.789   3.912  15.653  0.00  0.00    +0.000 A 
ATOM     10  C   UNL     1       6.721   4.964  15.519  0.00  0.00    +0.000 A 
ATOM     11  C   UNL     1       7.125   4.883  14.192  0.00  0.00    +0.000 A 
ATOM     12  C   UNL     1       8.139   5.656  13.426  0.00  0.00    +0.000 C 
BRANCH   7  14
ATOM     13  C   UNL     1       4.923   3.163  11.771  0.00  0.00    +0.000 C 
ATOM     14  C   UNL     1       6.336   3.466  12.235  0.00  0.00    +0.000 C 
ENDBRANCH   7  14
ENDBRANCH   5  10
ENDBRANCH   1   6
BRANCH   2  15
ATOM     15  C   UNL     1       2.961   6.231  18.041  0.00  0.00    +0.000 C 
BRANCH  15  16
ATOM     16  C   UNL     1       2.344   7.441  18.700  0.00  0.00    +0.000 A 
ATOM     17  C   UNL     1       2.068   8.592  17.947  0.00  0.00    +0.000 A 
ATOM     18  C   UNL     1       1.424   9.687  18.533  0.00  0.00    +0.000 A 
ATOM     19  C   UNL     1       1.045   9.623  19.882  0.00  0.00    +0.000 A 
ATOM     20  C   UNL     1       1.332   8.490  20.650  0.00  0.00    +0.000 A 
ATOM     21  C   UNL     1       1.979   7.403  20.055  0.00  0.00    +0.000 A 
BRANCH  19  22
ATOM     22  N   UNL     1       0.330  10.754  20.488  0.00  0.00    +0.000 N 
ATOM     23  O   UNL     1       0.983  11.534  21.197  0.00  0.00    +0.000 OA
ATOM     24  O   UNL     1      -0.880  10.868  20.250  0.00  0.00    +0.000 OA
ENDBRANCH  19  22
ENDBRANCH  15  16
ENDBRANCH   2  15
TORSDOF 6
ENDMDL
MODEL 3
REMARK VINA RESULT:      -6.7      5.349      8.488
REMARK  Name = 
REMARK  8 active torsions:
REMARK  status: ('A' for Active; 'I' for Inactive)
REMARK    1  A    between atoms: C_1  and  C_2
REMARK    2  A    between atoms: C_2  and  N_3
REMARK    3  A    between atoms: C_6  and  C_7
REMARK    4  A    between atoms: N_8  and  N_9
REMARK    5  A    between atoms: C_10  and  C_12
REMARK    6  A    between atoms: C_12  and  C_13
REMARK    7  A    between atoms: C_16  and  N_17
REMARK    8  A    between atoms: C_22  and  C_23
REMARK                            x       y       z     vdW  Elec       q    Type
REMARK                         _______ _______ _______ _____ _____    ______ ____
ROOT
ATOM      1  N   UNL     1       3.807   5.947  19.531  0.00  0.00    +0.000 N 
ATOM      2  C   UNL     1       2.588   6.154  18.900  0.00  0.00    +0.000 C 
ATOM      3  O   UNL     1       1.753   5.281  18.669  0.00  0.00    +0.000 OA
ATOM      4  H   UNL     1       4.373   6.730  19.839  0.00  0.00    +0.000 HD
ENDROOT
BRANCH   1   6
ATOM      5  C   UNL     1       4.776   3.876  19.205  0.00  0.00    +0.000 C 
ATOM      6  N   UNL     1       4.124   4.699  19.970  0.00  0.00    +0.000 NA
BRANCH   5  10
ATOM      7  N   UNL     1       6.194   4.478  15.936  0.00  0.00    +0.000 N 
ATOM      8  N   UNL     1       4.979   4.077  15.520  0.00  0.00    +0.000 NA
ATOM      9  C   UNL     1       4.335   3.785  16.649  0.00  0.00    +0.000 A 
ATOM     10  C   UNL     1       5.101   4.051  17.805  0.00  0.00    +0.000 A 
ATOM     11  C   UNL     1       6.335   4.446  17.303  0.00  0.00    +0.000 A 
ATOM     12  C   UNL     1       7.607   4.799  17.989  0.00  0.00    +0.000 C 
BRANCH   7  14
ATOM     13  C   UNL     1       6.767   4.482  13.546  0.00  0.00    +0.000 C 
ATOM     14  C   UNL     1       7.166   4.911  14.946  0.00  0.00    +0.000 C 
ENDBRANCH   7  14
ENDBRANCH   5  10
ENDBRANCH   1   6
BRANCH   2  15
ATOM     15  C   UNL     1       2.384   7.585  18.444  0.00  0.00    +0.000 C 
BRANCH  15  16
ATOM     16  C   UNL     1       1.667   8.457  19.447  0.00  0.00    +0.000 A 
ATOM     17  C   UNL     1       1.044   9.644  19.033  0.00  0.00    +0.000 A 
ATOM     18  C   UNL     1       0.311  10.415  19.941  0.00  0.00    +0.000 A 
ATOM     19  C   UNL     1       0.194   9.989  21.272  0.00  0.00    +0.000 A 
ATOM     20  C   UNL     1       0.827   8.818  21.703  0.00  0.00    +0.000 A 
ATOM     21  C   UNL     1       1.559   8.057  20.788  0.00  0.00    +0.000 A 
BRANCH  19  22
ATOM     22  N   UNL     1      -0.611  10.773  22.217  0.00  0.00    +0.000 N 
ATOM     23  O   UNL     1      -0.584  10.439  23.411  0.00  0.00    +0.000 OA
ATOM     24  O   UNL     1      -1.263  11.727  21.769  0.00  0.00    +0.000 OA
ENDBRANCH  19  22
ENDBRANCH  15  16
ENDBRANCH   2  15
TORSDOF 6
ENDMDL
MODEL 4
REMARK VINA RESULT:      -6.6      4.023      7.659
REMARK  Name = 
REMARK  8 active torsions:
REMARK  status: ('A' for Active; 'I' for Inactive)
REMARK    1  A    between atoms: C_1  and  C_2
REMARK    2  A    between atoms: C_2  and  N_3
REMARK    3  A    between atoms: C_6  and  C_7
REMARK    4  A    between atoms: N_8  and  N_9
REMARK    5  A    between atoms: C_10  and  C_12
REMARK    6  A    between atoms: C_12  and  C_13
REMARK    7  A    between atoms: C_16  and  N_17
REMARK    8  A    between atoms: C_22  and  C_23
REMARK                            x       y       z     vdW  Elec       q    Type
REMARK                         _______ _______ _______ _____ _____    ______ ____
ROOT
ATOM      1  N   UNL     1       4.175   3.517  17.912  0.00  0.00    +0.000 N 
ATOM      2  C   UNL     1       2.802   3.674  18.045  0.00  0.00    +0.000 C 
ATOM      3  O   UNL     1       1.985   3.551  17.135  0.00  0.00    +0.000 OA
ATOM      4  H   UNL     1       4.775   3.468  18.729  0.00  0.00    +0.000 HD
ENDROOT
BRANCH   1   6
ATOM      5  C   UNL     1       5.775   3.730  16.261  0.00  0.00    +0.000 C 
ATOM      6  N   UNL     1       4.690   3.169  16.702  0.00  0.00    +0.000 NA
BRANCH   5  10
ATOM      7  N   UNL     1       7.062   6.910  17.396  0.00  0.00    +0.000 N 
ATOM      8  N   UNL     1       7.945   6.130  18.047  0.00  0.00    +0.000 NA
ATOM      9  C   UNL     1       7.565   4.891  17.738  0.00  0.00    +0.000 A 
ATOM     10  C   UNL     1       6.478   4.856  16.838  0.00  0.00    +0.000 A 
ATOM     11  C   UNL     1       6.132   6.193  16.681  0.00  0.00    +0.000 A 
ATOM     12  C   UNL     1       5.029   6.839  15.921  0.00  0.00    +0.000 C 
BRANCH   7  14
ATOM     13  C   UNL     1       8.480   8.748  18.203  0.00  0.00    +0.000 C 
ATOM     14  C   UNL     1       7.202   8.354  17.487  0.00  0.00    +0.000 C 
ENDBRANCH   7  14
ENDBRANCH   5  10
ENDBRANCH   1   6
BRANCH   2  15
ATOM     15  C   UNL     1       2.378   4.087  19.441  0.00  0.00    +0.000 C 
BRANCH  15  16
ATOM     16  C   UNL     1       2.151   5.570  19.604  0.00  0.00    +0.000 A 
ATOM     17  C   UNL     1       2.489   6.455  18.569  0.00  0.00    +0.000 A 
ATOM     18  C   UNL     1       2.208   7.820  18.681  0.00  0.00    +0.000 A 
ATOM     19  C   UNL     1       1.575   8.302  19.836  0.00  0.00    +0.000 A 
ATOM     20  C   UNL     1       1.250   7.435  20.884  0.00  0.00    +0.000 A 
ATOM     21  C   UNL     1       1.538   6.072  20.763  0.00  0.00    +0.000 A 
BRANCH  19  22
ATOM     22  N   UNL     1       1.239   9.728  19.938  0.00  0.00    +0.000 N 
ATOM     23  O   UNL     1       1.124  10.212  21.074  0.00  0.00    +0.000 OA
ATOM     24  O   UNL     1       1.100  10.367  18.886  0.00  0.00    +0.000 OA
ENDBRANCH  19  22
ENDBRANCH  15  16
ENDBRANCH   2  15
TORSDOF 6
ENDMDL
MODEL 5
REMARK VINA RESULT:      -6.6      3.841      7.466
REMARK  Name = 
REMARK  8 active torsions:
REMARK  status: ('A' for Active; 'I' for Inactive)
REMARK    1  A    between atoms: C_1  and  C_2
REMARK    2  A    between atoms: C_2  and  N_3
REMARK    3  A    between atoms: C_6  and  C_7
REMARK    4  A    between atoms: N_8  and  N_9
REMARK    5  A    between atoms: C_10  and  C_12
REMARK    6  A    between atoms: C_12  and  C_13
REMARK    7  A    between atoms: C_16  and  N_17
REMARK    8  A    between atoms: C_22  and  C_23
REMARK                            x       y       z     vdW  Elec       q    Type
REMARK                         _______ _______ _______ _____ _____    ______ ____
ROOT
ATOM      1  N   UNL     1       4.452   3.288  17.607  0.00  0.00    +0.000 N 
ATOM      2  C   UNL     1       3.087   3.230  17.854  0.00  0.00    +0.000 C 
ATOM      3  O   UNL     1       2.222   3.023  17.004  0.00  0.00    +0.000 OA
ATOM      4  H   UNL     1       5.119   3.296  18.371  0.00  0.00    +0.000 HD
ENDROOT
BRANCH   1   6
ATOM      5  C   UNL     1       5.732   3.911  15.788  0.00  0.00    +0.000 C 
ATOM      6  N   UNL     1       4.908   3.073  16.343  0.00  0.00    +0.000 NA
BRANCH   5  10
ATOM      7  N   UNL     1       7.194   6.792  17.407  0.00  0.00    +0.000 N 
ATOM      8  N   UNL     1       6.332   7.461  16.620  0.00  0.00    +0.000 NA
ATOM      9  C   UNL     1       5.724   6.502  15.922  0.00  0.00    +0.000 A 
ATOM     10  C   UNL     1       6.140   5.205  16.293  0.00  0.00    +0.000 A 
ATOM     11  C   UNL     1       7.147   5.430  17.223  0.00  0.00    +0.000 A 
ATOM     12  C   UNL     1       8.043   4.489  17.948  0.00  0.00    +0.000 C 
BRANCH   7  14
ATOM     13  C   UNL     1       8.181   8.985  17.908  0.00  0.00    +0.000 C 
ATOM     14  C   UNL     1       8.017   7.541  18.342  0.00  0.00    +0.000 C 
ENDBRANCH   7  14
ENDBRANCH   5  10
ENDBRANCH   1   6
BRANCH   2  15
ATOM     15  C   UNL     1       2.726   3.514  19.298  0.00  0.00    +0.000 C 
BRANCH  15  16
ATOM     16  C   UNL     1       2.311   4.942  19.561  0.00  0.00    +0.000 A 
ATOM     17  C   UNL     1       1.629   5.274  20.742  0.00  0.00    +0.000 A 
ATOM     18  C   UNL     1       1.313   6.605  21.029  0.00  0.00    +0.000 A 
ATOM     19  C   UNL     1       1.691   7.614  20.130  0.00  0.00    +0.000 A 
ATOM     20  C   UNL     1       2.353   7.296  18.940  0.00  0.00    +0.000 A 
ATOM     21  C   UNL     1       2.662   5.961  18.662  0.00  0.00    +0.000 A 
BRANCH  19  22
ATOM     22  N   UNL     1       1.398   9.017  20.450  0.00  0.00    +0.000 N 
ATOM     23  O   UNL     1       1.195   9.792  19.504  0.00  0.00    +0.000 OA
ATOM     24  O   UNL     1       1.362   9.343  21.644  0.00  0.00    +0.000 OA
ENDBRANCH  19  22
ENDBRANCH  15  16
ENDBRANCH   2  15
TORSDOF 6
ENDMDL
MODEL 6
REMARK VINA RESULT:      -6.6      4.996      6.965
REMARK  Name = 
REMARK  8 active torsions:
REMARK  status: ('A' for Active; 'I' for Inactive)
REMARK    1  A    between atoms: C_1  and  C_2
REMARK    2  A    between atoms: C_2  and  N_3
REMARK    3  A    between atoms: C_6  and  C_7
REMARK    4  A    between atoms: N_8  and  N_9
REMARK    5  A    between atoms: C_10  and  C_12
REMARK    6  A    between atoms: C_12  and  C_13
REMARK    7  A    between atoms: C_16  and  N_17
REMARK    8  A    between atoms: C_22  and  C_23
REMARK                            x       y       z     vdW  Elec       q    Type
REMARK                         _______ _______ _______ _____ _____    ______ ____
ROOT
ATOM      1  N   UNL     1       1.762   6.877  20.316  0.00  0.00    +0.000 N 
ATOM      2  C   UNL     1       2.004   5.510  20.351  0.00  0.00    +0.000 C 
ATOM      3  O   UNL     1       2.202   4.852  21.371  0.00  0.00    +0.000 OA
ATOM      4  H   UNL     1       1.444   7.328  19.465  0.00  0.00    +0.000 HD
ENDROOT
BRANCH   1   6
ATOM      5  C   UNL     1       1.153   8.748  21.525  0.00  0.00    +0.000 C 
ATOM      6  N   UNL     1       1.699   7.570  21.485  0.00  0.00    +0.000 NA
BRANCH   5  10
ATOM      7  N   UNL     1      -0.292  11.089  19.182  0.00  0.00    +0.000 N 
ATOM      8  N   UNL     1       0.462  10.411  18.297  0.00  0.00    +0.000 NA
ATOM      9  C   UNL     1       1.094   9.506  19.044  0.00  0.00    +0.000 A 
ATOM     10  C   UNL     1       0.711   9.548  20.402  0.00  0.00    +0.000 A 
ATOM     11  C   UNL     1      -0.152  10.635  20.472  0.00  0.00    +0.000 A 
ATOM     12  C   UNL     1      -0.849  11.263  21.626  0.00  0.00    +0.000 C 
BRANCH   7  14
ATOM     13  C   UNL     1      -0.367  13.412  18.383  0.00  0.00    +0.000 C 
ATOM     14  C   UNL     1      -1.155  12.154  18.697  0.00  0.00    +0.000 C 
ENDBRANCH   7  14
ENDBRANCH   5  10
ENDBRANCH   1   6
BRANCH   2  15
ATOM     15  C   UNL     1       2.072   4.878  18.975  0.00  0.00    +0.000 C 
BRANCH  15  16
ATOM     16  C   UNL     1       3.459   4.839  18.380  0.00  0.00    +0.000 A 
ATOM     17  C   UNL     1       4.521   5.493  19.022  0.00  0.00    +0.000 A 
ATOM     18  C   UNL     1       5.823   5.395  18.520  0.00  0.00    +0.000 A 
ATOM     19  C   UNL     1       6.063   4.629  17.371  0.00  0.00    +0.000 A 
ATOM     20  C   UNL     1       5.011   3.988  16.709  0.00  0.00    +0.000 A 
ATOM     21  C   UNL     1       3.713   4.095  17.218  0.00  0.00    +0.000 A 
BRANCH  19  22
ATOM     22  N   UNL     1       7.436   4.488  16.867  0.00  0.00    +0.000 N 
ATOM     23  O   UNL     1       8.301   4.087  17.659  0.00  0.00    +0.000 OA
ATOM     24  O   UNL     1       7.647   4.770  15.680  0.00  0.00    +0.000 OA
ENDBRANCH  19  22
ENDBRANCH  15  16
ENDBRANCH   2  15
TORSDOF 6
ENDMDL
MODEL 7
REMARK VINA RESULT:      -6.6      3.285      4.266
REMARK  Name = 
REMARK  8 active torsions:
REMARK  status: ('A' for Active; 'I' for Inactive)
REMARK    1  A    between atoms: C_1  and  C_2
REMARK    2  A    between atoms: C_2  and  N_3
REMARK    3  A    between atoms: C_6  and  C_7
REMARK    4  A    between atoms: N_8  and  N_9
REMARK    5  A    between atoms: C_10  and  C_12
REMARK    6  A    between atoms: C_12  and  C_13
REMARK    7  A    between atoms: C_16  and  N_17
REMARK    8  A    between atoms: C_22  and  C_23
REMARK                            x       y       z     vdW  Elec       q    Type
REMARK                         _______ _______ _______ _____ _____    ______ ____
ROOT
ATOM      1  N   UNL     1       4.372   5.484  19.442  0.00  0.00    +0.000 N 
ATOM      2  C   UNL     1       5.297   4.501  19.116  0.00  0.00    +0.000 C 
ATOM      3  O   UNL     1       5.243   3.329  19.485  0.00  0.00    +0.000 OA
ATOM      4  H   UNL     1       4.382   6.384  18.973  0.00  0.00    +0.000 HD
ENDROOT
BRANCH   1   6
ATOM      5  C   UNL     1       2.207   5.868  20.147  0.00  0.00    +0.000 C 
ATOM      6  N   UNL     1       3.290   5.154  20.198  0.00  0.00    +0.000 NA
BRANCH   5  10
ATOM      7  N   UNL     1       1.528   9.247  19.059  0.00  0.00    +0.000 N 
ATOM      8  N   UNL     1       2.040   8.798  17.899  0.00  0.00    +0.000 NA
ATOM      9  C   UNL     1       2.373   7.535  18.165  0.00  0.00    +0.000 A 
ATOM     10  C   UNL     1       2.024   7.137  19.473  0.00  0.00    +0.000 A 
ATOM     11  C   UNL     1       1.528   8.298  20.054  0.00  0.00    +0.000 A 
ATOM     12  C   UNL     1       1.054   8.580  21.435  0.00  0.00    +0.000 C 
BRANCH   7  14
ATOM     13  C   UNL     1      -0.423  10.691  18.676  0.00  0.00    +0.000 C 
ATOM     14  C   UNL     1       1.024  10.609  19.122  0.00  0.00    +0.000 C 
ENDBRANCH   7  14
ENDBRANCH   5  10
ENDBRANCH   1   6
BRANCH   2  15
ATOM     15  C   UNL     1       6.459   5.020  18.292  0.00  0.00    +0.000 C 
BRANCH  15  16
ATOM     16  C   UNL     1       6.400   4.638  16.833  0.00  0.00    +0.000 A 
ATOM     17  C   UNL     1       5.301   3.922  16.333  0.00  0.00    +0.000 A 
ATOM     18  C   UNL     1       5.202   3.634  14.969  0.00  0.00    +0.000 A 
ATOM     19  C   UNL     1       6.208   4.075  14.095  0.00  0.00    +0.000 A 
ATOM     20  C   UNL     1       7.319   4.771  14.582  0.00  0.00    +0.000 A 
ATOM     21  C   UNL     1       7.409   5.051  15.949  0.00  0.00    +0.000 A 
BRANCH  19  22
ATOM     22  N   UNL     1       6.084   3.812  12.656  0.00  0.00    +0.000 N 
ATOM     23  O   UNL     1       4.987   3.416  12.236  0.00  0.00    +0.000 OA
ATOM     24  O   UNL     1       7.079   4.009  11.944  0.00  0.00    +0.000 OA
ENDBRANCH  19  22
ENDBRANCH  15  16
ENDBRANCH   2  15
TORSDOF 6
ENDMDL
MODEL 8
REMARK VINA RESULT:      -6.6      6.688      8.737
REMARK  Name = 
REMARK  8 active torsions:
REMARK  status: ('A' for Active; 'I' for Inactive)
REMARK    1  A    between atoms: C_1  and  C_2
REMARK    2  A    between atoms: C_2  and  N_3
REMARK    3  A    between atoms: C_6  and  C_7
REMARK    4  A    between atoms: N_8  and  N_9
REMARK    5  A    between atoms: C_10  and  C_12
REMARK    6  A    between atoms: C_12  and  C_13
REMARK    7  A    between atoms: C_16  and  N_17
REMARK    8  A    between atoms: C_22  and  C_23
REMARK                            x       y       z     vdW  Elec       q    Type
REMARK                         _______ _______ _______ _____ _____    ______ ____
ROOT
ATOM      1  N   UNL     1       2.437   8.111  18.247  0.00  0.00    +0.000 N 
ATOM      2  C   UNL     1       1.923   9.399  18.300  0.00  0.00    +0.000 C 
ATOM      3  O   UNL     1       2.298  10.340  17.603  0.00  0.00    +0.000 OA
ATOM      4  H   UNL     1       1.975   7.346  18.727  0.00  0.00    +0.000 HD
ENDROOT
BRANCH   1   6
ATOM      5  C   UNL     1       3.967   6.647  17.325  0.00  0.00    +0.000 C 
ATOM      6  N   UNL     1       3.411   7.821  17.342  0.00  0.00    +0.000 NA
BRANCH   5  10
ATOM      7  N   UNL     1       2.984   3.859  19.404  0.00  0.00    +0.000 N 
ATOM      8  N   UNL     1       4.157   4.116  20.011  0.00  0.00    +0.000 NA
ATOM      9  C   UNL     1       4.663   5.132  19.314  0.00  0.00    +0.000 A 
ATOM     10  C   UNL     1       3.799   5.582  18.292  0.00  0.00    +0.000 A 
ATOM     11  C   UNL     1       2.735   4.690  18.336  0.00  0.00    +0.000 A 
ATOM     12  C   UNL     1       1.524   4.562  17.484  0.00  0.00    +0.000 C 
BRANCH   7  14
ATOM     13  C   UNL     1       1.253   3.313  21.060  0.00  0.00    +0.000 C 
ATOM     14  C   UNL     1       2.135   2.805  19.935  0.00  0.00    +0.000 C 
ENDBRANCH   7  14
ENDBRANCH   5  10
ENDBRANCH   1   6
BRANCH   2  15
ATOM     15  C   UNL     1       0.865   9.580  19.371  0.00  0.00    +0.000 C 
BRANCH  15  16
ATOM     16  C   UNL     1      -0.424  10.183  18.871  0.00  0.00    +0.000 A 
ATOM     17  C   UNL     1      -1.051   9.664  17.728  0.00  0.00    +0.000 A 
ATOM     18  C   UNL     1      -2.285  10.166  17.304  0.00  0.00    +0.000 A 
ATOM     19  C   UNL     1      -2.902  11.191  18.037  0.00  0.00    +0.000 A 
ATOM     20  C   UNL     1      -2.279  11.733  19.166  0.00  0.00    +0.000 A 
ATOM     21  C   UNL     1      -1.043  11.225  19.579  0.00  0.00    +0.000 A 
BRANCH  19  22
ATOM     22  N   UNL     1      -4.218  11.690  17.619  0.00  0.00    +0.000 N 
ATOM     23  O   UNL     1      -4.529  11.564  16.425  0.00  0.00    +0.000 OA
ATOM     24  O   UNL     1      -4.945  12.199  18.484  0.00  0.00    +0.000 OA
ENDBRANCH  19  22
ENDBRANCH  15  16
ENDBRANCH   2  15
TORSDOF 6
ENDMDL
MODEL 9
REMARK VINA RESULT:      -6.5      6.716      8.766
REMARK  Name = 
REMARK  8 active torsions:
REMARK  status: ('A' for Active; 'I' for Inactive)
REMARK    1  A    between atoms: C_1  and  C_2
REMARK    2  A    between atoms: C_2  and  N_3
REMARK    3  A    between atoms: C_6  and  C_7
REMARK    4  A    between atoms: N_8  and  N_9
REMARK    5  A    between atoms: C_10  and  C_12
REMARK    6  A    between atoms: C_12  and  C_13
REMARK    7  A    between atoms: C_16  and  N_17
REMARK    8  A    between atoms: C_22  and  C_23
REMARK                            x       y       z     vdW  Elec       q    Type
REMARK                         _______ _______ _______ _____ _____    ______ ____
ROOT
ATOM      1  N   UNL     1       2.369   8.211  18.366  0.00  0.00    +0.000 N 
ATOM      2  C   UNL     1       1.839   9.494  18.338  0.00  0.00    +0.000 C 
ATOM      3  O   UNL     1       2.206  10.395  17.586  0.00  0.00    +0.000 OA
ATOM      4  H   UNL     1       1.914   7.471  18.890  0.00  0.00    +0.000 HD
ENDROOT
BRANCH   1   6
ATOM      5  C   UNL     1       3.646   6.633  17.265  0.00  0.00    +0.000 C 
ATOM      6  N   UNL     1       3.352   7.879  17.486  0.00  0.00    +0.000 NA
BRANCH   5  10
ATOM      7  N   UNL     1       3.010   3.757  19.359  0.00  0.00    +0.000 N 
ATOM      8  N   UNL     1       1.803   3.803  18.766  0.00  0.00    +0.000 NA
ATOM      9  C   UNL     1       1.881   4.863  17.963  0.00  0.00    +0.000 A 
ATOM     10  C   UNL     1       3.153   5.475  17.981  0.00  0.00    +0.000 A 
ATOM     11  C   UNL     1       3.851   4.766  18.950  0.00  0.00    +0.000 A 
ATOM     12  C   UNL     1       5.219   4.946  19.505  0.00  0.00    +0.000 C 
BRANCH   7  14
ATOM     13  C   UNL     1       2.408   2.767  21.526  0.00  0.00    +0.000 C 
ATOM     14  C   UNL     1       3.291   2.682  20.295  0.00  0.00    +0.000 C 
ENDBRANCH   7  14
ENDBRANCH   5  10
ENDBRANCH   1   6
BRANCH   2  15
ATOM     15  C   UNL     1       0.773   9.726  19.391  0.00  0.00    +0.000 C 
BRANCH  15  16
ATOM     16  C   UNL     1      -0.520  10.285  18.848  0.00  0.00    +0.000 A 
ATOM     17  C   UNL     1      -1.090   9.745  17.685  0.00  0.00    +0.000 A 
ATOM     18  C   UNL     1      -2.327  10.204  17.221  0.00  0.00    +0.000 A 
ATOM     19  C   UNL     1      -3.003  11.206  17.933  0.00  0.00    +0.000 A 
ATOM     20  C   UNL     1      -2.437  11.768  19.082  0.00  0.00    +0.000 A 
ATOM     21  C   UNL     1      -1.198  11.304  19.535  0.00  0.00    +0.000 A 
BRANCH  19  22
ATOM     22  N   UNL     1      -4.322  11.659  17.473  0.00  0.00    +0.000 N 
ATOM     23  O   UNL     1      -5.050  12.237  18.294  0.00  0.00    +0.000 OA
ATOM     24  O   UNL     1      -4.627  11.447  16.292  0.00  0.00    +0.000 OA
ENDBRANCH  19  22
ENDBRANCH  15  16
ENDBRANCH   2  15
TORSDOF 6
ENDMDL
