MODEL 1
REMARK VINA RESULT:      -9.3      0.000      0.000
REMARK  Name = 
REMARK  9 active torsions:
REMARK  status: ('A' for Active; 'I' for Inactive)
REMARK    1  A    between atoms: C_1  and  N_2
REMARK    2  A    between atoms: C_4  and  N_5
REMARK    3  A    between atoms: N_5  and  C_6
REMARK    4  A    between atoms: N_5  and  C_17
REMARK    5  A    between atoms: C_6  and  C_7
REMARK    6  A    between atoms: C_7  and  C_8
REMARK    7  A    between atoms: C_8  and  C_9
REMARK    8  A    between atoms: C_9  and  C_10
REMARK    9  A    between atoms: C_10  and  C_11
REMARK                            x       y       z     vdW  Elec       q    Type
REMARK                         _______ _______ _______ _____ _____    ______ ____
ROOT
ATOM      1  N   UNL     1       6.304   5.072  16.353  0.00  0.00    +0.000 N 
ENDROOT
BRANCH   1   5
ATOM      2  C   UNL     1       3.123   1.720  18.014  0.00  0.00    +0.000 C 
ATOM      3  N   UNL     1       3.568   3.130  17.993  0.00  0.00    +0.000 N 
ATOM      4  C   UNL     1       4.622   3.454  17.198  0.00  0.00    +0.000 A 
ATOM      5  C   UNL     1       5.151   4.743  17.117  0.00  0.00    +0.000 A 
ATOM      6  C   UNL     1       4.496   5.712  17.890  0.00  0.00    +0.000 A 
ATOM      7  C   UNL     1       3.422   5.395  18.735  0.00  0.00    +0.000 A 
ATOM      8  C   UNL     1       2.817   6.371  19.543  0.00  0.00    +0.000 A 
ATOM      9  C   UNL     1       1.761   6.044  20.399  0.00  0.00    +0.000 A 
ATOM     10  C   UNL     1       1.290   4.738  20.443  0.00  0.00    +0.000 A 
ATOM     11  C   UNL     1       1.878   3.757  19.641  0.00  0.00    +0.000 A 
ATOM     12  C   UNL     1       2.951   4.062  18.778  0.00  0.00    +0.000 A 
ENDBRANCH   1   5
BRANCH   1  13
ATOM     13  C   UNL     1       6.485   4.806  14.959  0.00  0.00    +0.000 A 
ATOM     14  C   UNL     1       7.642   5.247  14.290  0.00  0.00    +0.000 A 
ATOM     15  C   UNL     1       7.834   5.037  12.919  0.00  0.00    +0.000 A 
ATOM     16  C   UNL     1       6.870   4.366  12.174  0.00  0.00    +0.000 A 
ATOM     17  C   UNL     1       5.731   3.896  12.811  0.00  0.00    +0.000 A 
ATOM     18 CL   UNL     1       4.527   3.060  11.909  0.00  0.00    +0.000 Cl
ATOM     19  C   UNL     1       5.545   4.102  14.183  0.00  0.00    +0.000 A 
ENDBRANCH   1  13
BRANCH   1  20
ATOM     20  C   UNL     1       7.478   5.694  17.031  0.00  0.00    +0.000 C 
BRANCH  20  21
ATOM     21  C   UNL     1       7.267   7.198  17.228  0.00  0.00    +0.000 C 
BRANCH  21  22
ATOM     22  C   UNL     1       8.161   7.815  18.312  0.00  0.00    +0.000 C 
BRANCH  22  23
ATOM     23  C   UNL     1       8.252   9.323  18.050  0.00  0.00    +0.000 C 
BRANCH  23  24
ATOM     24  C   UNL     1       9.228  10.064  18.960  0.00  0.00    +0.000 C 
BRANCH  24  25
ATOM     25  C   UNL     1       9.829  11.316  18.272  0.00  0.00    +0.000 C 
ATOM     26  C   UNL     1       9.046  12.616  18.537  0.00  0.00    +0.000 C 
ATOM     27  C   UNL     1       9.151  13.075  19.990  0.00  0.00    +0.000 C 
ATOM     28  C   UNL     1      10.608  13.229  20.421  0.00  0.00    +0.000 C 
ATOM     29  C   UNL     1      11.436  11.978  20.137  0.00  0.00    +0.000 C 
ATOM     30  C   UNL     1      11.296  11.523  18.684  0.00  0.00    +0.000 C 
ENDBRANCH  24  25
ENDBRANCH  23  24
ENDBRANCH  22  23
ENDBRANCH  21  22
ENDBRANCH  20  21
ENDBRANCH   1  20
TORSDOF 8
ENDMDL
MODEL 2
REMARK VINA RESULT:      -9.3      1.557      2.516
REMARK  Name = 
REMARK  9 active torsions:
REMARK  status: ('A' for Active; 'I' for Inactive)
REMARK    1  A    between atoms: C_1  and  N_2
REMARK    2  A    between atoms: C_4  and  N_5
REMARK    3  A    between atoms: N_5  and  C_6
REMARK    4  A    between atoms: N_5  and  C_17
REMARK    5  A    between atoms: C_6  and  C_7
REMARK    6  A    between atoms: C_7  and  C_8
REMARK    7  A    between atoms: C_8  and  C_9
REMARK    8  A    between atoms: C_9  and  C_10
REMARK    9  A    between atoms: C_10  and  C_11
REMARK                            x       y       z     vdW  Elec       q    Type
REMARK                         _______ _______ _______ _____ _____    ______ ____
ROOT
ATOM      1  N   UNL     1       6.347   5.044  17.380  0.00  0.00    +0.000 N 
ENDROOT
BRANCH   1   5
ATOM      2  C   UNL     1       2.309   7.227  19.125  0.00  0.00    +0.000 C 
ATOM      3  N   UNL     1       3.182   6.033  19.097  0.00  0.00    +0.000 N 
ATOM      4  C   UNL     1       4.317   6.091  18.351  0.00  0.00    +0.000 A 
ATOM      5  C   UNL     1       5.203   5.020  18.224  0.00  0.00    +0.000 A 
ATOM      6  C   UNL     1       4.868   3.871  18.953  0.00  0.00    +0.000 A 
ATOM      7  C   UNL     1       3.690   3.781  19.710  0.00  0.00    +0.000 A 
ATOM      8  C   UNL     1       3.346   2.601  20.387  0.00  0.00    +0.000 A 
ATOM      9  C   UNL     1       2.160   2.512  21.122  0.00  0.00    +0.000 A 
ATOM     10  C   UNL     1       1.313   3.610  21.198  0.00  0.00    +0.000 A 
ATOM     11  C   UNL     1       1.644   4.794  20.534  0.00  0.00    +0.000 A 
ATOM     12  C   UNL     1       2.830   4.903  19.779  0.00  0.00    +0.000 A 
ENDBRANCH   1   5
BRANCH   1  13
ATOM     13  C   UNL     1       6.356   4.761  15.977  0.00  0.00    +0.000 A 
ATOM     14  C   UNL     1       5.403   3.890  15.417  0.00  0.00    +0.000 A 
ATOM     15  C   UNL     1       5.405   3.561  14.056  0.00  0.00    +0.000 A 
ATOM     16  C   UNL     1       6.365   4.106  13.208  0.00  0.00    +0.000 A 
ATOM     17  C   UNL     1       7.300   4.989  13.727  0.00  0.00    +0.000 A 
ATOM     18 CL   UNL     1       8.494   5.677  12.695  0.00  0.00    +0.000 Cl
ATOM     19  C   UNL     1       7.292   5.320  15.086  0.00  0.00    +0.000 A 
ENDBRANCH   1  13
BRANCH   1  20
ATOM     20  C   UNL     1       7.688   5.323  17.971  0.00  0.00    +0.000 C 
BRANCH  20  21
ATOM     21  C   UNL     1       7.745   6.734  18.563  0.00  0.00    +0.000 C 
BRANCH  21  22
ATOM     22  C   UNL     1       8.033   7.832  17.529  0.00  0.00    +0.000 C 
BRANCH  22  23
ATOM     23  C   UNL     1       8.005   9.183  18.252  0.00  0.00    +0.000 C 
BRANCH  23  24
ATOM     24  C   UNL     1       9.180  10.101  17.919  0.00  0.00    +0.000 C 
BRANCH  24  25
ATOM     25  C   UNL     1       9.225  11.345  18.841  0.00  0.00    +0.000 C 
ATOM     26  C   UNL     1      10.394  11.340  19.846  0.00  0.00    +0.000 C 
ATOM     27  C   UNL     1      11.750  11.506  19.165  0.00  0.00    +0.000 C 
ATOM     28  C   UNL     1      11.790  12.765  18.302  0.00  0.00    +0.000 C 
ATOM     29  C   UNL     1      10.624  12.835  17.318  0.00  0.00    +0.000 C 
ATOM     30  C   UNL     1       9.279  12.643  18.019  0.00  0.00    +0.000 C 
ENDBRANCH  24  25
ENDBRANCH  23  24
ENDBRANCH  22  23
ENDBRANCH  21  22
ENDBRANCH  20  21
ENDBRANCH   1  20
TORSDOF 8
ENDMDL
MODEL 3
REMARK VINA RESULT:      -9.1      0.959      1.973
REMARK  Name = 
REMARK  9 active torsions:
REMARK  status: ('A' for Active; 'I' for Inactive)
REMARK    1  A    between atoms: C_1  and  N_2
REMARK    2  A    between atoms: C_4  and  N_5
REMARK    3  A    between atoms: N_5  and  C_6
REMARK    4  A    between atoms: N_5  and  C_17
REMARK    5  A    between atoms: C_6  and  C_7
REMARK    6  A    between atoms: C_7  and  C_8
REMARK    7  A    between atoms: C_8  and  C_9
REMARK    8  A    between atoms: C_9  and  C_10
REMARK    9  A    between atoms: C_10  and  C_11
REMARK                            x       y       z     vdW  Elec       q    Type
REMARK                         _______ _______ _______ _____ _____    ______ ____
ROOT
ATOM      1  N   UNL     1       6.218   5.213  16.285  0.00  0.00    +0.000 N 
ENDROOT
BRANCH   1   5
ATOM      2  C   UNL     1       2.192   6.900  18.535  0.00  0.00    +0.000 C 
ATOM      3  N   UNL     1       3.000   5.737  18.105  0.00  0.00    +0.000 N 
ATOM      4  C   UNL     1       4.185   5.980  17.485  0.00  0.00    +0.000 A 
ATOM      5  C   UNL     1       5.018   4.967  17.008  0.00  0.00    +0.000 A 
ATOM      6  C   UNL     1       4.573   3.659  17.243  0.00  0.00    +0.000 A 
ATOM      7  C   UNL     1       3.342   3.386  17.859  0.00  0.00    +0.000 A 
ATOM      8  C   UNL     1       2.889   2.069  18.034  0.00  0.00    +0.000 A 
ATOM      9  C   UNL     1       1.652   1.806  18.630  0.00  0.00    +0.000 A 
ATOM     10  C   UNL     1       0.863   2.860  19.071  0.00  0.00    +0.000 A 
ATOM     11  C   UNL     1       1.301   4.177  18.909  0.00  0.00    +0.000 A 
ATOM     12  C   UNL     1       2.541   4.466  18.302  0.00  0.00    +0.000 A 
ENDBRANCH   1   5
BRANCH   1  13
ATOM     13  C   UNL     1       6.441   4.897  14.907  0.00  0.00    +0.000 A 
ATOM     14  C   UNL     1       7.629   5.294  14.265  0.00  0.00    +0.000 A 
ATOM     15  C   UNL     1       7.863   5.034  12.909  0.00  0.00    +0.000 A 
ATOM     16  C   UNL     1       6.911   4.358  12.152  0.00  0.00    +0.000 A 
ATOM     17  C   UNL     1       5.742   3.932  12.765  0.00  0.00    +0.000 A 
ATOM     18 CL   UNL     1       4.551   3.091  11.849  0.00  0.00    +0.000 Cl
ATOM     19  C   UNL     1       5.513   4.187  14.122  0.00  0.00    +0.000 A 
ENDBRANCH   1  13
BRANCH   1  20
ATOM     20  C   UNL     1       7.396   5.791  16.994  0.00  0.00    +0.000 C 
BRANCH  20  21
ATOM     21  C   UNL     1       7.268   7.311  17.123  0.00  0.00    +0.000 C 
BRANCH  21  22
ATOM     22  C   UNL     1       8.193   7.926  18.182  0.00  0.00    +0.000 C 
BRANCH  22  23
ATOM     23  C   UNL     1       8.083   9.451  18.081  0.00  0.00    +0.000 C 
BRANCH  23  24
ATOM     24  C   UNL     1       9.417  10.169  17.887  0.00  0.00    +0.000 C 
BRANCH  24  25
ATOM     25  C   UNL     1       9.323  11.676  18.236  0.00  0.00    +0.000 C 
ATOM     26  C   UNL     1       9.254  11.969  19.747  0.00  0.00    +0.000 C 
ATOM     27  C   UNL     1      10.562  11.646  20.465  0.00  0.00    +0.000 C 
ATOM     28  C   UNL     1      11.741  12.378  19.830  0.00  0.00    +0.000 C 
ATOM     29  C   UNL     1      11.825  12.153  18.322  0.00  0.00    +0.000 C 
ATOM     30  C   UNL     1      10.498  12.459  17.628  0.00  0.00    +0.000 C 
ENDBRANCH  24  25
ENDBRANCH  23  24
ENDBRANCH  22  23
ENDBRANCH  21  22
ENDBRANCH  20  21
ENDBRANCH   1  20
TORSDOF 8
ENDMDL
MODEL 4
REMARK VINA RESULT:      -8.9      1.536      2.401
REMARK  Name = 
REMARK  9 active torsions:
REMARK  status: ('A' for Active; 'I' for Inactive)
REMARK    1  A    between atoms: C_1  and  N_2
REMARK    2  A    between atoms: C_4  and  N_5
REMARK    3  A    between atoms: N_5  and  C_6
REMARK    4  A    between atoms: N_5  and  C_17
REMARK    5  A    between atoms: C_6  and  C_7
REMARK    6  A    between atoms: C_7  and  C_8
REMARK    7  A    between atoms: C_8  and  C_9
REMARK    8  A    between atoms: C_9  and  C_10
REMARK    9  A    between atoms: C_10  and  C_11
REMARK                            x       y       z     vdW  Elec       q    Type
REMARK                         _______ _______ _______ _____ _____    ______ ____
ROOT
ATOM      1  N   UNL     1       6.318   5.300  17.280  0.00  0.00    +0.000 N 
ENDROOT
BRANCH   1   5
ATOM      2  C   UNL     1       2.215   7.267  19.126  0.00  0.00    +0.000 C 
ATOM      3  N   UNL     1       3.148   6.120  19.075  0.00  0.00    +0.000 N 
ATOM      4  C   UNL     1       4.260   6.238  18.302  0.00  0.00    +0.000 A 
ATOM      5  C   UNL     1       5.197   5.215  18.151  0.00  0.00    +0.000 A 
ATOM      6  C   UNL     1       4.940   4.049  18.885  0.00  0.00    +0.000 A 
ATOM      7  C   UNL     1       3.787   3.897  19.670  0.00  0.00    +0.000 A 
ATOM      8  C   UNL     1       3.521   2.700  20.352  0.00  0.00    +0.000 A 
ATOM      9  C   UNL     1       2.360   2.548  21.115  0.00  0.00    +0.000 A 
ATOM     10  C   UNL     1       1.459   3.601  21.214  0.00  0.00    +0.000 A 
ATOM     11  C   UNL     1       1.711   4.801  20.545  0.00  0.00    +0.000 A 
ATOM     12  C   UNL     1       2.872   4.973  19.762  0.00  0.00    +0.000 A 
ENDBRANCH   1   5
BRANCH   1  13
ATOM     13  C   UNL     1       6.336   4.910  15.903  0.00  0.00    +0.000 A 
ATOM     14  C   UNL     1       5.420   3.960  15.416  0.00  0.00    +0.000 A 
ATOM     15  C   UNL     1       5.433   3.530  14.083  0.00  0.00    +0.000 A 
ATOM     16  C   UNL     1       6.368   4.047  13.191  0.00  0.00    +0.000 A 
ATOM     17  C   UNL     1       7.267   5.005  13.637  0.00  0.00    +0.000 A 
ATOM     18 CL   UNL     1       8.429   5.661  12.550  0.00  0.00    +0.000 Cl
ATOM     19  C   UNL     1       7.247   5.438  14.967  0.00  0.00    +0.000 A 
ENDBRANCH   1  13
BRANCH   1  20
ATOM     20  C   UNL     1       7.628   5.770  17.816  0.00  0.00    +0.000 C 
BRANCH  20  21
ATOM     21  C   UNL     1       7.480   7.120  18.523  0.00  0.00    +0.000 C 
BRANCH  21  22
ATOM     22  C   UNL     1       8.122   8.292  17.768  0.00  0.00    +0.000 C 
BRANCH  22  23
ATOM     23  C   UNL     1       8.836   9.182  18.791  0.00  0.00    +0.000 C 
BRANCH  23  24
ATOM     24  C   UNL     1       9.026  10.630  18.344  0.00  0.00    +0.000 C 
BRANCH  24  25
ATOM     25  C   UNL     1      10.456  11.148  18.645  0.00  0.00    +0.000 C 
ATOM     26  C   UNL     1      10.999  12.138  17.597  0.00  0.00    +0.000 C 
ATOM     27  C   UNL     1      10.259  13.474  17.618  0.00  0.00    +0.000 C 
ATOM     28  C   UNL     1      10.279  14.100  19.010  0.00  0.00    +0.000 C 
ATOM     29  C   UNL     1       9.789  13.138  20.090  0.00  0.00    +0.000 C 
ATOM     30  C   UNL     1      10.527  11.801  20.035  0.00  0.00    +0.000 C 
ENDBRANCH  24  25
ENDBRANCH  23  24
ENDBRANCH  22  23
ENDBRANCH  21  22
ENDBRANCH  20  21
ENDBRANCH   1  20
TORSDOF 8
ENDMDL
MODEL 5
REMARK VINA RESULT:      -8.9      0.981      1.339
REMARK  Name = 
REMARK  9 active torsions:
REMARK  status: ('A' for Active; 'I' for Inactive)
REMARK    1  A    between atoms: C_1  and  N_2
REMARK    2  A    between atoms: C_4  and  N_5
REMARK    3  A    between atoms: N_5  and  C_6
REMARK    4  A    between atoms: N_5  and  C_17
REMARK    5  A    between atoms: C_6  and  C_7
REMARK    6  A    between atoms: C_7  and  C_8
REMARK    7  A    between atoms: C_8  and  C_9
REMARK    8  A    between atoms: C_9  and  C_10
REMARK    9  A    between atoms: C_10  and  C_11
REMARK                            x       y       z     vdW  Elec       q    Type
REMARK                         _______ _______ _______ _____ _____    ______ ____
ROOT
ATOM      1  N   UNL     1       5.090   5.425  16.124  0.00  0.00    +0.000 N 
ENDROOT
BRANCH   1   5
ATOM      2  C   UNL     1       3.993   1.162  18.302  0.00  0.00    +0.000 C 
ATOM      3  N   UNL     1       3.740   2.615  18.180  0.00  0.00    +0.000 N 
ATOM      4  C   UNL     1       4.436   3.305  17.238  0.00  0.00    +0.000 A 
ATOM      5  C   UNL     1       4.306   4.682  17.050  0.00  0.00    +0.000 A 
ATOM      6  C   UNL     1       3.372   5.319  17.878  0.00  0.00    +0.000 A 
ATOM      7  C   UNL     1       2.661   4.630  18.872  0.00  0.00    +0.000 A 
ATOM      8  C   UNL     1       1.771   5.297  19.729  0.00  0.00    +0.000 A 
ATOM      9  C   UNL     1       1.082   4.608  20.731  0.00  0.00    +0.000 A 
ATOM     10  C   UNL     1       1.266   3.239  20.876  0.00  0.00    +0.000 A 
ATOM     11  C   UNL     1       2.144   2.559  20.029  0.00  0.00    +0.000 A 
ATOM     12  C   UNL     1       2.857   3.236  19.017  0.00  0.00    +0.000 A 
ENDBRANCH   1   5
BRANCH   1  13
ATOM     13  C   UNL     1       5.670   4.912  14.921  0.00  0.00    +0.000 A 
ATOM     14  C   UNL     1       7.043   5.076  14.660  0.00  0.00    +0.000 A 
ATOM     15  C   UNL     1       7.635   4.619  13.477  0.00  0.00    +0.000 A 
ATOM     16  C   UNL     1       6.865   3.973  12.515  0.00  0.00    +0.000 A 
ATOM     17  C   UNL     1       5.514   3.773  12.756  0.00  0.00    +0.000 A 
ATOM     18 CL   UNL     1       4.543   2.972  11.581  0.00  0.00    +0.000 Cl
ATOM     19  C   UNL     1       4.926   4.225  13.942  0.00  0.00    +0.000 A 
ENDBRANCH   1  13
BRANCH   1  20
ATOM     20  C   UNL     1       5.417   6.850  16.420  0.00  0.00    +0.000 C 
BRANCH  20  21
ATOM     21  C   UNL     1       6.413   6.956  17.578  0.00  0.00    +0.000 C 
BRANCH  21  22
ATOM     22  C   UNL     1       7.749   7.606  17.193  0.00  0.00    +0.000 C 
BRANCH  22  23
ATOM     23  C   UNL     1       8.311   8.308  18.434  0.00  0.00    +0.000 C 
BRANCH  23  24
ATOM     24  C   UNL     1       8.381   9.829  18.320  0.00  0.00    +0.000 C 
BRANCH  24  25
ATOM     25  C   UNL     1       9.756  10.383  18.775  0.00  0.00    +0.000 C 
ATOM     26  C   UNL     1      10.351  11.443  17.828  0.00  0.00    +0.000 C 
ATOM     27  C   UNL     1       9.559  12.748  17.840  0.00  0.00    +0.000 C 
ATOM     28  C   UNL     1       9.428  13.306  19.255  0.00  0.00    +0.000 C 
ATOM     29  C   UNL     1       8.882  12.276  20.241  0.00  0.00    +0.000 C 
ATOM     30  C   UNL     1       9.675  10.970  20.194  0.00  0.00    +0.000 C 
ENDBRANCH  24  25
ENDBRANCH  23  24
ENDBRANCH  22  23
ENDBRANCH  21  22
ENDBRANCH  20  21
ENDBRANCH   1  20
TORSDOF 8
ENDMDL
MODEL 6
REMARK VINA RESULT:      -8.8      0.751      1.091
REMARK  Name = 
REMARK  9 active torsions:
REMARK  status: ('A' for Active; 'I' for Inactive)
REMARK    1  A    between atoms: C_1  and  N_2
REMARK    2  A    between atoms: C_4  and  N_5
REMARK    3  A    between atoms: N_5  and  C_6
REMARK    4  A    between atoms: N_5  and  C_17
REMARK    5  A    between atoms: C_6  and  C_7
REMARK    6  A    between atoms: C_7  and  C_8
REMARK    7  A    between atoms: C_8  and  C_9
REMARK    8  A    between atoms: C_9  and  C_10
REMARK    9  A    between atoms: C_10  and  C_11
REMARK                            x       y       z     vdW  Elec       q    Type
REMARK                         _______ _______ _______ _____ _____    ______ ____
ROOT
ATOM      1  N   UNL     1       5.985   5.411  16.018  0.00  0.00    +0.000 N 
ENDROOT
BRANCH   1   5
ATOM      2  C   UNL     1       3.528   1.698  18.091  0.00  0.00    +0.000 C 
ATOM      3  N   UNL     1       3.725   3.159  17.959  0.00  0.00    +0.000 N 
ATOM      4  C   UNL     1       4.657   3.597  17.072  0.00  0.00    +0.000 A 
ATOM      5  C   UNL     1       4.953   4.948  16.881  0.00  0.00    +0.000 A 
ATOM      6  C   UNL     1       4.193   5.845  17.644  0.00  0.00    +0.000 A 
ATOM      7  C   UNL     1       3.243   5.413  18.582  0.00  0.00    +0.000 A 
ATOM      8  C   UNL     1       2.533   6.327  19.375  0.00  0.00    +0.000 A 
ATOM      9  C   UNL     1       1.603   5.889  20.322  0.00  0.00    +0.000 A 
ATOM     10  C   UNL     1       1.364   4.529  20.473  0.00  0.00    +0.000 A 
ATOM     11  C   UNL     1       2.058   3.607  19.687  0.00  0.00    +0.000 A 
ATOM     12  C   UNL     1       3.008   4.026  18.733  0.00  0.00    +0.000 A 
ENDBRANCH   1   5
BRANCH   1  13
ATOM     13  C   UNL     1       6.246   4.928  14.697  0.00  0.00    +0.000 A 
ATOM     14  C   UNL     1       7.485   5.174  14.077  0.00  0.00    +0.000 A 
ATOM     15  C   UNL     1       7.761   4.749  12.772  0.00  0.00    +0.000 A 
ATOM     16  C   UNL     1       6.799   4.053  12.046  0.00  0.00    +0.000 A 
ATOM     17  C   UNL     1       5.578   3.773  12.641  0.00  0.00    +0.000 A 
ATOM     18 CL   UNL     1       4.374   2.910  11.763  0.00  0.00    +0.000 Cl
ATOM     19  C   UNL     1       5.307   4.194  13.948  0.00  0.00    +0.000 A 
ENDBRANCH   1  13
BRANCH   1  20
ATOM     20  C   UNL     1       6.941   6.444  16.509  0.00  0.00    +0.000 C 
BRANCH  20  21
ATOM     21  C   UNL     1       7.194   6.290  18.012  0.00  0.00    +0.000 C 
BRANCH  21  22
ATOM     22  C   UNL     1       8.226   7.278  18.574  0.00  0.00    +0.000 C 
BRANCH  22  23
ATOM     23  C   UNL     1       7.961   8.649  17.944  0.00  0.00    +0.000 C 
BRANCH  23  24
ATOM     24  C   UNL     1       9.128   9.628  18.050  0.00  0.00    +0.000 C 
BRANCH  24  25
ATOM     25  C   UNL     1       8.735  10.924  18.802  0.00  0.00    +0.000 C 
ATOM     26  C   UNL     1       9.492  11.137  20.127  0.00  0.00    +0.000 C 
ATOM     27  C   UNL     1      10.974  11.434  19.912  0.00  0.00    +0.000 C 
ATOM     28  C   UNL     1      11.173  12.629  18.983  0.00  0.00    +0.000 C 
ATOM     29  C   UNL     1      10.404  12.484  17.672  0.00  0.00    +0.000 C 
ATOM     30  C   UNL     1       8.929  12.163  17.912  0.00  0.00    +0.000 C 
ENDBRANCH  24  25
ENDBRANCH  23  24
ENDBRANCH  22  23
ENDBRANCH  21  22
ENDBRANCH  20  21
ENDBRANCH   1  20
TORSDOF 8
ENDMDL
MODEL 7
REMARK VINA RESULT:      -8.7      0.943      2.181
REMARK  Name = 
REMARK  9 active torsions:
REMARK  status: ('A' for Active; 'I' for Inactive)
REMARK    1  A    between atoms: C_1  and  N_2
REMARK    2  A    between atoms: C_4  and  N_5
REMARK    3  A    between atoms: N_5  and  C_6
REMARK    4  A    between atoms: N_5  and  C_17
REMARK    5  A    between atoms: C_6  and  C_7
REMARK    6  A    between atoms: C_7  and  C_8
REMARK    7  A    between atoms: C_8  and  C_9
REMARK    8  A    between atoms: C_9  and  C_10
REMARK    9  A    between atoms: C_10  and  C_11
REMARK                            x       y       z     vdW  Elec       q    Type
REMARK                         _______ _______ _______ _____ _____    ______ ____
ROOT
ATOM      1  N   UNL     1       6.225   5.240  16.513  0.00  0.00    +0.000 N 
ENDROOT
BRANCH   1   5
ATOM      2  C   UNL     1       2.376   6.928  19.054  0.00  0.00    +0.000 C 
ATOM      3  N   UNL     1       3.107   5.767  18.500  0.00  0.00    +0.000 N 
ATOM      4  C   UNL     1       4.279   6.002  17.853  0.00  0.00    +0.000 A 
ATOM      5  C   UNL     1       5.041   4.993  17.263  0.00  0.00    +0.000 A 
ATOM      6  C   UNL     1       4.538   3.693  17.411  0.00  0.00    +0.000 A 
ATOM      7  C   UNL     1       3.319   3.431  18.054  0.00  0.00    +0.000 A 
ATOM      8  C   UNL     1       2.806   2.127  18.141  0.00  0.00    +0.000 A 
ATOM      9  C   UNL     1       1.580   1.876  18.764  0.00  0.00    +0.000 A 
ATOM     10  C   UNL     1       0.862   2.927  19.320  0.00  0.00    +0.000 A 
ATOM     11  C   UNL     1       1.362   4.229  19.246  0.00  0.00    +0.000 A 
ATOM     12  C   UNL     1       2.592   4.507  18.614  0.00  0.00    +0.000 A 
ENDBRANCH   1   5
BRANCH   1  13
ATOM     13  C   UNL     1       6.422   4.912  15.134  0.00  0.00    +0.000 A 
ATOM     14  C   UNL     1       7.617   5.261  14.480  0.00  0.00    +0.000 A 
ATOM     15  C   UNL     1       7.828   4.988  13.122  0.00  0.00    +0.000 A 
ATOM     16  C   UNL     1       6.844   4.347  12.377  0.00  0.00    +0.000 A 
ATOM     17  C   UNL     1       5.665   3.967  13.003  0.00  0.00    +0.000 A 
ATOM     18 CL   UNL     1       4.435   3.169  12.101  0.00  0.00    +0.000 Cl
ATOM     19  C   UNL     1       5.459   4.235  14.361  0.00  0.00    +0.000 A 
ENDBRANCH   1  13
BRANCH   1  20
ATOM     20  C   UNL     1       7.412   5.832  17.193  0.00  0.00    +0.000 C 
BRANCH  20  21
ATOM     21  C   UNL     1       7.344   7.362  17.184  0.00  0.00    +0.000 C 
BRANCH  21  22
ATOM     22  C   UNL     1       8.223   8.031  18.250  0.00  0.00    +0.000 C 
BRANCH  22  23
ATOM     23  C   UNL     1       8.084   9.549  18.096  0.00  0.00    +0.000 C 
BRANCH  23  24
ATOM     24  C   UNL     1       9.400  10.280  17.840  0.00  0.00    +0.000 C 
BRANCH  24  25
ATOM     25  C   UNL     1       9.799  11.192  19.029  0.00  0.00    +0.000 C 
ATOM     26  C   UNL     1      11.310  11.479  19.120  0.00  0.00    +0.000 C 
ATOM     27  C   UNL     1      11.808  12.359  17.976  0.00  0.00    +0.000 C 
ATOM     28  C   UNL     1      11.018  13.662  17.891  0.00  0.00    +0.000 C 
ATOM     29  C   UNL     1       9.510  13.429  17.842  0.00  0.00    +0.000 C 
ATOM     30  C   UNL     1       9.038  12.527  18.983  0.00  0.00    +0.000 C 
ENDBRANCH  24  25
ENDBRANCH  23  24
ENDBRANCH  22  23
ENDBRANCH  21  22
ENDBRANCH  20  21
ENDBRANCH   1  20
TORSDOF 8
ENDMDL
MODEL 8
REMARK VINA RESULT:      -8.6      1.740      2.579
REMARK  Name = 
REMARK  9 active torsions:
REMARK  status: ('A' for Active; 'I' for Inactive)
REMARK    1  A    between atoms: C_1  and  N_2
REMARK    2  A    between atoms: C_4  and  N_5
REMARK    3  A    between atoms: N_5  and  C_6
REMARK    4  A    between atoms: N_5  and  C_17
REMARK    5  A    between atoms: C_6  and  C_7
REMARK    6  A    between atoms: C_7  and  C_8
REMARK    7  A    between atoms: C_8  and  C_9
REMARK    8  A    between atoms: C_9  and  C_10
REMARK    9  A    between atoms: C_10  and  C_11
REMARK                            x       y       z     vdW  Elec       q    Type
REMARK                         _______ _______ _______ _____ _____    ______ ____
ROOT
ATOM      1  N   UNL     1       6.014   5.456  17.271  0.00  0.00    +0.000 N 
ENDROOT
BRANCH   1   5
ATOM      2  C   UNL     1       2.686   5.033  20.857  0.00  0.00    +0.000 C 
ATOM      3  N   UNL     1       3.183   5.784  19.684  0.00  0.00    +0.000 N 
ATOM      4  C   UNL     1       4.261   5.289  19.020  0.00  0.00    +0.000 A 
ATOM      5  C   UNL     1       4.837   5.923  17.919  0.00  0.00    +0.000 A 
ATOM      6  C   UNL     1       4.206   7.104  17.505  0.00  0.00    +0.000 A 
ATOM      7  C   UNL     1       3.108   7.646  18.190  0.00  0.00    +0.000 A 
ATOM      8  C   UNL     1       2.526   8.860  17.792  0.00  0.00    +0.000 A 
ATOM      9  C   UNL     1       1.446   9.404  18.491  0.00  0.00    +0.000 A 
ATOM     10  C   UNL     1       0.926   8.730  19.589  0.00  0.00    +0.000 A 
ATOM     11  C   UNL     1       1.490   7.518  19.994  0.00  0.00    +0.000 A 
ATOM     12  C   UNL     1       2.587   6.955  19.309  0.00  0.00    +0.000 A 
ENDBRANCH   1   5
BRANCH   1  13
ATOM     13  C   UNL     1       6.090   4.971  15.927  0.00  0.00    +0.000 A 
ATOM     14  C   UNL     1       5.220   3.960  15.481  0.00  0.00    +0.000 A 
ATOM     15  C   UNL     1       5.292   3.436  14.184  0.00  0.00    +0.000 A 
ATOM     16  C   UNL     1       6.239   3.920  13.287  0.00  0.00    +0.000 A 
ATOM     17  C   UNL     1       7.093   4.936  13.691  0.00  0.00    +0.000 A 
ATOM     18 CL   UNL     1       8.271   5.552  12.596  0.00  0.00    +0.000 Cl
ATOM     19  C   UNL     1       7.015   5.461  14.985  0.00  0.00    +0.000 A 
ENDBRANCH   1  13
BRANCH   1  20
ATOM     20  C   UNL     1       7.293   5.387  18.036  0.00  0.00    +0.000 C 
BRANCH  20  21
ATOM     21  C   UNL     1       7.708   6.773  18.538  0.00  0.00    +0.000 C 
BRANCH  21  22
ATOM     22  C   UNL     1       7.953   7.793  17.417  0.00  0.00    +0.000 C 
BRANCH  22  23
ATOM     23  C   UNL     1       7.888   9.196  18.030  0.00  0.00    +0.000 C 
BRANCH  23  24
ATOM     24  C   UNL     1       9.250   9.808  18.349  0.00  0.00    +0.000 C 
BRANCH  24  25
ATOM     25  C   UNL     1       9.121  11.226  18.963  0.00  0.00    +0.000 C 
ATOM     26  C   UNL     1      10.073  11.488  20.146  0.00  0.00    +0.000 C 
ATOM     27  C   UNL     1      11.536  11.554  19.715  0.00  0.00    +0.000 C 
ATOM     28  C   UNL     1      11.747  12.593  18.617  0.00  0.00    +0.000 C 
ATOM     29  C   UNL     1      10.793  12.400  17.439  0.00  0.00    +0.000 C 
ATOM     30  C   UNL     1       9.337  12.313  17.898  0.00  0.00    +0.000 C 
ENDBRANCH  24  25
ENDBRANCH  23  24
ENDBRANCH  22  23
ENDBRANCH  21  22
ENDBRANCH  20  21
ENDBRANCH   1  20
TORSDOF 8
ENDMDL
MODEL 9
REMARK VINA RESULT:      -8.6      3.696      7.871
REMARK  Name = 
REMARK  9 active torsions:
REMARK  status: ('A' for Active; 'I' for Inactive)
REMARK    1  A    between atoms: C_1  and  N_2
REMARK    2  A    between atoms: C_4  and  N_5
REMARK    3  A    between atoms: N_5  and  C_6
REMARK    4  A    between atoms: N_5  and  C_17
REMARK    5  A    between atoms: C_6  and  C_7
REMARK    6  A    between atoms: C_7  and  C_8
REMARK    7  A    between atoms: C_8  and  C_9
REMARK    8  A    between atoms: C_9  and  C_10
REMARK    9  A    between atoms: C_10  and  C_11
REMARK                            x       y       z     vdW  Elec       q    Type
REMARK                         _______ _______ _______ _____ _____    ______ ____
ROOT
ATOM      1  N   UNL     1       3.030   5.864  18.486  0.00  0.00    +0.000 N 
ENDROOT
BRANCH   1   5
ATOM      2  C   UNL     1       7.658   7.165  17.481  0.00  0.00    +0.000 C 
ATOM      3  N   UNL     1       6.442   6.426  17.075  0.00  0.00    +0.000 N 
ATOM      4  C   UNL     1       5.346   6.516  17.874  0.00  0.00    +0.000 A 
ATOM      5  C   UNL     1       4.153   5.842  17.612  0.00  0.00    +0.000 A 
ATOM      6  C   UNL     1       4.136   5.081  16.435  0.00  0.00    +0.000 A 
ATOM      7  C   UNL     1       5.263   4.955  15.609  0.00  0.00    +0.000 A 
ATOM      8  C   UNL     1       5.242   4.142  14.465  0.00  0.00    +0.000 A 
ATOM      9  C   UNL     1       6.375   4.005  13.658  0.00  0.00    +0.000 A 
ATOM     10  C   UNL     1       7.538   4.692  13.981  0.00  0.00    +0.000 A 
ATOM     11  C   UNL     1       7.574   5.509  15.114  0.00  0.00    +0.000 A 
ATOM     12  C   UNL     1       6.445   5.655  15.947  0.00  0.00    +0.000 A 
ENDBRANCH   1   5
BRANCH   1  13
ATOM     13  C   UNL     1       2.294   4.719  18.927  0.00  0.00    +0.000 A 
ATOM     14  C   UNL     1       1.476   4.006  18.032  0.00  0.00    +0.000 A 
ATOM     15  C   UNL     1       0.713   2.904  18.439  0.00  0.00    +0.000 A 
ATOM     16  C   UNL     1       0.754   2.477  19.763  0.00  0.00    +0.000 A 
ATOM     17  C   UNL     1       1.573   3.145  20.662  0.00  0.00    +0.000 A 
ATOM     18 CL   UNL     1       1.642   2.631  22.304  0.00  0.00    +0.000 Cl
ATOM     19  C   UNL     1       2.339   4.242  20.251  0.00  0.00    +0.000 A 
ENDBRANCH   1  13
BRANCH   1  20
ATOM     20  C   UNL     1       2.498   7.174  18.960  0.00  0.00    +0.000 C 
BRANCH  20  21
ATOM     21  C   UNL     1       2.143   8.083  17.781  0.00  0.00    +0.000 C 
BRANCH  21  22
ATOM     22  C   UNL     1       1.902   9.548  18.174  0.00  0.00    +0.000 C 
BRANCH  22  23
ATOM     23  C   UNL     1       0.396   9.818  18.096  0.00  0.00    +0.000 C 
BRANCH  23  24
ATOM     24  C   UNL     1      -0.296   9.927  19.453  0.00  0.00    +0.000 C 
BRANCH  24  25
ATOM     25  C   UNL     1       0.695  10.307  20.583  0.00  0.00    +0.000 C 
ATOM     26  C   UNL     1       0.349  11.622  21.306  0.00  0.00    +0.000 C 
ATOM     27  C   UNL     1      -0.924  11.512  22.142  0.00  0.00    +0.000 C 
ATOM     28  C   UNL     1      -0.839  10.359  23.138  0.00  0.00    +0.000 C 
ATOM     29  C   UNL     1      -0.455   9.039  22.471  0.00  0.00    +0.000 C 
ATOM     30  C   UNL     1       0.808   9.180  21.622  0.00  0.00    +0.000 C 
ENDBRANCH  24  25
ENDBRANCH  23  24
ENDBRANCH  22  23
ENDBRANCH  21  22
ENDBRANCH  20  21
ENDBRANCH   1  20
TORSDOF 8
ENDMDL
