MODEL 1
REMARK VINA RESULT:      -6.4      0.000      0.000
REMARK  Name = 
REMARK  4 active torsions:
REMARK  status: ('A' for Active; 'I' for Inactive)
REMARK    1  A    between atoms: C_1  and  C_2
REMARK    2  A    between atoms: C_2  and  N_3
REMARK    3  A    between atoms: C_11  and  C_12
REMARK    4  A    between atoms: C_14  and  C_15
REMARK                            x       y       z     vdW  Elec       q    Type
REMARK                         _______ _______ _______ _____ _____    ______ ____
ROOT
ATOM      1  N   UNL     1       2.519   5.606  20.185  0.00  0.00    +0.000 N 
ATOM      2  C   UNL     1       3.350   5.561  19.070  0.00  0.00    +0.000 A 
ATOM      3  C   UNL     1       4.190   4.547  18.614  0.00  0.00    +0.000 A 
ATOM      4  C   UNL     1       4.860   4.787  17.412  0.00  0.00    +0.000 A 
ATOM      5  C   UNL     1       4.696   5.992  16.713  0.00  0.00    +0.000 A 
ATOM      6  C   UNL     1       3.870   7.022  17.187  0.00  0.00    +0.000 A 
ATOM      7  C   UNL     1       3.195   6.790  18.385  0.00  0.00    +0.000 A 
ATOM      8  N   UNL     1       2.318   7.528  19.164  0.00  0.00    +0.000 N 
ATOM      9  C   UNL     1       1.772   8.904  18.995  0.00  0.00    +0.000 A 
ATOM     10  C   UNL     1       2.039   9.853  17.873  0.00  0.00    +0.000 C 
ATOM     11  C   UNL     1       0.921   9.309  20.019  0.00  0.00    +0.000 A 
ATOM     12  C   UNL     1       0.645   8.450  21.072  0.00  0.00    +0.000 A 
ATOM     13  C   UNL     1      -0.267   8.905  22.178  0.00  0.00    +0.000 C 
ATOM     14  N   UNL     1       1.151   7.209  21.172  0.00  0.00    +0.000 NA
ATOM     15  C   UNL     1       1.956   6.810  20.226  0.00  0.00    +0.000 A 
ENDROOT
BRANCH   1  17
ATOM     16  C   UNL     1       1.149   3.612  20.646  0.00  0.00    +0.000 C 
ATOM     17  C   UNL     1       2.257   4.527  21.129  0.00  0.00    +0.000 C 
ENDBRANCH   1  17
TORSDOF 1
ENDMDL
MODEL 2
REMARK VINA RESULT:      -6.3      1.991      4.625
REMARK  Name = 
REMARK  4 active torsions:
REMARK  status: ('A' for Active; 'I' for Inactive)
REMARK    1  A    between atoms: C_1  and  C_2
REMARK    2  A    between atoms: C_2  and  N_3
REMARK    3  A    between atoms: C_11  and  C_12
REMARK    4  A    between atoms: C_14  and  C_15
REMARK                            x       y       z     vdW  Elec       q    Type
REMARK                         _______ _______ _______ _____ _____    ______ ____
ROOT
ATOM      1  N   UNL     1       3.272   5.909  18.615  0.00  0.00    +0.000 N 
ATOM      2  C   UNL     1       4.040   5.759  17.464  0.00  0.00    +0.000 A 
ATOM      3  C   UNL     1       4.547   6.719  16.590  0.00  0.00    +0.000 A 
ATOM      4  C   UNL     1       5.342   6.249  15.542  0.00  0.00    +0.000 A 
ATOM      5  C   UNL     1       5.604   4.879  15.382  0.00  0.00    +0.000 A 
ATOM      6  C   UNL     1       5.071   3.913  16.248  0.00  0.00    +0.000 A 
ATOM      7  C   UNL     1       4.278   4.374  17.299  0.00  0.00    +0.000 A 
ATOM      8  N   UNL     1       3.588   3.764  18.334  0.00  0.00    +0.000 N 
ATOM      9  C   UNL     1       3.429   2.328  18.699  0.00  0.00    +0.000 A 
ATOM     10  C   UNL     1       4.030   1.147  18.009  0.00  0.00    +0.000 C 
ATOM     11  C   UNL     1       2.626   2.109  19.814  0.00  0.00    +0.000 A 
ATOM     12  C   UNL     1       2.060   3.183  20.483  0.00  0.00    +0.000 A 
ATOM     13  C   UNL     1       1.184   2.931  21.680  0.00  0.00    +0.000 C 
ATOM     14  N   UNL     1       2.245   4.465  20.123  0.00  0.00    +0.000 NA
ATOM     15  C   UNL     1       2.990   4.694  19.078  0.00  0.00    +0.000 A 
ENDROOT
BRANCH   1  17
ATOM     16  C   UNL     1       2.065   8.034  18.314  0.00  0.00    +0.000 C 
ATOM     17  C   UNL     1       2.874   7.159  19.249  0.00  0.00    +0.000 C 
ENDBRANCH   1  17
TORSDOF 1
ENDMDL
MODEL 3
REMARK VINA RESULT:      -6.2      2.501      5.317
REMARK  Name = 
REMARK  4 active torsions:
REMARK  status: ('A' for Active; 'I' for Inactive)
REMARK    1  A    between atoms: C_1  and  C_2
REMARK    2  A    between atoms: C_2  and  N_3
REMARK    3  A    between atoms: C_11  and  C_12
REMARK    4  A    between atoms: C_14  and  C_15
REMARK                            x       y       z     vdW  Elec       q    Type
REMARK                         _______ _______ _______ _____ _____    ______ ____
ROOT
ATOM      1  N   UNL     1       3.148   3.317  17.862  0.00  0.00    +0.000 N 
ATOM      2  C   UNL     1       2.557   4.148  18.808  0.00  0.00    +0.000 A 
ATOM      3  C   UNL     1       1.612   3.862  19.792  0.00  0.00    +0.000 A 
ATOM      4  C   UNL     1       1.254   4.915  20.637  0.00  0.00    +0.000 A 
ATOM      5  C   UNL     1       1.816   6.193  20.489  0.00  0.00    +0.000 A 
ATOM      6  C   UNL     1       2.747   6.485  19.482  0.00  0.00    +0.000 A 
ATOM      7  C   UNL     1       3.112   5.438  18.636  0.00  0.00    +0.000 A 
ATOM      8  N   UNL     1       3.968   5.320  17.553  0.00  0.00    +0.000 N 
ATOM      9  C   UNL     1       4.833   6.322  16.868  0.00  0.00    +0.000 A 
ATOM     10  C   UNL     1       5.005   7.763  17.223  0.00  0.00    +0.000 C 
ATOM     11  C   UNL     1       5.543   5.815  15.783  0.00  0.00    +0.000 A 
ATOM     12  C   UNL     1       5.413   4.481  15.431  0.00  0.00    +0.000 A 
ATOM     13  C   UNL     1       6.177   3.950  14.249  0.00  0.00    +0.000 C 
ATOM     14  N   UNL     1       4.630   3.611  16.091  0.00  0.00    +0.000 NA
ATOM     15  C   UNL     1       3.951   4.064  17.108  0.00  0.00    +0.000 A 
ENDROOT
BRANCH   1  17
ATOM     16  C   UNL     1       3.855   1.111  18.696  0.00  0.00    +0.000 C 
ATOM     17  C   UNL     1       2.977   1.877  17.728  0.00  0.00    +0.000 C 
ENDBRANCH   1  17
TORSDOF 1
ENDMDL
MODEL 4
REMARK VINA RESULT:      -6.0      2.296      5.272
REMARK  Name = 
REMARK  4 active torsions:
REMARK  status: ('A' for Active; 'I' for Inactive)
REMARK    1  A    between atoms: C_1  and  C_2
REMARK    2  A    between atoms: C_2  and  N_3
REMARK    3  A    between atoms: C_11  and  C_12
REMARK    4  A    between atoms: C_14  and  C_15
REMARK                            x       y       z     vdW  Elec       q    Type
REMARK                         _______ _______ _______ _____ _____    ______ ____
ROOT
ATOM      1  N   UNL     1       5.273   4.931  18.340  0.00  0.00    +0.000 N 
ATOM      2  C   UNL     1       4.399   5.993  18.131  0.00  0.00    +0.000 A 
ATOM      3  C   UNL     1       4.564   7.161  17.389  0.00  0.00    +0.000 A 
ATOM      4  C   UNL     1       3.463   8.018  17.324  0.00  0.00    +0.000 A 
ATOM      5  C   UNL     1       2.261   7.714  17.982  0.00  0.00    +0.000 A 
ATOM      6  C   UNL     1       2.106   6.551  18.749  0.00  0.00    +0.000 A 
ATOM      7  C   UNL     1       3.200   5.687  18.817  0.00  0.00    +0.000 A 
ATOM      8  N   UNL     1       3.445   4.479  19.449  0.00  0.00    +0.000 N 
ATOM      9  C   UNL     1       2.589   3.641  20.336  0.00  0.00    +0.000 A 
ATOM     10  C   UNL     1       1.181   3.913  20.755  0.00  0.00    +0.000 C 
ATOM     11  C   UNL     1       3.210   2.487  20.802  0.00  0.00    +0.000 A 
ATOM     12  C   UNL     1       4.513   2.200  20.426  0.00  0.00    +0.000 A 
ATOM     13  C   UNL     1       5.176   0.954  20.947  0.00  0.00    +0.000 C 
ATOM     14  N   UNL     1       5.240   2.981  19.610  0.00  0.00    +0.000 NA
ATOM     15  C   UNL     1       4.681   4.072  19.165  0.00  0.00    +0.000 A 
ENDROOT
BRANCH   1  17
ATOM     16  C   UNL     1       7.669   5.477  18.508  0.00  0.00    +0.000 C 
ATOM     17  C   UNL     1       6.588   4.744  17.740  0.00  0.00    +0.000 C 
ENDBRANCH   1  17
TORSDOF 1
ENDMDL
MODEL 5
REMARK VINA RESULT:      -6.0      2.281      5.244
REMARK  Name = 
REMARK  4 active torsions:
REMARK  status: ('A' for Active; 'I' for Inactive)
REMARK    1  A    between atoms: C_1  and  C_2
REMARK    2  A    between atoms: C_2  and  N_3
REMARK    3  A    between atoms: C_11  and  C_12
REMARK    4  A    between atoms: C_14  and  C_15
REMARK                            x       y       z     vdW  Elec       q    Type
REMARK                         _______ _______ _______ _____ _____    ______ ____
ROOT
ATOM      1  N   UNL     1       3.346   6.041  18.646  0.00  0.00    +0.000 N 
ATOM      2  C   UNL     1       2.761   4.792  18.464  0.00  0.00    +0.000 A 
ATOM      3  C   UNL     1       1.571   4.273  18.972  0.00  0.00    +0.000 A 
ATOM      4  C   UNL     1       1.223   2.987  18.553  0.00  0.00    +0.000 A 
ATOM      5  C   UNL     1       2.040   2.260  17.672  0.00  0.00    +0.000 A 
ATOM      6  C   UNL     1       3.249   2.774  17.182  0.00  0.00    +0.000 A 
ATOM      7  C   UNL     1       3.603   4.059  17.594  0.00  0.00    +0.000 A 
ATOM      8  N   UNL     1       4.681   4.895  17.348  0.00  0.00    +0.000 N 
ATOM      9  C   UNL     1       5.909   4.700  16.527  0.00  0.00    +0.000 A 
ATOM     10  C   UNL     1       6.275   3.501  15.714  0.00  0.00    +0.000 C 
ATOM     11  C   UNL     1       6.784   5.782  16.546  0.00  0.00    +0.000 A 
ATOM     12  C   UNL     1       6.472   6.914  17.283  0.00  0.00    +0.000 A 
ATOM     13  C   UNL     1       7.433   8.071  17.303  0.00  0.00    +0.000 C 
ATOM     14  N   UNL     1       5.341   7.048  17.996  0.00  0.00    +0.000 NA
ATOM     15  C   UNL     1       4.508   6.045  17.997  0.00  0.00    +0.000 A 
ENDROOT
BRANCH   1  17
ATOM     16  C   UNL     1       2.100   8.154  18.440  0.00  0.00    +0.000 C 
ATOM     17  C   UNL     1       2.789   7.175  19.369  0.00  0.00    +0.000 C 
ENDBRANCH   1  17
TORSDOF 1
ENDMDL
MODEL 6
REMARK VINA RESULT:      -5.9      2.057      3.630
REMARK  Name = 
REMARK  4 active torsions:
REMARK  status: ('A' for Active; 'I' for Inactive)
REMARK    1  A    between atoms: C_1  and  C_2
REMARK    2  A    between atoms: C_2  and  N_3
REMARK    3  A    between atoms: C_11  and  C_12
REMARK    4  A    between atoms: C_14  and  C_15
REMARK                            x       y       z     vdW  Elec       q    Type
REMARK                         _______ _______ _______ _____ _____    ______ ____
ROOT
ATOM      1  N   UNL     1       3.715   3.200  17.822  0.00  0.00    +0.000 N 
ATOM      2  C   UNL     1       4.271   4.253  17.101  0.00  0.00    +0.000 A 
ATOM      3  C   UNL     1       5.091   4.238  15.974  0.00  0.00    +0.000 A 
ATOM      4  C   UNL     1       5.441   5.481  15.443  0.00  0.00    +0.000 A 
ATOM      5  C   UNL     1       4.991   6.677  16.024  0.00  0.00    +0.000 A 
ATOM      6  C   UNL     1       4.188   6.690  17.173  0.00  0.00    +0.000 A 
ATOM      7  C   UNL     1       3.831   5.452  17.710  0.00  0.00    +0.000 A 
ATOM      8  N   UNL     1       3.079   5.048  18.801  0.00  0.00    +0.000 N 
ATOM      9  C   UNL     1       2.361   5.832  19.846  0.00  0.00    +0.000 A 
ATOM     10  C   UNL     1       2.262   7.318  19.954  0.00  0.00    +0.000 C 
ATOM     11  C   UNL     1       1.726   5.051  20.807  0.00  0.00    +0.000 A 
ATOM     12  C   UNL     1       1.791   3.668  20.732  0.00  0.00    +0.000 A 
ATOM     13  C   UNL     1       1.110   2.838  21.785  0.00  0.00    +0.000 C 
ATOM     14  N   UNL     1       2.440   3.006  19.759  0.00  0.00    +0.000 NA
ATOM     15  C   UNL     1       3.047   3.717  18.850  0.00  0.00    +0.000 A 
ENDROOT
BRANCH   1  17
ATOM     16  C   UNL     1       4.258   0.961  18.690  0.00  0.00    +0.000 C 
ATOM     17  C   UNL     1       3.793   1.780  17.504  0.00  0.00    +0.000 C 
ENDBRANCH   1  17
TORSDOF 1
ENDMDL
MODEL 7
REMARK VINA RESULT:      -5.7      1.414      1.750
REMARK  Name = 
REMARK  4 active torsions:
REMARK  status: ('A' for Active; 'I' for Inactive)
REMARK    1  A    between atoms: C_1  and  C_2
REMARK    2  A    between atoms: C_2  and  N_3
REMARK    3  A    between atoms: C_11  and  C_12
REMARK    4  A    between atoms: C_14  and  C_15
REMARK                            x       y       z     vdW  Elec       q    Type
REMARK                         _______ _______ _______ _____ _____    ______ ____
ROOT
ATOM      1  N   UNL     1       1.963   4.235  20.059  0.00  0.00    +0.000 N 
ATOM      2  C   UNL     1       2.759   3.833  18.992  0.00  0.00    +0.000 A 
ATOM      3  C   UNL     1       3.174   2.559  18.609  0.00  0.00    +0.000 A 
ATOM      4  C   UNL     1       3.932   2.476  17.439  0.00  0.00    +0.000 A 
ATOM      5  C   UNL     1       4.259   3.623  16.698  0.00  0.00    +0.000 A 
ATOM      6  C   UNL     1       3.862   4.907  17.098  0.00  0.00    +0.000 A 
ATOM      7  C   UNL     1       3.102   4.998  18.265  0.00  0.00    +0.000 A 
ATOM      8  N   UNL     1       2.536   6.045  18.975  0.00  0.00    +0.000 N 
ATOM      9  C   UNL     1       2.552   7.516  18.739  0.00  0.00    +0.000 A 
ATOM     10  C   UNL     1       3.199   8.244  17.606  0.00  0.00    +0.000 C 
ATOM     11  C   UNL     1       1.876   8.255  19.705  0.00  0.00    +0.000 A 
ATOM     12  C   UNL     1       1.257   7.611  20.765  0.00  0.00    +0.000 A 
ATOM     13  C   UNL     1       0.540   8.424  21.808  0.00  0.00    +0.000 C 
ATOM     14  N   UNL     1       1.258   6.277  20.926  0.00  0.00    +0.000 NA
ATOM     15  C   UNL     1       1.890   5.564  20.036  0.00  0.00    +0.000 A 
ENDROOT
BRANCH   1  17
ATOM     16  C   UNL     1       2.249   2.711  21.972  0.00  0.00    +0.000 C 
ATOM     17  C   UNL     1       1.279   3.377  21.017  0.00  0.00    +0.000 C 
ENDBRANCH   1  17
TORSDOF 1
ENDMDL
MODEL 8
REMARK VINA RESULT:      -5.6      2.208      4.750
REMARK  Name = 
REMARK  4 active torsions:
REMARK  status: ('A' for Active; 'I' for Inactive)
REMARK    1  A    between atoms: C_1  and  C_2
REMARK    2  A    between atoms: C_2  and  N_3
REMARK    3  A    between atoms: C_11  and  C_12
REMARK    4  A    between atoms: C_14  and  C_15
REMARK                            x       y       z     vdW  Elec       q    Type
REMARK                         _______ _______ _______ _____ _____    ______ ____
ROOT
ATOM      1  N   UNL     1       3.547   6.100  17.925  0.00  0.00    +0.000 N 
ATOM      2  C   UNL     1       4.937   6.109  17.915  0.00  0.00    +0.000 A 
ATOM      3  C   UNL     1       5.828   7.042  17.387  0.00  0.00    +0.000 A 
ATOM      4  C   UNL     1       7.187   6.792  17.591  0.00  0.00    +0.000 A 
ATOM      5  C   UNL     1       7.623   5.653  18.286  0.00  0.00    +0.000 A 
ATOM      6  C   UNL     1       6.726   4.702  18.795  0.00  0.00    +0.000 A 
ATOM      7  C   UNL     1       5.367   4.945  18.597  0.00  0.00    +0.000 A 
ATOM      8  N   UNL     1       4.202   4.273  18.929  0.00  0.00    +0.000 N 
ATOM      9  C   UNL     1       3.980   2.980  19.638  0.00  0.00    +0.000 A 
ATOM     10  C   UNL     1       5.019   2.070  20.206  0.00  0.00    +0.000 C 
ATOM     11  C   UNL     1       2.642   2.622  19.763  0.00  0.00    +0.000 A 
ATOM     12  C   UNL     1       1.651   3.448  19.254  0.00  0.00    +0.000 A 
ATOM     13  C   UNL     1       0.209   3.042  19.386  0.00  0.00    +0.000 C 
ATOM     14  N   UNL     1       1.902   4.614  18.635  0.00  0.00    +0.000 NA
ATOM     15  C   UNL     1       3.150   4.968  18.502  0.00  0.00    +0.000 A 
ENDROOT
BRANCH   1  17
ATOM     16  C   UNL     1       2.333   8.156  18.526  0.00  0.00    +0.000 C 
ATOM     17  C   UNL     1       2.658   7.149  17.442  0.00  0.00    +0.000 C 
ENDBRANCH   1  17
TORSDOF 1
ENDMDL
MODEL 9
REMARK VINA RESULT:      -5.6      1.198      3.651
REMARK  Name = 
REMARK  4 active torsions:
REMARK  status: ('A' for Active; 'I' for Inactive)
REMARK    1  A    between atoms: C_1  and  C_2
REMARK    2  A    between atoms: C_2  and  N_3
REMARK    3  A    between atoms: C_11  and  C_12
REMARK    4  A    between atoms: C_14  and  C_15
REMARK                            x       y       z     vdW  Elec       q    Type
REMARK                         _______ _______ _______ _____ _____    ______ ____
ROOT
ATOM      1  N   UNL     1       3.489   5.866  18.161  0.00  0.00    +0.000 N 
ATOM      2  C   UNL     1       3.239   4.841  19.067  0.00  0.00    +0.000 A 
ATOM      3  C   UNL     1       3.664   3.513  19.063  0.00  0.00    +0.000 A 
ATOM      4  C   UNL     1       3.287   2.736  20.161  0.00  0.00    +0.000 A 
ATOM      5  C   UNL     1       2.515   3.271  21.204  0.00  0.00    +0.000 A 
ATOM      6  C   UNL     1       2.068   4.600  21.194  0.00  0.00    +0.000 A 
ATOM      7  C   UNL     1       2.442   5.384  20.102  0.00  0.00    +0.000 A 
ATOM      8  N   UNL     1       2.210   6.697  19.726  0.00  0.00    +0.000 N 
ATOM      9  C   UNL     1       1.428   7.785  20.381  0.00  0.00    +0.000 A 
ATOM     10  C   UNL     1       0.691   7.715  21.678  0.00  0.00    +0.000 C 
ATOM     11  C   UNL     1       1.413   8.981  19.670  0.00  0.00    +0.000 A 
ATOM     12  C   UNL     1       2.093   9.083  18.467  0.00  0.00    +0.000 A 
ATOM     13  C   UNL     1       2.058  10.379  17.705  0.00  0.00    +0.000 C 
ATOM     14  N   UNL     1       2.798   8.076  17.924  0.00  0.00    +0.000 NA
ATOM     15  C   UNL     1       2.823   6.943  18.570  0.00  0.00    +0.000 A 
ENDROOT
BRANCH   1  17
ATOM     16  C   UNL     1       5.793   6.157  17.341  0.00  0.00    +0.000 C 
ATOM     17  C   UNL     1       4.358   5.814  16.993  0.00  0.00    +0.000 C 
ENDBRANCH   1  17
TORSDOF 1
ENDMDL
