MODEL 1
REMARK VINA RESULT:      -7.8      0.000      0.000
REMARK  Name = 
REMARK  3 active torsions:
REMARK  status: ('A' for Active; 'I' for Inactive)
REMARK    1  A    between atoms: O_1  and  C_2
REMARK    2  A    between atoms: C_2  and  C_3
REMARK    3  A    between atoms: N_7  and  C_8
REMARK                            x       y       z     vdW  Elec       q    Type
REMARK                         _______ _______ _______ _____ _____    ______ ____
ROOT
ATOM      1  C   UNL     1       3.601   5.795  19.551  0.00  0.00    +0.000 C 
ATOM      2  C   UNL     1       2.731   7.072  19.461  0.00  0.00    +0.000 C 
ATOM      3  C   UNL     1       2.312   7.447  18.046  0.00  0.00    +0.000 C 
ATOM      4  C   UNL     1       3.507   7.602  17.115  0.00  0.00    +0.000 C 
ATOM      5  C   UNL     1       4.627   6.620  17.343  0.00  0.00    +0.000 A 
ATOM      6  C   UNL     1       5.669   6.580  16.396  0.00  0.00    +0.000 A 
ATOM      7  C   UNL     1       6.780   5.765  16.594  0.00  0.00    +0.000 A 
ATOM      8  C   UNL     1       6.860   4.988  17.740  0.00  0.00    +0.000 A 
ATOM      9  F   UNL     1       7.940   4.224  17.944  0.00  0.00    +0.000 F 
ATOM     10  C   UNL     1       5.838   4.998  18.682  0.00  0.00    +0.000 A 
ATOM     11  C   UNL     1       4.705   5.812  18.497  0.00  0.00    +0.000 A 
ENDROOT
BRANCH   1  16
ATOM     12  C   UNL     1       0.880   3.209  20.403  0.00  0.00    +0.000 C 
ATOM     13  C   UNL     1       0.794   2.508  19.041  0.00  0.00    +0.000 C 
ATOM     14  C   UNL     1       2.166   2.430  18.382  0.00  0.00    +0.000 C 
ATOM     15  C   UNL     1       2.783   3.823  18.282  0.00  0.00    +0.000 C 
ATOM     16  N   UNL     1       2.902   4.481  19.591  0.00  0.00    +0.000 NA
ATOM     17  C   UNL     1       1.592   4.569  20.260  0.00  0.00    +0.000 C 
BRANCH  12  18
ATOM     18  C   UNL     1       1.544   2.327  21.465  0.00  0.00    +0.000 C 
BRANCH  18  19
ATOM     19  O   UNL     1       2.441   3.120  22.241  0.00  0.00    +0.000 OA
ATOM     20  H   UNL     1       2.527   2.686  23.107  0.00  0.00    +0.000 HD
ENDBRANCH  18  19
ENDBRANCH  12  18
ENDBRANCH   1  16
TORSDOF 3
ENDMDL
MODEL 2
REMARK VINA RESULT:      -7.7      2.896      5.573
REMARK  Name = 
REMARK  3 active torsions:
REMARK  status: ('A' for Active; 'I' for Inactive)
REMARK    1  A    between atoms: O_1  and  C_2
REMARK    2  A    between atoms: C_2  and  C_3
REMARK    3  A    between atoms: N_7  and  C_8
REMARK                            x       y       z     vdW  Elec       q    Type
REMARK                         _______ _______ _______ _____ _____    ______ ____
ROOT
ATOM      1  C   UNL     1       3.039   5.684  17.904  0.00  0.00    +0.000 C 
ATOM      2  C   UNL     1       2.472   7.095  18.185  0.00  0.00    +0.000 C 
ATOM      3  C   UNL     1       2.410   7.464  19.661  0.00  0.00    +0.000 C 
ATOM      4  C   UNL     1       1.620   6.449  20.475  0.00  0.00    +0.000 C 
ATOM      5  C   UNL     1       1.802   5.013  20.056  0.00  0.00    +0.000 A 
ATOM      6  C   UNL     1       1.259   4.012  20.885  0.00  0.00    +0.000 A 
ATOM      7  C   UNL     1       1.308   2.672  20.510  0.00  0.00    +0.000 A 
ATOM      8  C   UNL     1       1.895   2.324  19.302  0.00  0.00    +0.000 A 
ATOM      9  F   UNL     1       1.919   1.038  18.928  0.00  0.00    +0.000 F 
ATOM     10  C   UNL     1       2.451   3.291  18.473  0.00  0.00    +0.000 A 
ATOM     11  C   UNL     1       2.416   4.649  18.838  0.00  0.00    +0.000 A 
ENDROOT
BRANCH   1  16
ATOM     12  C   UNL     1       6.648   6.306  16.719  0.00  0.00    +0.000 C 
ATOM     13  C   UNL     1       7.343   6.301  18.088  0.00  0.00    +0.000 C 
ATOM     14  C   UNL     1       6.691   5.292  19.025  0.00  0.00    +0.000 C 
ATOM     15  C   UNL     1       5.193   5.565  19.134  0.00  0.00    +0.000 C 
ATOM     16  N   UNL     1       4.518   5.532  17.829  0.00  0.00    +0.000 NA
ATOM     17  C   UNL     1       5.128   6.494  16.893  0.00  0.00    +0.000 C 
BRANCH  12  18
ATOM     18  C   UNL     1       6.977   5.053  15.900  0.00  0.00    +0.000 C 
BRANCH  18  19
ATOM     19  O   UNL     1       7.689   5.434  14.724  0.00  0.00    +0.000 OA
ATOM     20  H   UNL     1       7.126   5.206  13.965  0.00  0.00    +0.000 HD
ENDBRANCH  18  19
ENDBRANCH  12  18
ENDBRANCH   1  16
TORSDOF 3
ENDMDL
MODEL 3
REMARK VINA RESULT:      -7.2      2.377      5.002
REMARK  Name = 
REMARK  3 active torsions:
REMARK  status: ('A' for Active; 'I' for Inactive)
REMARK    1  A    between atoms: O_1  and  C_2
REMARK    2  A    between atoms: C_2  and  C_3
REMARK    3  A    between atoms: N_7  and  C_8
REMARK                            x       y       z     vdW  Elec       q    Type
REMARK                         _______ _______ _______ _____ _____    ______ ____
ROOT
ATOM      1  C   UNL     1       3.058   5.822  17.848  0.00  0.00    +0.000 C 
ATOM      2  C   UNL     1       2.432   7.192  18.201  0.00  0.00    +0.000 C 
ATOM      3  C   UNL     1       2.410   7.506  19.691  0.00  0.00    +0.000 C 
ATOM      4  C   UNL     1       1.706   6.424  20.497  0.00  0.00    +0.000 C 
ATOM      5  C   UNL     1       1.943   5.014  20.020  0.00  0.00    +0.000 A 
ATOM      6  C   UNL     1       1.485   3.959  20.832  0.00  0.00    +0.000 A 
ATOM      7  C   UNL     1       1.587   2.637  20.408  0.00  0.00    +0.000 A 
ATOM      8  C   UNL     1       2.142   2.361  19.167  0.00  0.00    +0.000 A 
ATOM      9  F   UNL     1       2.215   1.092  18.746  0.00  0.00    +0.000 F 
ATOM     10  C   UNL     1       2.615   3.383  18.353  0.00  0.00    +0.000 A 
ATOM     11  C   UNL     1       2.526   4.725  18.767  0.00  0.00    +0.000 A 
ENDROOT
BRANCH   1  16
ATOM     12  C   UNL     1       6.668   4.681  18.545  0.00  0.00    +0.000 C 
ATOM     13  C   UNL     1       7.154   4.558  17.094  0.00  0.00    +0.000 C 
ATOM     14  C   UNL     1       6.530   5.638  16.218  0.00  0.00    +0.000 C 
ATOM     15  C   UNL     1       5.009   5.592  16.328  0.00  0.00    +0.000 C 
ATOM     16  N   UNL     1       4.539   5.749  17.712  0.00  0.00    +0.000 NA
ATOM     17  C   UNL     1       5.127   4.722  18.590  0.00  0.00    +0.000 C 
BRANCH  12  18
ATOM     18  C   UNL     1       7.291   5.883  19.262  0.00  0.00    +0.000 C 
BRANCH  18  19
ATOM     19  O   UNL     1       7.937   5.436  20.453  0.00  0.00    +0.000 OA
ATOM     20  H   UNL     1       7.309   5.568  21.184  0.00  0.00    +0.000 HD
ENDBRANCH  18  19
ENDBRANCH  12  18
ENDBRANCH   1  16
TORSDOF 3
ENDMDL
MODEL 4
REMARK VINA RESULT:      -6.8      2.253      5.126
REMARK  Name = 
REMARK  3 active torsions:
REMARK  status: ('A' for Active; 'I' for Inactive)
REMARK    1  A    between atoms: O_1  and  C_2
REMARK    2  A    between atoms: C_2  and  C_3
REMARK    3  A    between atoms: N_7  and  C_8
REMARK                            x       y       z     vdW  Elec       q    Type
REMARK                         _______ _______ _______ _____ _____    ______ ____
ROOT
ATOM      1  C   UNL     1       3.086   5.843  17.828  0.00  0.00    +0.000 C 
ATOM      2  C   UNL     1       2.314   7.143  18.157  0.00  0.00    +0.000 C 
ATOM      3  C   UNL     1       2.267   7.486  19.640  0.00  0.00    +0.000 C 
ATOM      4  C   UNL     1       1.693   6.350  20.475  0.00  0.00    +0.000 C 
ATOM      5  C   UNL     1       2.082   4.965  20.026  0.00  0.00    +0.000 A 
ATOM      6  C   UNL     1       1.749   3.884  20.864  0.00  0.00    +0.000 A 
ATOM      7  C   UNL     1       1.994   2.572  20.466  0.00  0.00    +0.000 A 
ATOM      8  C   UNL     1       2.568   2.332  19.227  0.00  0.00    +0.000 A 
ATOM      9  F   UNL     1       2.779   1.070  18.832  0.00  0.00    +0.000 F 
ATOM     10  C   UNL     1       2.919   3.383  18.387  0.00  0.00    +0.000 A 
ATOM     11  C   UNL     1       2.684   4.715  18.774  0.00  0.00    +0.000 A 
ENDROOT
BRANCH   1  16
ATOM     12  C   UNL     1       6.623   4.948  16.602  0.00  0.00    +0.000 C 
ATOM     13  C   UNL     1       7.137   6.368  16.325  0.00  0.00    +0.000 C 
ATOM     14  C   UNL     1       6.583   7.355  17.345  0.00  0.00    +0.000 C 
ATOM     15  C   UNL     1       5.059   7.283  17.376  0.00  0.00    +0.000 C 
ATOM     16  N   UNL     1       4.565   5.932  17.680  0.00  0.00    +0.000 NA
ATOM     17  C   UNL     1       5.085   4.948  16.714  0.00  0.00    +0.000 C 
BRANCH  12  18
ATOM     18  C   UNL     1       7.284   4.327  17.837  0.00  0.00    +0.000 C 
BRANCH  18  19
ATOM     19  O   UNL     1       6.272   3.938  18.765  0.00  0.00    +0.000 OA
ATOM     20  H   UNL     1       5.418   4.198  18.380  0.00  0.00    +0.000 HD
ENDBRANCH  18  19
ENDBRANCH  12  18
ENDBRANCH   1  16
TORSDOF 3
ENDMDL
MODEL 5
REMARK VINA RESULT:      -6.8      1.456      1.774
REMARK  Name = 
REMARK  3 active torsions:
REMARK  status: ('A' for Active; 'I' for Inactive)
REMARK    1  A    between atoms: O_1  and  C_2
REMARK    2  A    between atoms: C_2  and  C_3
REMARK    3  A    between atoms: N_7  and  C_8
REMARK                            x       y       z     vdW  Elec       q    Type
REMARK                         _______ _______ _______ _____ _____    ______ ____
ROOT
ATOM      1  C   UNL     1       3.579   5.580  19.387  0.00  0.00    +0.000 C 
ATOM      2  C   UNL     1       2.660   6.824  19.409  0.00  0.00    +0.000 C 
ATOM      3  C   UNL     1       2.425   7.455  18.043  0.00  0.00    +0.000 C 
ATOM      4  C   UNL     1       3.729   7.822  17.348  0.00  0.00    +0.000 C 
ATOM      5  C   UNL     1       4.860   6.847  17.552  0.00  0.00    +0.000 A 
ATOM      6  C   UNL     1       6.025   7.021  16.782  0.00  0.00    +0.000 A 
ATOM      7  C   UNL     1       7.142   6.215  16.987  0.00  0.00    +0.000 A 
ATOM      8  C   UNL     1       7.102   5.233  17.966  0.00  0.00    +0.000 A 
ATOM      9  F   UNL     1       8.185   4.475  18.183  0.00  0.00    +0.000 F 
ATOM     10  C   UNL     1       5.958   5.031  18.729  0.00  0.00    +0.000 A 
ATOM     11  C   UNL     1       4.818   5.832  18.532  0.00  0.00    +0.000 A 
ENDROOT
BRANCH   1  16
ATOM     12  C   UNL     1       2.909   1.795  19.597  0.00  0.00    +0.000 C 
ATOM     13  C   UNL     1       1.376   1.829  19.534  0.00  0.00    +0.000 C 
ATOM     14  C   UNL     1       0.894   2.945  18.615  0.00  0.00    +0.000 C 
ATOM     15  C   UNL     1       1.489   4.281  19.051  0.00  0.00    +0.000 C 
ATOM     16  N   UNL     1       2.958   4.263  19.074  0.00  0.00    +0.000 NA
ATOM     17  C   UNL     1       3.461   3.191  19.951  0.00  0.00    +0.000 C 
BRANCH  12  18
ATOM     18  C   UNL     1       3.527   1.250  18.305  0.00  0.00    +0.000 C 
BRANCH  18  19
ATOM     19  O   UNL     1       4.342   2.260  17.711  0.00  0.00    +0.000 OA
ATOM     20  H   UNL     1       3.825   2.652  16.987  0.00  0.00    +0.000 HD
ENDBRANCH  18  19
ENDBRANCH  12  18
ENDBRANCH   1  16
TORSDOF 3
ENDMDL
MODEL 6
REMARK VINA RESULT:      -6.8      3.170      5.879
REMARK  Name = 
REMARK  3 active torsions:
REMARK  status: ('A' for Active; 'I' for Inactive)
REMARK    1  A    between atoms: O_1  and  C_2
REMARK    2  A    between atoms: C_2  and  C_3
REMARK    3  A    between atoms: N_7  and  C_8
REMARK                            x       y       z     vdW  Elec       q    Type
REMARK                         _______ _______ _______ _____ _____    ______ ____
ROOT
ATOM      1  C   UNL     1       4.618   3.629  19.266  0.00  0.00    +0.000 C 
ATOM      2  C   UNL     1       4.702   2.086  19.198  0.00  0.00    +0.000 C 
ATOM      3  C   UNL     1       3.543   1.427  18.462  0.00  0.00    +0.000 C 
ATOM      4  C   UNL     1       2.193   1.818  19.047  0.00  0.00    +0.000 C 
ATOM      5  C   UNL     1       2.087   3.248  19.509  0.00  0.00    +0.000 A 
ATOM      6  C   UNL     1       0.815   3.728  19.875  0.00  0.00    +0.000 A 
ATOM      7  C   UNL     1       0.660   5.008  20.400  0.00  0.00    +0.000 A 
ATOM      8  C   UNL     1       1.775   5.815  20.567  0.00  0.00    +0.000 A 
ATOM      9  F   UNL     1       1.631   7.037  21.097  0.00  0.00    +0.000 F 
ATOM     10  C   UNL     1       3.040   5.371  20.199  0.00  0.00    +0.000 A 
ATOM     11  C   UNL     1       3.215   4.083  19.662  0.00  0.00    +0.000 A 
ENDROOT
BRANCH   1  16
ATOM     12  C   UNL     1       7.126   5.585  17.097  0.00  0.00    +0.000 C 
ATOM     13  C   UNL     1       6.776   4.973  15.734  0.00  0.00    +0.000 C 
ATOM     14  C   UNL     1       5.284   4.684  15.634  0.00  0.00    +0.000 C 
ATOM     15  C   UNL     1       4.838   3.804  16.798  0.00  0.00    +0.000 C 
ATOM     16  N   UNL     1       5.136   4.405  18.105  0.00  0.00    +0.000 NA
ATOM     17  C   UNL     1       6.574   4.703  18.236  0.00  0.00    +0.000 C 
BRANCH  12  18
ATOM     18  C   UNL     1       6.649   7.035  17.218  0.00  0.00    +0.000 C 
BRANCH  18  19
ATOM     19  O   UNL     1       7.769   7.911  17.094  0.00  0.00    +0.000 OA
ATOM     20  H   UNL     1       8.217   7.923  17.957  0.00  0.00    +0.000 HD
ENDBRANCH  18  19
ENDBRANCH  12  18
ENDBRANCH   1  16
TORSDOF 3
ENDMDL
MODEL 7
REMARK VINA RESULT:      -6.7      2.887      5.698
REMARK  Name = 
REMARK  3 active torsions:
REMARK  status: ('A' for Active; 'I' for Inactive)
REMARK    1  A    between atoms: O_1  and  C_2
REMARK    2  A    between atoms: C_2  and  C_3
REMARK    3  A    between atoms: N_7  and  C_8
REMARK                            x       y       z     vdW  Elec       q    Type
REMARK                         _______ _______ _______ _____ _____    ______ ____
ROOT
ATOM      1  C   UNL     1       4.653   3.462  19.505  0.00  0.00    +0.000 C 
ATOM      2  C   UNL     1       4.688   1.922  19.360  0.00  0.00    +0.000 C 
ATOM      3  C   UNL     1       3.594   1.351  18.467  0.00  0.00    +0.000 C 
ATOM      4  C   UNL     1       2.203   1.768  18.925  0.00  0.00    +0.000 C 
ATOM      5  C   UNL     1       2.098   3.176  19.452  0.00  0.00    +0.000 A 
ATOM      6  C   UNL     1       0.811   3.688  19.705  0.00  0.00    +0.000 A 
ATOM      7  C   UNL     1       0.646   4.945  20.281  0.00  0.00    +0.000 A 
ATOM      8  C   UNL     1       1.765   5.695  20.613  0.00  0.00    +0.000 A 
ATOM      9  F   UNL     1       1.607   6.893  21.191  0.00  0.00    +0.000 F 
ATOM     10  C   UNL     1       3.045   5.218  20.358  0.00  0.00    +0.000 A 
ATOM     11  C   UNL     1       3.232   3.953  19.772  0.00  0.00    +0.000 A 
ENDROOT
BRANCH   1  16
ATOM     12  C   UNL     1       5.054   5.487  16.257  0.00  0.00    +0.000 C 
ATOM     13  C   UNL     1       5.906   6.639  16.808  0.00  0.00    +0.000 C 
ATOM     14  C   UNL     1       6.871   6.139  17.875  0.00  0.00    +0.000 C 
ATOM     15  C   UNL     1       6.108   5.402  18.973  0.00  0.00    +0.000 C 
ATOM     16  N   UNL     1       5.323   4.274  18.453  0.00  0.00    +0.000 NA
ATOM     17  C   UNL     1       4.380   4.721  17.412  0.00  0.00    +0.000 C 
BRANCH  12  18
ATOM     18  C   UNL     1       5.864   4.554  15.351  0.00  0.00    +0.000 C 
BRANCH  18  19
ATOM     19  O   UNL     1       5.865   3.241  15.910  0.00  0.00    +0.000 OA
ATOM     20  H   UNL     1       5.026   3.135  16.389  0.00  0.00    +0.000 HD
ENDBRANCH  18  19
ENDBRANCH  12  18
ENDBRANCH   1  16
TORSDOF 3
ENDMDL
MODEL 8
REMARK VINA RESULT:      -6.6      1.274      1.643
REMARK  Name = 
REMARK  3 active torsions:
REMARK  status: ('A' for Active; 'I' for Inactive)
REMARK    1  A    between atoms: O_1  and  C_2
REMARK    2  A    between atoms: C_2  and  C_3
REMARK    3  A    between atoms: N_7  and  C_8
REMARK                            x       y       z     vdW  Elec       q    Type
REMARK                         _______ _______ _______ _____ _____    ______ ____
ROOT
ATOM      1  C   UNL     1       3.693   5.532  19.671  0.00  0.00    +0.000 C 
ATOM      2  C   UNL     1       2.616   6.637  19.558  0.00  0.00    +0.000 C 
ATOM      3  C   UNL     1       2.341   7.101  18.134  0.00  0.00    +0.000 C 
ATOM      4  C   UNL     1       3.605   7.575  17.429  0.00  0.00    +0.000 C 
ATOM      5  C   UNL     1       4.848   6.786  17.746  0.00  0.00    +0.000 A 
ATOM      6  C   UNL     1       6.003   7.044  16.984  0.00  0.00    +0.000 A 
ATOM      7  C   UNL     1       7.210   6.419  17.285  0.00  0.00    +0.000 A 
ATOM      8  C   UNL     1       7.273   5.536  18.353  0.00  0.00    +0.000 A 
ATOM      9  F   UNL     1       8.439   4.955  18.660  0.00  0.00    +0.000 F 
ATOM     10  C   UNL     1       6.143   5.252  19.111  0.00  0.00    +0.000 A 
ATOM     11  C   UNL     1       4.913   5.870  18.818  0.00  0.00    +0.000 A 
ENDROOT
BRANCH   1  16
ATOM     12  C   UNL     1       1.989   2.504  18.014  0.00  0.00    +0.000 C 
ATOM     13  C   UNL     1       3.117   1.479  18.194  0.00  0.00    +0.000 C 
ATOM     14  C   UNL     1       3.846   1.698  19.514  0.00  0.00    +0.000 C 
ATOM     15  C   UNL     1       4.347   3.137  19.607  0.00  0.00    +0.000 C 
ATOM     16  N   UNL     1       3.263   4.120  19.475  0.00  0.00    +0.000 NA
ATOM     17  C   UNL     1       2.531   3.934  18.209  0.00  0.00    +0.000 C 
BRANCH  12  18
ATOM     18  C   UNL     1       0.797   2.217  18.933  0.00  0.00    +0.000 C 
BRANCH  18  19
ATOM     19  O   UNL     1       0.592   3.332  19.799  0.00  0.00    +0.000 OA
ATOM     20  H   UNL     1       1.468   3.610  20.116  0.00  0.00    +0.000 HD
ENDBRANCH  18  19
ENDBRANCH  12  18
ENDBRANCH   1  16
TORSDOF 3
ENDMDL
MODEL 9
REMARK VINA RESULT:      -6.5      2.338      3.409
REMARK  Name = 
REMARK  3 active torsions:
REMARK  status: ('A' for Active; 'I' for Inactive)
REMARK    1  A    between atoms: O_1  and  C_2
REMARK    2  A    between atoms: C_2  and  C_3
REMARK    3  A    between atoms: N_7  and  C_8
REMARK                            x       y       z     vdW  Elec       q    Type
REMARK                         _______ _______ _______ _____ _____    ______ ____
ROOT
ATOM      1  C   UNL     1       5.687   3.965  17.886  0.00  0.00    +0.000 C 
ATOM      2  C   UNL     1       6.574   4.673  18.938  0.00  0.00    +0.000 C 
ATOM      3  C   UNL     1       6.805   6.153  18.669  0.00  0.00    +0.000 C 
ATOM      4  C   UNL     1       7.393   6.401  17.286  0.00  0.00    +0.000 C 
ATOM      5  C   UNL     1       6.868   5.502  16.197  0.00  0.00    +0.000 A 
ATOM      6  C   UNL     1       7.220   5.806  14.868  0.00  0.00    +0.000 A 
ATOM      7  C   UNL     1       6.848   4.964  13.823  0.00  0.00    +0.000 A 
ATOM      8  C   UNL     1       6.127   3.812  14.100  0.00  0.00    +0.000 A 
ATOM      9  F   UNL     1       5.792   2.988  13.098  0.00  0.00    +0.000 F 
ATOM     10  C   UNL     1       5.754   3.498  15.402  0.00  0.00    +0.000 A 
ATOM     11  C   UNL     1       6.116   4.339  16.470  0.00  0.00    +0.000 A 
ENDROOT
BRANCH   1  16
ATOM     12  C   UNL     1       2.218   3.389  19.451  0.00  0.00    +0.000 C 
ATOM     13  C   UNL     1       1.657   4.809  19.293  0.00  0.00    +0.000 C 
ATOM     14  C   UNL     1       2.147   5.447  17.999  0.00  0.00    +0.000 C 
ATOM     15  C   UNL     1       3.671   5.414  17.940  0.00  0.00    +0.000 C 
ATOM     16  N   UNL     1       4.210   4.052  18.051  0.00  0.00    +0.000 NA
ATOM     17  C   UNL     1       3.752   3.401  19.292  0.00  0.00    +0.000 C 
BRANCH  12  18
ATOM     18  C   UNL     1       1.553   2.396  18.493  0.00  0.00    +0.000 C 
BRANCH  18  19
ATOM     19  O   UNL     1       2.562   1.645  17.820  0.00  0.00    +0.000 OA
ATOM     20  H   UNL     1       2.812   2.151  17.028  0.00  0.00    +0.000 HD
ENDBRANCH  18  19
ENDBRANCH  12  18
ENDBRANCH   1  16
TORSDOF 3
ENDMDL
