MODEL 1
REMARK VINA RESULT:      -8.4      0.000      0.000
REMARK  Name = 
REMARK  2 active torsions:
REMARK  status: ('A' for Active; 'I' for Inactive)
REMARK    1  A    between atoms: C_6  and  C_7
REMARK    2  A    between atoms: C_7  and  N_8
REMARK                            x       y       z     vdW  Elec       q    Type
REMARK                         _______ _______ _______ _____ _____    ______ ____
ROOT
ATOM      1  C   UNL     1       3.122   4.520  18.537  0.00  0.00    +0.000 C 
ATOM      2  C   UNL     1       2.858   3.598  19.775  0.00  0.00    +0.000 C 
ATOM      3  C   UNL     1       2.727   2.170  19.258  0.00  0.00    +0.000 C 
ATOM      4  C   UNL     1       2.419   2.292  17.775  0.00  0.00    +0.000 C 
ATOM      5  C   UNL     1       2.185   3.781  17.533  0.00  0.00    +0.000 C 
ENDROOT
BRANCH   1  11
ATOM      6  C   UNL     1       1.131  10.470  18.757  0.00  0.00    +0.000 A 
ATOM      7  C   UNL     1       0.779  10.234  20.077  0.00  0.00    +0.000 A 
ATOM      8  C   UNL     1       1.041   8.999  20.675  0.00  0.00    +0.000 A 
ATOM      9  C   UNL     1       1.660   7.993  19.909  0.00  0.00    +0.000 A 
ATOM     10  S   UNL     1       2.055   6.396  20.409  0.00  0.00    +0.000 S 
ATOM     11  C   UNL     1       2.656   5.949  18.862  0.00  0.00    +0.000 A 
ATOM     12  C   UNL     1       2.641   7.047  18.017  0.00  0.00    +0.000 A 
ATOM     13  C   UNL     1       2.033   8.213  18.583  0.00  0.00    +0.000 A 
ATOM     14  C   UNL     1       1.764   9.476  18.008  0.00  0.00    +0.000 A 
ENDBRANCH   1  11
BRANCH   1  15
ATOM     15  N   UNL     1       4.553   4.479  18.066  0.00  0.00    +0.000 NA
ATOM     16  C   UNL     1       4.722   4.840  16.649  0.00  0.00    +0.000 C 
ATOM     17  C   UNL     1       5.851   4.060  15.960  0.00  0.00    +0.000 C 
ATOM     18  C   UNL     1       7.263   4.559  16.230  0.00  0.00    +0.000 C 
ATOM     19  C   UNL     1       7.643   4.594  17.702  0.00  0.00    +0.000 C 
ATOM     20  C   UNL     1       6.848   5.646  18.459  0.00  0.00    +0.000 C 
ATOM     21  C   UNL     1       5.486   5.167  18.973  0.00  0.00    +0.000 C 
ENDBRANCH   1  15
TORSDOF 2
ENDMDL
MODEL 2
REMARK VINA RESULT:      -7.8      0.807      1.408
REMARK  Name = 
REMARK  2 active torsions:
REMARK  status: ('A' for Active; 'I' for Inactive)
REMARK    1  A    between atoms: C_6  and  C_7
REMARK    2  A    between atoms: C_7  and  N_8
REMARK                            x       y       z     vdW  Elec       q    Type
REMARK                         _______ _______ _______ _____ _____    ______ ____
ROOT
ATOM      1  C   UNL     1       3.064   4.418  18.667  0.00  0.00    +0.000 C 
ATOM      2  C   UNL     1       2.829   3.432  19.860  0.00  0.00    +0.000 C 
ATOM      3  C   UNL     1       2.804   2.020  19.285  0.00  0.00    +0.000 C 
ATOM      4  C   UNL     1       2.525   2.183  17.800  0.00  0.00    +0.000 C 
ATOM      5  C   UNL     1       2.202   3.662  17.610  0.00  0.00    +0.000 C 
ENDROOT
BRANCH   1  11
ATOM      6  C   UNL     1       0.955   9.750  21.224  0.00  0.00    +0.000 A 
ATOM      7  C   UNL     1       1.131  10.338  19.981  0.00  0.00    +0.000 A 
ATOM      8  C   UNL     1       1.568   9.582  18.890  0.00  0.00    +0.000 A 
ATOM      9  C   UNL     1       1.839   8.214  19.078  0.00  0.00    +0.000 A 
ATOM     10  S   UNL     1       2.411   7.094  17.907  0.00  0.00    +0.000 S 
ATOM     11  C   UNL     1       2.498   5.800  19.035  0.00  0.00    +0.000 A 
ATOM     12  C   UNL     1       1.997   6.210  20.260  0.00  0.00    +0.000 A 
ATOM     13  C   UNL     1       1.658   7.599  20.317  0.00  0.00    +0.000 A 
ATOM     14  C   UNL     1       1.204   8.387  21.401  0.00  0.00    +0.000 A 
ENDBRANCH   1  11
BRANCH   1  15
ATOM     15  N   UNL     1       4.506   4.487  18.234  0.00  0.00    +0.000 NA
ATOM     16  C   UNL     1       4.686   4.875  16.826  0.00  0.00    +0.000 C 
ATOM     17  C   UNL     1       5.886   4.187  16.161  0.00  0.00    +0.000 C 
ATOM     18  C   UNL     1       7.251   4.785  16.473  0.00  0.00    +0.000 C 
ATOM     19  C   UNL     1       7.587   4.831  17.955  0.00  0.00    +0.000 C 
ATOM     20  C   UNL     1       6.698   5.814  18.700  0.00  0.00    +0.000 C 
ATOM     21  C   UNL     1       5.362   5.230  19.173  0.00  0.00    +0.000 C 
ENDBRANCH   1  15
TORSDOF 2
ENDMDL
MODEL 3
REMARK VINA RESULT:      -7.7      0.418      1.373
REMARK  Name = 
REMARK  2 active torsions:
REMARK  status: ('A' for Active; 'I' for Inactive)
REMARK    1  A    between atoms: C_6  and  C_7
REMARK    2  A    between atoms: C_7  and  N_8
REMARK                            x       y       z     vdW  Elec       q    Type
REMARK                         _______ _______ _______ _____ _____    ______ ____
ROOT
ATOM      1  C   UNL     1       3.069   4.853  18.481  0.00  0.00    +0.000 C 
ATOM      2  C   UNL     1       2.980   3.956  19.761  0.00  0.00    +0.000 C 
ATOM      3  C   UNL     1       2.849   2.511  19.295  0.00  0.00    +0.000 C 
ATOM      4  C   UNL     1       2.374   2.582  17.853  0.00  0.00    +0.000 C 
ATOM      5  C   UNL     1       2.057   4.054  17.605  0.00  0.00    +0.000 C 
ENDROOT
BRANCH   1  11
ATOM      6  C   UNL     1       1.052  10.791  18.773  0.00  0.00    +0.000 A 
ATOM      7  C   UNL     1       0.653  10.522  20.073  0.00  0.00    +0.000 A 
ATOM      8  C   UNL     1       0.898   9.273  20.650  0.00  0.00    +0.000 A 
ATOM      9  C   UNL     1       1.548   8.288  19.883  0.00  0.00    +0.000 A 
ATOM     10  S   UNL     1       1.929   6.681  20.358  0.00  0.00    +0.000 S 
ATOM     11  C   UNL     1       2.587   6.273  18.824  0.00  0.00    +0.000 A 
ATOM     12  C   UNL     1       2.599   7.391  18.006  0.00  0.00    +0.000 A 
ATOM     13  C   UNL     1       1.968   8.541  18.577  0.00  0.00    +0.000 A 
ATOM     14  C   UNL     1       1.716   9.817  18.023  0.00  0.00    +0.000 A 
ENDBRANCH   1  11
BRANCH   1  15
ATOM     15  N   UNL     1       4.440   4.851  17.854  0.00  0.00    +0.000 NA
ATOM     16  C   UNL     1       5.498   4.340  18.741  0.00  0.00    +0.000 C 
ATOM     17  C   UNL     1       6.845   5.048  18.539  0.00  0.00    +0.000 C 
ATOM     18  C   UNL     1       7.664   4.589  17.340  0.00  0.00    +0.000 C 
ATOM     19  C   UNL     1       6.943   4.715  16.007  0.00  0.00    +0.000 C 
ATOM     20  C   UNL     1       5.775   3.747  15.909  0.00  0.00    +0.000 C 
ATOM     21  C   UNL     1       4.462   4.271  16.501  0.00  0.00    +0.000 C 
ENDBRANCH   1  15
TORSDOF 2
ENDMDL
MODEL 4
REMARK VINA RESULT:      -7.4      0.962      2.026
REMARK  Name = 
REMARK  2 active torsions:
REMARK  status: ('A' for Active; 'I' for Inactive)
REMARK    1  A    between atoms: C_6  and  C_7
REMARK    2  A    between atoms: C_7  and  N_8
REMARK                            x       y       z     vdW  Elec       q    Type
REMARK                         _______ _______ _______ _____ _____    ______ ____
ROOT
ATOM      1  C   UNL     1       2.941   5.039  18.780  0.00  0.00    +0.000 C 
ATOM      2  C   UNL     1       2.836   4.021  19.965  0.00  0.00    +0.000 C 
ATOM      3  C   UNL     1       2.849   2.620  19.363  0.00  0.00    +0.000 C 
ATOM      4  C   UNL     1       2.467   2.793  17.902  0.00  0.00    +0.000 C 
ATOM      5  C   UNL     1       2.054   4.256  17.764  0.00  0.00    +0.000 C 
ENDROOT
BRANCH   1  11
ATOM      6  C   UNL     1       0.644  10.165  21.582  0.00  0.00    +0.000 A 
ATOM      7  C   UNL     1       0.808  10.821  20.371  0.00  0.00    +0.000 A 
ATOM      8  C   UNL     1       1.278  10.135  19.248  0.00  0.00    +0.000 A 
ATOM      9  C   UNL     1       1.591   8.768  19.370  0.00  0.00    +0.000 A 
ATOM     10  S   UNL     1       2.207   7.727  18.149  0.00  0.00    +0.000 S 
ATOM     11  C   UNL     1       2.329   6.382  19.212  0.00  0.00    +0.000 A 
ATOM     12  C   UNL     1       1.807   6.714  20.451  0.00  0.00    +0.000 A 
ATOM     13  C   UNL     1       1.422   8.086  20.575  0.00  0.00    +0.000 A 
ATOM     14  C   UNL     1       0.936   8.804  21.693  0.00  0.00    +0.000 A 
ENDBRANCH   1  11
BRANCH   1  15
ATOM     15  N   UNL     1       4.347   5.193  18.258  0.00  0.00    +0.000 NA
ATOM     16  C   UNL     1       5.378   4.645  19.155  0.00  0.00    +0.000 C 
ATOM     17  C   UNL     1       6.683   5.451  19.133  0.00  0.00    +0.000 C 
ATOM     18  C   UNL     1       7.607   5.187  17.952  0.00  0.00    +0.000 C 
ATOM     19  C   UNL     1       6.968   5.427  16.594  0.00  0.00    +0.000 C 
ATOM     20  C   UNL     1       5.877   4.408  16.302  0.00  0.00    +0.000 C 
ATOM     21  C   UNL     1       4.496   4.780  16.853  0.00  0.00    +0.000 C 
ENDBRANCH   1  15
TORSDOF 2
ENDMDL
MODEL 5
REMARK VINA RESULT:      -7.3      1.653      5.855
REMARK  Name = 
REMARK  2 active torsions:
REMARK  status: ('A' for Active; 'I' for Inactive)
REMARK    1  A    between atoms: C_6  and  C_7
REMARK    2  A    between atoms: C_7  and  N_8
REMARK                            x       y       z     vdW  Elec       q    Type
REMARK                         _______ _______ _______ _____ _____    ______ ____
ROOT
ATOM      1  C   UNL     1       2.561   4.883  19.037  0.00  0.00    +0.000 C 
ATOM      2  C   UNL     1       1.478   3.830  18.624  0.00  0.00    +0.000 C 
ATOM      3  C   UNL     1       0.664   3.502  19.871  0.00  0.00    +0.000 C 
ATOM      4  C   UNL     1       1.522   3.931  21.050  0.00  0.00    +0.000 C 
ATOM      5  C   UNL     1       2.875   4.303  20.451  0.00  0.00    +0.000 C 
ENDROOT
BRANCH   1  11
ATOM      6  C   UNL     1       6.634   4.353  14.290  0.00  0.00    +0.000 A 
ATOM      7  C   UNL     1       7.560   4.996  15.099  0.00  0.00    +0.000 A 
ATOM      8  C   UNL     1       7.233   5.354  16.410  0.00  0.00    +0.000 A 
ATOM      9  C   UNL     1       5.943   5.062  16.891  0.00  0.00    +0.000 A 
ATOM     10  S   UNL     1       5.302   5.428  18.443  0.00  0.00    +0.000 S 
ATOM     11  C   UNL     1       3.750   4.793  18.067  0.00  0.00    +0.000 A 
ATOM     12  C   UNL     1       3.770   4.222  16.804  0.00  0.00    +0.000 A 
ATOM     13  C   UNL     1       5.001   4.406  16.098  0.00  0.00    +0.000 A 
ATOM     14  C   UNL     1       5.363   4.046  14.779  0.00  0.00    +0.000 A 
ENDBRANCH   1  11
BRANCH   1  15
ATOM     15  N   UNL     1       2.013   6.283  19.141  0.00  0.00    +0.000 NA
ATOM     16  C   UNL     1       2.329   6.952  20.414  0.00  0.00    +0.000 C 
ATOM     17  C   UNL     1       1.210   7.887  20.895  0.00  0.00    +0.000 C 
ATOM     18  C   UNL     1       1.149   9.251  20.223  0.00  0.00    +0.000 C 
ATOM     19  C   UNL     1       0.998   9.195  18.711  0.00  0.00    +0.000 C 
ATOM     20  C   UNL     1       2.245   8.634  18.045  0.00  0.00    +0.000 C 
ATOM     21  C   UNL     1       2.283   7.105  17.950  0.00  0.00    +0.000 C 
ENDBRANCH   1  15
TORSDOF 2
ENDMDL
MODEL 6
REMARK VINA RESULT:      -6.9      1.403      3.779
REMARK  Name = 
REMARK  2 active torsions:
REMARK  status: ('A' for Active; 'I' for Inactive)
REMARK    1  A    between atoms: C_6  and  C_7
REMARK    2  A    between atoms: C_7  and  N_8
REMARK                            x       y       z     vdW  Elec       q    Type
REMARK                         _______ _______ _______ _____ _____    ______ ____
ROOT
ATOM      1  C   UNL     1       3.978   6.187  18.112  0.00  0.00    +0.000 C 
ATOM      2  C   UNL     1       4.349   6.665  16.668  0.00  0.00    +0.000 C 
ATOM      3  C   UNL     1       5.746   6.137  16.360  0.00  0.00    +0.000 C 
ATOM      4  C   UNL     1       6.372   5.811  17.706  0.00  0.00    +0.000 C 
ATOM      5  C   UNL     1       5.393   6.348  18.747  0.00  0.00    +0.000 C 
ENDROOT
BRANCH   1  11
ATOM      6  C   UNL     1       0.062   9.705  21.533  0.00  0.00    +0.000 A 
ATOM      7  C   UNL     1      -0.060  10.530  20.425  0.00  0.00    +0.000 A 
ATOM      8  C   UNL     1       0.591  10.217  19.229  0.00  0.00    +0.000 A 
ATOM      9  C   UNL     1       1.384   9.055  19.172  0.00  0.00    +0.000 A 
ATOM     10  S   UNL     1       2.298   8.481  17.834  0.00  0.00    +0.000 S 
ATOM     11  C   UNL     1       2.933   7.145  18.708  0.00  0.00    +0.000 A 
ATOM     12  C   UNL     1       2.364   7.097  19.971  0.00  0.00    +0.000 A 
ATOM     13  C   UNL     1       1.511   8.205  20.271  0.00  0.00    +0.000 A 
ATOM     14  C   UNL     1       0.832   8.541  21.465  0.00  0.00    +0.000 A 
ENDBRANCH   1  11
BRANCH   1  15
ATOM     15  N   UNL     1       3.528   4.749  18.160  0.00  0.00    +0.000 NA
ATOM     16  C   UNL     1       3.890   4.054  19.406  0.00  0.00    +0.000 C 
ATOM     17  C   UNL     1       4.225   2.572  19.192  0.00  0.00    +0.000 C 
ATOM     18  C   UNL     1       3.032   1.636  19.048  0.00  0.00    +0.000 C 
ATOM     19  C   UNL     1       2.088   2.000  17.913  0.00  0.00    +0.000 C 
ATOM     20  C   UNL     1       1.360   3.306  18.188  0.00  0.00    +0.000 C 
ATOM     21  C   UNL     1       2.124   4.564  17.758  0.00  0.00    +0.000 C 
ENDBRANCH   1  15
TORSDOF 2
ENDMDL
MODEL 7
REMARK VINA RESULT:      -6.9      1.240      1.784
REMARK  Name = 
REMARK  2 active torsions:
REMARK  status: ('A' for Active; 'I' for Inactive)
REMARK    1  A    between atoms: C_6  and  C_7
REMARK    2  A    between atoms: C_7  and  N_8
REMARK                            x       y       z     vdW  Elec       q    Type
REMARK                         _______ _______ _______ _____ _____    ______ ____
ROOT
ATOM      1  C   UNL     1       2.508   4.892  19.624  0.00  0.00    +0.000 C 
ATOM      2  C   UNL     1       2.564   4.388  21.106  0.00  0.00    +0.000 C 
ATOM      3  C   UNL     1       2.385   2.874  21.078  0.00  0.00    +0.000 C 
ATOM      4  C   UNL     1       1.752   2.557  19.733  0.00  0.00    +0.000 C 
ATOM      5  C   UNL     1       1.406   3.911  19.120  0.00  0.00    +0.000 C 
ENDROOT
BRANCH   1  11
ATOM      6  C   UNL     1       0.817  10.847  20.666  0.00  0.00    +0.000 A 
ATOM      7  C   UNL     1       1.103  11.093  19.331  0.00  0.00    +0.000 A 
ATOM      8  C   UNL     1       1.513  10.057  18.488  0.00  0.00    +0.000 A 
ATOM      9  C   UNL     1       1.640   8.760  19.020  0.00  0.00    +0.000 A 
ATOM     10  S   UNL     1       2.152   7.341  18.196  0.00  0.00    +0.000 S 
ATOM     11  C   UNL     1       2.064   6.364  19.607  0.00  0.00    +0.000 A 
ATOM     12  C   UNL     1       1.552   7.105  20.660  0.00  0.00    +0.000 A 
ATOM     13  C   UNL     1       1.347   8.488  20.356  0.00  0.00    +0.000 A 
ATOM     14  C   UNL     1       0.924   9.555  21.184  0.00  0.00    +0.000 A 
ENDBRANCH   1  11
BRANCH   1  15
ATOM     15  N   UNL     1       3.801   4.676  18.879  0.00  0.00    +0.000 NA
ATOM     16  C   UNL     1       3.654   4.699  17.415  0.00  0.00    +0.000 C 
ATOM     17  C   UNL     1       4.605   3.730  16.700  0.00  0.00    +0.000 C 
ATOM     18  C   UNL     1       6.041   4.208  16.537  0.00  0.00    +0.000 C 
ATOM     19  C   UNL     1       6.735   4.557  17.845  0.00  0.00    +0.000 C 
ATOM     20  C   UNL     1       6.123   5.790  18.491  0.00  0.00    +0.000 C 
ATOM     21  C   UNL     1       4.909   5.505  19.382  0.00  0.00    +0.000 C 
ENDBRANCH   1  15
TORSDOF 2
ENDMDL
MODEL 8
REMARK VINA RESULT:      -6.7      2.621      6.924
REMARK  Name = 
REMARK  2 active torsions:
REMARK  status: ('A' for Active; 'I' for Inactive)
REMARK    1  A    between atoms: C_6  and  C_7
REMARK    2  A    between atoms: C_7  and  N_8
REMARK                            x       y       z     vdW  Elec       q    Type
REMARK                         _______ _______ _______ _____ _____    ______ ____
ROOT
ATOM      1  C   UNL     1       6.629   5.869  17.325  0.00  0.00    +0.000 C 
ATOM      2  C   UNL     1       7.498   4.901  18.197  0.00  0.00    +0.000 C 
ATOM      3  C   UNL     1       8.146   5.737  19.295  0.00  0.00    +0.000 C 
ATOM      4  C   UNL     1       8.086   7.177  18.810  0.00  0.00    +0.000 C 
ATOM      5  C   UNL     1       7.590   7.096  17.368  0.00  0.00    +0.000 C 
ENDROOT
BRANCH   1  11
ATOM      6  C   UNL     1       7.035   3.763  11.424  0.00  0.00    +0.000 A 
ATOM      7  C   UNL     1       5.945   2.954  11.708  0.00  0.00    +0.000 A 
ATOM      8  C   UNL     1       5.320   3.012  12.956  0.00  0.00    +0.000 A 
ATOM      9  C   UNL     1       5.823   3.901  13.925  0.00  0.00    +0.000 A 
ATOM     10  S   UNL     1       5.247   4.129  15.529  0.00  0.00    +0.000 S 
ATOM     11  C   UNL     1       6.469   5.273  15.916  0.00  0.00    +0.000 A 
ATOM     12  C   UNL     1       7.235   5.540  14.793  0.00  0.00    +0.000 A 
ATOM     13  C   UNL     1       6.910   4.732  13.657  0.00  0.00    +0.000 A 
ATOM     14  C   UNL     1       7.517   4.658  12.382  0.00  0.00    +0.000 A 
ENDBRANCH   1  11
BRANCH   1  15
ATOM     15  N   UNL     1       5.303   6.202  17.958  0.00  0.00    +0.000 NA
ATOM     16  C   UNL     1       4.337   6.812  17.029  0.00  0.00    +0.000 C 
ATOM     17  C   UNL     1       3.434   7.855  17.700  0.00  0.00    +0.000 C 
ATOM     18  C   UNL     1       2.268   7.304  18.509  0.00  0.00    +0.000 C 
ATOM     19  C   UNL     1       2.677   6.354  19.624  0.00  0.00    +0.000 C 
ATOM     20  C   UNL     1       3.247   5.057  19.073  0.00  0.00    +0.000 C 
ATOM     21  C   UNL     1       4.747   5.101  18.762  0.00  0.00    +0.000 C 
ENDBRANCH   1  15
TORSDOF 2
ENDMDL
MODEL 9
REMARK VINA RESULT:      -6.7      1.041      3.534
REMARK  Name = 
REMARK  2 active torsions:
REMARK  status: ('A' for Active; 'I' for Inactive)
REMARK    1  A    between atoms: C_6  and  C_7
REMARK    2  A    between atoms: C_7  and  N_8
REMARK                            x       y       z     vdW  Elec       q    Type
REMARK                         _______ _______ _______ _____ _____    ______ ____
ROOT
ATOM      1  C   UNL     1       4.133   5.983  17.996  0.00  0.00    +0.000 C 
ATOM      2  C   UNL     1       4.581   6.296  16.529  0.00  0.00    +0.000 C 
ATOM      3  C   UNL     1       5.932   5.623  16.313  0.00  0.00    +0.000 C 
ATOM      4  C   UNL     1       6.493   5.365  17.702  0.00  0.00    +0.000 C 
ATOM      5  C   UNL     1       5.541   6.076  18.660  0.00  0.00    +0.000 C 
ENDROOT
BRANCH   1  11
ATOM      6  C   UNL     1       0.048  10.672  18.855  0.00  0.00    +0.000 A 
ATOM      7  C   UNL     1      -0.186  10.149  20.118  0.00  0.00    +0.000 A 
ATOM      8  C   UNL     1       0.524   9.034  20.570  0.00  0.00    +0.000 A 
ATOM      9  C   UNL     1       1.475   8.443  19.716  0.00  0.00    +0.000 A 
ATOM     10  S   UNL     1       2.443   7.059  20.033  0.00  0.00    +0.000 S 
ATOM     11  C   UNL     1       3.164   7.077  18.473  0.00  0.00    +0.000 A 
ATOM     12  C   UNL     1       2.735   8.192  17.771  0.00  0.00    +0.000 A 
ATOM     13  C   UNL     1       1.734   8.960  18.447  0.00  0.00    +0.000 A 
ATOM     14  C   UNL     1       1.008  10.095  18.020  0.00  0.00    +0.000 A 
ENDBRANCH   1  11
BRANCH   1  15
ATOM     15  N   UNL     1       3.556   4.599  18.154  0.00  0.00    +0.000 NA
ATOM     16  C   UNL     1       3.877   3.965  19.443  0.00  0.00    +0.000 C 
ATOM     17  C   UNL     1       4.070   2.446  19.333  0.00  0.00    +0.000 C 
ATOM     18  C   UNL     1       2.796   1.616  19.271  0.00  0.00    +0.000 C 
ATOM     19  C   UNL     1       1.867   1.984  18.125  0.00  0.00    +0.000 C 
ATOM     20  C   UNL     1       1.266   3.368  18.313  0.00  0.00    +0.000 C 
ATOM     21  C   UNL     1       2.133   4.516  17.784  0.00  0.00    +0.000 C 
ENDBRANCH   1  15
TORSDOF 2
ENDMDL
