MODEL 1
REMARK VINA RESULT:      -6.7      0.000      0.000
REMARK  Name = 
REMARK  5 active torsions:
REMARK  status: ('A' for Active; 'I' for Inactive)
REMARK    1  A    between atoms: C_1  and  C_2
REMARK    2  A    between atoms: C_2  and  C_3
REMARK    3  A    between atoms: C_2  and  C_4
REMARK    4  A    between atoms: C_2  and  N_5
REMARK    5  A    between atoms: C_14  and  N_15
REMARK                            x       y       z     vdW  Elec       q    Type
REMARK                         _______ _______ _______ _____ _____    ______ ____
ROOT
ATOM      1  N   UNL     1       0.708   9.313  19.892  0.00  0.00    +0.000 N 
ATOM      2  C   UNL     1       1.545   8.806  18.917  0.00  0.00    +0.000 C 
ATOM      3  O   UNL     1       1.692   9.365  17.835  0.00  0.00    +0.000 OA
ATOM      4  N   UNL     1       2.141   7.622  19.288  0.00  0.00    +0.000 N 
ATOM      5  C   UNL     1       3.039   6.964  18.472  0.00  0.00    +0.000 A 
ATOM      6  N   UNL     1       3.242   5.668  18.525  0.00  0.00    +0.000 NA
ATOM      7  C   UNL     1       4.111   5.294  17.505  0.00  0.00    +0.000 A 
ATOM      8  C   UNL     1       4.504   3.980  17.176  0.00  0.00    +0.000 A 
ATOM      9  C   UNL     1       5.353   3.757  16.080  0.00  0.00    +0.000 A 
ATOM     10  C   UNL     1       5.814   4.837  15.318  0.00  0.00    +0.000 A 
ATOM     11  C   UNL     1       5.461   6.154  15.637  0.00  0.00    +0.000 A 
ATOM     12  C   UNL     1       4.614   6.347  16.739  0.00  0.00    +0.000 A 
ATOM     13  S   UNL     1       4.035   7.823  17.382  0.00  0.00    +0.000 S 
ATOM     14  H   UNL     1       0.908   9.022  20.839  0.00  0.00    +0.000 HD
ATOM     15  H   UNL     1       1.634   7.020  19.912  0.00  0.00    +0.000 HD
ENDROOT
BRANCH   1  17
ATOM     16  C   UNL     1      -1.075  10.497  18.629  0.00  0.00    +0.000 C 
ATOM     17  C   UNL     1       0.013  10.606  19.716  0.00  0.00    +0.000 C 
ATOM     18  C   UNL     1       1.007  11.729  19.362  0.00  0.00    +0.000 C 
ATOM     19  C   UNL     1      -0.683  10.986  21.035  0.00  0.00    +0.000 C 
ENDBRANCH   1  17
BRANCH  10  20
ATOM     20  N   UNL     1       6.689   4.596  14.161  0.00  0.00    +0.000 N 
ATOM     21  O   UNL     1       6.377   3.681  13.385  0.00  0.00    +0.000 OA
ATOM     22  O   UNL     1       7.685   5.317  14.025  0.00  0.00    +0.000 OA
ENDBRANCH  10  20
TORSDOF 2
ENDMDL
MODEL 2
REMARK VINA RESULT:      -6.5      0.320      1.229
REMARK  Name = 
REMARK  5 active torsions:
REMARK  status: ('A' for Active; 'I' for Inactive)
REMARK    1  A    between atoms: C_1  and  C_2
REMARK    2  A    between atoms: C_2  and  C_3
REMARK    3  A    between atoms: C_2  and  C_4
REMARK    4  A    between atoms: C_2  and  N_5
REMARK    5  A    between atoms: C_14  and  N_15
REMARK                            x       y       z     vdW  Elec       q    Type
REMARK                         _______ _______ _______ _____ _____    ______ ____
ROOT
ATOM      1  N   UNL     1       0.797   9.077  20.259  0.00  0.00    +0.000 N 
ATOM      2  C   UNL     1       1.613   8.615  19.245  0.00  0.00    +0.000 C 
ATOM      3  O   UNL     1       1.769   9.241  18.202  0.00  0.00    +0.000 OA
ATOM      4  N   UNL     1       2.181   7.394  19.533  0.00  0.00    +0.000 N 
ATOM      5  C   UNL     1       3.055   6.768  18.667  0.00  0.00    +0.000 A 
ATOM      6  N   UNL     1       3.224   5.467  18.632  0.00  0.00    +0.000 NA
ATOM      7  C   UNL     1       4.077   5.139  17.583  0.00  0.00    +0.000 A 
ATOM      8  C   UNL     1       4.434   3.841  17.163  0.00  0.00    +0.000 A 
ATOM      9  C   UNL     1       5.269   3.670  16.048  0.00  0.00    +0.000 A 
ATOM     10  C   UNL     1       5.754   4.786  15.357  0.00  0.00    +0.000 A 
ATOM     11  C   UNL     1       5.439   6.087  15.765  0.00  0.00    +0.000 A 
ATOM     12  C   UNL     1       4.603   6.228  16.885  0.00  0.00    +0.000 A 
ATOM     13  S   UNL     1       4.068   7.672  17.629  0.00  0.00    +0.000 S 
ATOM     14  H   UNL     1       0.994   8.718  21.183  0.00  0.00    +0.000 HD
ATOM     15  H   UNL     1       1.662   6.764  20.119  0.00  0.00    +0.000 HD
ENDROOT
BRANCH   1  17
ATOM     16  C   UNL     1       1.143  11.487  19.763  0.00  0.00    +0.000 C 
ATOM     17  C   UNL     1       0.135  10.396  20.175  0.00  0.00    +0.000 C 
ATOM     18  C   UNL     1      -0.537  10.769  21.511  0.00  0.00    +0.000 C 
ATOM     19  C   UNL     1      -0.959  10.342  19.093  0.00  0.00    +0.000 C 
ENDBRANCH   1  17
BRANCH  10  20
ATOM     20  N   UNL     1       6.615   4.600  14.179  0.00  0.00    +0.000 N 
ATOM     21  O   UNL     1       7.623   5.315  14.086  0.00  0.00    +0.000 OA
ATOM     22  O   UNL     1       6.288   3.742  13.349  0.00  0.00    +0.000 OA
ENDBRANCH  10  20
TORSDOF 2
ENDMDL
MODEL 3
REMARK VINA RESULT:      -6.5      0.934      1.509
REMARK  Name = 
REMARK  5 active torsions:
REMARK  status: ('A' for Active; 'I' for Inactive)
REMARK    1  A    between atoms: C_1  and  C_2
REMARK    2  A    between atoms: C_2  and  C_3
REMARK    3  A    between atoms: C_2  and  C_4
REMARK    4  A    between atoms: C_2  and  N_5
REMARK    5  A    between atoms: C_14  and  N_15
REMARK                            x       y       z     vdW  Elec       q    Type
REMARK                         _______ _______ _______ _____ _____    ______ ____
ROOT
ATOM      1  N   UNL     1       0.932   8.617  21.013  0.00  0.00    +0.000 N 
ATOM      2  C   UNL     1       1.651   8.224  19.902  0.00  0.00    +0.000 C 
ATOM      3  O   UNL     1       1.655   8.882  18.867  0.00  0.00    +0.000 OA
ATOM      4  N   UNL     1       2.307   7.029  20.087  0.00  0.00    +0.000 N 
ATOM      5  C   UNL     1       3.109   6.471  19.111  0.00  0.00    +0.000 A 
ATOM      6  N   UNL     1       3.338   5.183  19.017  0.00  0.00    +0.000 NA
ATOM      7  C   UNL     1       4.081   4.926  17.870  0.00  0.00    +0.000 A 
ATOM      8  C   UNL     1       4.453   3.659  17.375  0.00  0.00    +0.000 A 
ATOM      9  C   UNL     1       5.164   3.559  16.168  0.00  0.00    +0.000 A 
ATOM     10  C   UNL     1       5.511   4.716  15.461  0.00  0.00    +0.000 A 
ATOM     11  C   UNL     1       5.179   5.989  15.941  0.00  0.00    +0.000 A 
ATOM     12  C   UNL     1       4.470   6.057  17.151  0.00  0.00    +0.000 A 
ATOM     13  S   UNL     1       3.950   7.453  17.994  0.00  0.00    +0.000 S 
ATOM     14  H   UNL     1       1.250   8.248  21.898  0.00  0.00    +0.000 HD
ATOM     15  H   UNL     1       1.890   6.358  20.708  0.00  0.00    +0.000 HD
ENDROOT
BRANCH   1  17
ATOM     16  C   UNL     1      -0.531  10.081  22.389  0.00  0.00    +0.000 C 
ATOM     17  C   UNL     1       0.199   9.901  21.044  0.00  0.00    +0.000 C 
ATOM     18  C   UNL     1      -0.803   9.998  19.877  0.00  0.00    +0.000 C 
ATOM     19  C   UNL     1       1.205  11.057  20.901  0.00  0.00    +0.000 C 
ENDBRANCH   1  17
BRANCH  10  20
ATOM     20  N   UNL     1       6.242   4.605  14.190  0.00  0.00    +0.000 N 
ATOM     21  O   UNL     1       7.209   5.359  14.015  0.00  0.00    +0.000 OA
ATOM     22  O   UNL     1       5.852   3.767  13.366  0.00  0.00    +0.000 OA
ENDBRANCH  10  20
TORSDOF 2
ENDMDL
MODEL 4
REMARK VINA RESULT:      -6.2      2.990      3.578
REMARK  Name = 
REMARK  5 active torsions:
REMARK  status: ('A' for Active; 'I' for Inactive)
REMARK    1  A    between atoms: C_1  and  C_2
REMARK    2  A    between atoms: C_2  and  C_3
REMARK    3  A    between atoms: C_2  and  C_4
REMARK    4  A    between atoms: C_2  and  N_5
REMARK    5  A    between atoms: C_14  and  N_15
REMARK                            x       y       z     vdW  Elec       q    Type
REMARK                         _______ _______ _______ _____ _____    ______ ____
ROOT
ATOM      1  N   UNL     1       1.072  11.114  18.277  0.00  0.00    +0.000 N 
ATOM      2  C   UNL     1       1.406   9.818  18.617  0.00  0.00    +0.000 C 
ATOM      3  O   UNL     1       0.963   9.278  19.625  0.00  0.00    +0.000 OA
ATOM      4  N   UNL     1       2.292   9.246  17.732  0.00  0.00    +0.000 N 
ATOM      5  C   UNL     1       2.732   7.945  17.870  0.00  0.00    +0.000 A 
ATOM      6  N   UNL     1       3.884   7.522  17.405  0.00  0.00    +0.000 NA
ATOM      7  C   UNL     1       4.089   6.205  17.802  0.00  0.00    +0.000 A 
ATOM      8  C   UNL     1       5.245   5.429  17.577  0.00  0.00    +0.000 A 
ATOM      9  C   UNL     1       5.322   4.123  18.088  0.00  0.00    +0.000 A 
ATOM     10  C   UNL     1       4.252   3.589  18.814  0.00  0.00    +0.000 A 
ATOM     11  C   UNL     1       3.081   4.326  19.032  0.00  0.00    +0.000 A 
ATOM     12  C   UNL     1       3.031   5.628  18.507  0.00  0.00    +0.000 A 
ATOM     13  S   UNL     1       1.742   6.750  18.586  0.00  0.00    +0.000 S 
ATOM     14  H   UNL     1       1.170  11.353  17.300  0.00  0.00    +0.000 HD
ATOM     15  H   UNL     1       2.944   9.853  17.266  0.00  0.00    +0.000 HD
ENDROOT
BRANCH   1  17
ATOM     16  C   UNL     1       0.641  12.199  20.471  0.00  0.00    +0.000 C 
ATOM     17  C   UNL     1       0.090  11.889  19.065  0.00  0.00    +0.000 C 
ATOM     18  C   UNL     1      -1.253  11.140  19.174  0.00  0.00    +0.000 C 
ATOM     19  C   UNL     1      -0.172  13.232  18.361  0.00  0.00    +0.000 C 
ENDBRANCH   1  17
BRANCH  10  20
ATOM     20  N   UNL     1       4.345   2.228  19.361  0.00  0.00    +0.000 N 
ATOM     21  O   UNL     1       5.045   2.060  20.370  0.00  0.00    +0.000 OA
ATOM     22  O   UNL     1       3.722   1.326  18.786  0.00  0.00    +0.000 OA
ENDBRANCH  10  20
TORSDOF 2
ENDMDL
MODEL 5
REMARK VINA RESULT:      -6.2      1.493      1.873
REMARK  Name = 
REMARK  5 active torsions:
REMARK  status: ('A' for Active; 'I' for Inactive)
REMARK    1  A    between atoms: C_1  and  C_2
REMARK    2  A    between atoms: C_2  and  C_3
REMARK    3  A    between atoms: C_2  and  C_4
REMARK    4  A    between atoms: C_2  and  N_5
REMARK    5  A    between atoms: C_14  and  N_15
REMARK                            x       y       z     vdW  Elec       q    Type
REMARK                         _______ _______ _______ _____ _____    ______ ____
ROOT
ATOM      1  N   UNL     1       1.551   7.485  21.021  0.00  0.00    +0.000 N 
ATOM      2  C   UNL     1       2.286   7.310  19.865  0.00  0.00    +0.000 C 
ATOM      3  O   UNL     1       2.278   8.140  18.962  0.00  0.00    +0.000 OA
ATOM      4  N   UNL     1       2.972   6.118  19.844  0.00  0.00    +0.000 N 
ATOM      5  C   UNL     1       3.793   5.760  18.793  0.00  0.00    +0.000 A 
ATOM      6  N   UNL     1       4.055   4.514  18.477  0.00  0.00    +0.000 NA
ATOM      7  C   UNL     1       4.811   4.481  17.310  0.00  0.00    +0.000 A 
ATOM      8  C   UNL     1       5.218   3.330  16.604  0.00  0.00    +0.000 A 
ATOM      9  C   UNL     1       5.938   3.461  15.405  0.00  0.00    +0.000 A 
ATOM     10  C   UNL     1       6.258   4.732  14.915  0.00  0.00    +0.000 A 
ATOM     11  C   UNL     1       5.891   5.892  15.608  0.00  0.00    +0.000 A 
ATOM     12  C   UNL     1       5.174   5.730  16.804  0.00  0.00    +0.000 A 
ATOM     13  S   UNL     1       4.614   6.943  17.873  0.00  0.00    +0.000 S 
ATOM     14  H   UNL     1       1.875   6.973  21.831  0.00  0.00    +0.000 HD
ATOM     15  H   UNL     1       2.569   5.338  20.334  0.00  0.00    +0.000 HD
ENDROOT
BRANCH   1  17
ATOM     16  C   UNL     1      -0.678   8.401  21.626  0.00  0.00    +0.000 C 
ATOM     17  C   UNL     1       0.786   8.725  21.269  0.00  0.00    +0.000 C 
ATOM     18  C   UNL     1       0.840   9.666  20.050  0.00  0.00    +0.000 C 
ATOM     19  C   UNL     1       1.403   9.466  22.468  0.00  0.00    +0.000 C 
ENDBRANCH   1  17
BRANCH  10  20
ATOM     20  N   UNL     1       6.998   4.864  13.651  0.00  0.00    +0.000 N 
ATOM     21  O   UNL     1       7.939   5.670  13.617  0.00  0.00    +0.000 OA
ATOM     22  O   UNL     1       6.642   4.165  12.693  0.00  0.00    +0.000 OA
ENDBRANCH  10  20
TORSDOF 2
ENDMDL
MODEL 6
REMARK VINA RESULT:      -6.2      4.040      8.525
REMARK  Name = 
REMARK  5 active torsions:
REMARK  status: ('A' for Active; 'I' for Inactive)
REMARK    1  A    between atoms: C_1  and  C_2
REMARK    2  A    between atoms: C_2  and  C_3
REMARK    3  A    between atoms: C_2  and  C_4
REMARK    4  A    between atoms: C_2  and  N_5
REMARK    5  A    between atoms: C_14  and  N_15
REMARK                            x       y       z     vdW  Elec       q    Type
REMARK                         _______ _______ _______ _____ _____    ______ ____
ROOT
ATOM      1  N   UNL     1       2.898   4.093  18.618  0.00  0.00    +0.000 N 
ATOM      2  C   UNL     1       2.245   5.141  19.236  0.00  0.00    +0.000 C 
ATOM      3  O   UNL     1       1.437   4.957  20.141  0.00  0.00    +0.000 OA
ATOM      4  N   UNL     1       2.581   6.366  18.705  0.00  0.00    +0.000 N 
ATOM      5  C   UNL     1       2.065   7.547  19.200  0.00  0.00    +0.000 A 
ATOM      6  N   UNL     1       1.938   8.634  18.476  0.00  0.00    +0.000 NA
ATOM      7  C   UNL     1       1.284   9.612  19.220  0.00  0.00    +0.000 A 
ATOM      8  C   UNL     1       0.884  10.886  18.766  0.00  0.00    +0.000 A 
ATOM      9  C   UNL     1       0.182  11.746  19.626  0.00  0.00    +0.000 A 
ATOM     10  C   UNL     1      -0.113  11.345  20.933  0.00  0.00    +0.000 A 
ATOM     11  C   UNL     1       0.294  10.097  21.420  0.00  0.00    +0.000 A 
ATOM     12  C   UNL     1       0.995   9.258  20.539  0.00  0.00    +0.000 A 
ATOM     13  S   UNL     1       1.638   7.703  20.847  0.00  0.00    +0.000 S 
ATOM     14  H   UNL     1       3.771   4.322  18.165  0.00  0.00    +0.000 HD
ATOM     15  H   UNL     1       2.827   6.401  17.732  0.00  0.00    +0.000 HD
ENDROOT
BRANCH   1  17
ATOM     16  C   UNL     1       1.246   2.268  18.961  0.00  0.00    +0.000 C 
ATOM     17  C   UNL     1       2.722   2.697  19.074  0.00  0.00    +0.000 C 
ATOM     18  C   UNL     1       3.218   2.518  20.522  0.00  0.00    +0.000 C 
ATOM     19  C   UNL     1       3.548   1.765  18.171  0.00  0.00    +0.000 C 
ENDBRANCH   1  17
BRANCH  10  20
ATOM     20  N   UNL     1      -0.862  12.244  21.824  0.00  0.00    +0.000 N 
ATOM     21  O   UNL     1      -1.704  12.993  21.308  0.00  0.00    +0.000 OA
ATOM     22  O   UNL     1      -0.613  12.202  23.036  0.00  0.00    +0.000 OA
ENDBRANCH  10  20
TORSDOF 2
ENDMDL
MODEL 7
REMARK VINA RESULT:      -6.2      2.483      3.414
REMARK  Name = 
REMARK  5 active torsions:
REMARK  status: ('A' for Active; 'I' for Inactive)
REMARK    1  A    between atoms: C_1  and  C_2
REMARK    2  A    between atoms: C_2  and  C_3
REMARK    3  A    between atoms: C_2  and  C_4
REMARK    4  A    between atoms: C_2  and  N_5
REMARK    5  A    between atoms: C_14  and  N_15
REMARK                            x       y       z     vdW  Elec       q    Type
REMARK                         _______ _______ _______ _____ _____    ______ ____
ROOT
ATOM      1  N   UNL     1      -0.397  11.350  20.036  0.00  0.00    +0.000 N 
ATOM      2  C   UNL     1       0.181  10.239  19.455  0.00  0.00    +0.000 C 
ATOM      3  O   UNL     1       0.104  10.025  18.250  0.00  0.00    +0.000 OA
ATOM      4  N   UNL     1       0.801   9.420  20.370  0.00  0.00    +0.000 N 
ATOM      5  C   UNL     1       1.468   8.271  19.995  0.00  0.00    +0.000 A 
ATOM      6  N   UNL     1       1.629   7.240  20.791  0.00  0.00    +0.000 NA
ATOM      7  C   UNL     1       2.235   6.203  20.089  0.00  0.00    +0.000 A 
ATOM      8  C   UNL     1       2.495   4.902  20.570  0.00  0.00    +0.000 A 
ATOM      9  C   UNL     1       3.069   3.944  19.719  0.00  0.00    +0.000 A 
ATOM     10  C   UNL     1       3.388   4.279  18.398  0.00  0.00    +0.000 A 
ATOM     11  C   UNL     1       3.165   5.569  17.901  0.00  0.00    +0.000 A 
ATOM     12  C   UNL     1       2.593   6.507  18.775  0.00  0.00    +0.000 A 
ATOM     13  S   UNL     1       2.228   8.150  18.469  0.00  0.00    +0.000 S 
ATOM     14  H   UNL     1      -0.002  11.642  20.920  0.00  0.00    +0.000 HD
ATOM     15  H   UNL     1       0.424   9.390  21.301  0.00  0.00    +0.000 HD
ENDROOT
BRANCH   1  17
ATOM     16  C   UNL     1      -1.759  13.427  20.124  0.00  0.00    +0.000 C 
ATOM     17  C   UNL     1      -1.065  12.388  19.222  0.00  0.00    +0.000 C 
ATOM     18  C   UNL     1      -2.084  11.762  18.250  0.00  0.00    +0.000 C 
ATOM     19  C   UNL     1      -0.007  13.130  18.386  0.00  0.00    +0.000 C 
ENDBRANCH   1  17
BRANCH  10  20
ATOM     20  N   UNL     1       3.973   3.266  17.507  0.00  0.00    +0.000 N 
ATOM     21  O   UNL     1       4.778   3.652  16.647  0.00  0.00    +0.000 OA
ATOM     22  O   UNL     1       3.632   2.086  17.664  0.00  0.00    +0.000 OA
ENDBRANCH  10  20
TORSDOF 2
ENDMDL
MODEL 8
REMARK VINA RESULT:      -6.2      2.429      8.214
REMARK  Name = 
REMARK  5 active torsions:
REMARK  status: ('A' for Active; 'I' for Inactive)
REMARK    1  A    between atoms: C_1  and  C_2
REMARK    2  A    between atoms: C_2  and  C_3
REMARK    3  A    between atoms: C_2  and  C_4
REMARK    4  A    between atoms: C_2  and  N_5
REMARK    5  A    between atoms: C_14  and  N_15
REMARK                            x       y       z     vdW  Elec       q    Type
REMARK                         _______ _______ _______ _____ _____    ______ ____
ROOT
ATOM      1  N   UNL     1       4.697   5.109  17.434  0.00  0.00    +0.000 N 
ATOM      2  C   UNL     1       4.099   6.292  17.822  0.00  0.00    +0.000 C 
ATOM      3  O   UNL     1       4.454   7.376  17.371  0.00  0.00    +0.000 OA
ATOM      4  N   UNL     1       3.116   6.107  18.767  0.00  0.00    +0.000 N 
ATOM      5  C   UNL     1       2.371   7.157  19.267  0.00  0.00    +0.000 A 
ATOM      6  N   UNL     1       1.814   7.141  20.455  0.00  0.00    +0.000 NA
ATOM      7  C   UNL     1       1.236   8.379  20.713  0.00  0.00    +0.000 A 
ATOM      8  C   UNL     1       0.619   8.786  21.915  0.00  0.00    +0.000 A 
ATOM      9  C   UNL     1       0.126  10.095  22.041  0.00  0.00    +0.000 A 
ATOM     10  C   UNL     1       0.239  10.993  20.974  0.00  0.00    +0.000 A 
ATOM     11  C   UNL     1       0.823  10.610  19.760  0.00  0.00    +0.000 A 
ATOM     12  C   UNL     1       1.306   9.295  19.662  0.00  0.00    +0.000 A 
ATOM     13  S   UNL     1       2.038   8.536  18.315  0.00  0.00    +0.000 S 
ATOM     14  H   UNL     1       4.142   4.274  17.555  0.00  0.00    +0.000 HD
ATOM     15  H   UNL     1       3.218   5.336  19.403  0.00  0.00    +0.000 HD
ENDROOT
BRANCH   1  17
ATOM     16  C   UNL     1       7.086   5.582  16.942  0.00  0.00    +0.000 C 
ATOM     17  C   UNL     1       5.740   5.080  16.386  0.00  0.00    +0.000 C 
ATOM     18  C   UNL     1       5.323   5.918  15.162  0.00  0.00    +0.000 C 
ATOM     19  C   UNL     1       5.942   3.627  15.919  0.00  0.00    +0.000 C 
ENDBRANCH   1  17
BRANCH  10  20
ATOM     20  N   UNL     1      -0.264  12.367  21.117  0.00  0.00    +0.000 N 
ATOM     21  O   UNL     1      -0.956  12.825  20.196  0.00  0.00    +0.000 OA
ATOM     22  O   UNL     1       0.029  12.989  22.146  0.00  0.00    +0.000 OA
ENDBRANCH  10  20
TORSDOF 2
ENDMDL
MODEL 9
REMARK VINA RESULT:      -6.1      0.816      1.261
REMARK  Name = 
REMARK  5 active torsions:
REMARK  status: ('A' for Active; 'I' for Inactive)
REMARK    1  A    between atoms: C_1  and  C_2
REMARK    2  A    between atoms: C_2  and  C_3
REMARK    3  A    between atoms: C_2  and  C_4
REMARK    4  A    between atoms: C_2  and  N_5
REMARK    5  A    between atoms: C_14  and  N_15
REMARK                            x       y       z     vdW  Elec       q    Type
REMARK                         _______ _______ _______ _____ _____    ______ ____
ROOT
ATOM      1  N   UNL     1       0.166   9.881  19.876  0.00  0.00    +0.000 N 
ATOM      2  C   UNL     1       1.019   9.250  18.992  0.00  0.00    +0.000 C 
ATOM      3  O   UNL     1       1.142   9.627  17.831  0.00  0.00    +0.000 OA
ATOM      4  N   UNL     1       1.662   8.169  19.550  0.00  0.00    +0.000 N 
ATOM      5  C   UNL     1       2.582   7.417  18.847  0.00  0.00    +0.000 A 
ATOM      6  N   UNL     1       2.834   6.157  19.113  0.00  0.00    +0.000 NA
ATOM      7  C   UNL     1       3.715   5.651  18.163  0.00  0.00    +0.000 A 
ATOM      8  C   UNL     1       4.158   4.316  18.053  0.00  0.00    +0.000 A 
ATOM      9  C   UNL     1       5.012   3.946  17.002  0.00  0.00    +0.000 A 
ATOM     10  C   UNL     1       5.430   4.901  16.067  0.00  0.00    +0.000 A 
ATOM     11  C   UNL     1       5.028   6.238  16.166  0.00  0.00    +0.000 A 
ATOM     12  C   UNL     1       4.176   6.580  17.228  0.00  0.00    +0.000 A 
ATOM     13  S   UNL     1       3.542   8.120  17.621  0.00  0.00    +0.000 S 
ATOM     14  H   UNL     1       0.379   9.760  20.857  0.00  0.00    +0.000 HD
ATOM     15  H   UNL     1       1.179   7.659  20.270  0.00  0.00    +0.000 HD
ENDROOT
BRANCH   1  17
ATOM     16  C   UNL     1       0.373  12.156  18.900  0.00  0.00    +0.000 C 
ATOM     17  C   UNL     1      -0.579  11.099  19.494  0.00  0.00    +0.000 C 
ATOM     18  C   UNL     1      -1.342  11.686  20.697  0.00  0.00    +0.000 C 
ATOM     19  C   UNL     1      -1.609  10.739  18.409  0.00  0.00    +0.000 C 
ENDBRANCH   1  17
BRANCH  10  20
ATOM     20  N   UNL     1       6.311   4.503  14.959  0.00  0.00    +0.000 N 
ATOM     21  O   UNL     1       5.790   3.949  13.981  0.00  0.00    +0.000 OA
ATOM     22  O   UNL     1       7.521   4.744  15.063  0.00  0.00    +0.000 OA
ENDBRANCH  10  20
TORSDOF 2
ENDMDL
