MODEL 1
REMARK VINA RESULT:      -7.2      0.000      0.000
REMARK  Name = 
REMARK  8 active torsions:
REMARK  status: ('A' for Active; 'I' for Inactive)
REMARK    1  A    between atoms: C_1  and  C_2
REMARK    2  A    between atoms: C_2  and  C_3
REMARK    3  A    between atoms: C_3  and  C_4
REMARK    4  A    between atoms: C_4  and  C_5
REMARK    5  A    between atoms: C_5  and  C_6
REMARK    6  A    between atoms: N_8  and  C_9
REMARK    7  A    between atoms: C_14  and  N_15
REMARK    8  A    between atoms: N_18  and  C_19
REMARK                            x       y       z     vdW  Elec       q    Type
REMARK                         _______ _______ _______ _____ _____    ______ ____
ROOT
ATOM      1  C   UNL     1       4.579   4.511  16.573  0.00  0.00    +0.000 A 
ATOM      2  C   UNL     1       5.350   3.656  15.769  0.00  0.00    +0.000 A 
ATOM      3  C   UNL     1       6.642   4.011  15.402  0.00  0.00    +0.000 A 
ATOM      4  C   UNL     1       7.170   5.211  15.859  0.00  0.00    +0.000 A 
ATOM      5  C   UNL     1       6.405   6.054  16.676  0.00  0.00    +0.000 A 
ATOM      6  C   UNL     1       5.086   5.743  17.059  0.00  0.00    +0.000 A 
ENDROOT
BRANCH   6   7
ATOM      7  N   UNL     1       4.381   6.583  17.913  0.00  0.00    +0.000 N 
ATOM      8  C   UNL     1       3.814   7.877  17.476  0.00  0.00    +0.000 C 
ATOM      9  C   UNL     1       2.323   8.046  17.834  0.00  0.00    +0.000 C 
ATOM     10  N   UNL     1       2.092   7.701  19.242  0.00  0.00    +0.000 N 
ATOM     11  C   UNL     1       2.559   6.353  19.605  0.00  0.00    +0.000 C 
ATOM     12  C   UNL     1       4.068   6.210  19.308  0.00  0.00    +0.000 C 
BRANCH  10  13
ATOM     13  C   UNL     1       1.381   8.513  20.100  0.00  0.00    +0.000 A 
ATOM     14  C   UNL     1       0.714   9.667  19.652  0.00  0.00    +0.000 A 
ATOM     15  C   UNL     1       0.020  10.508  20.530  0.00  0.00    +0.000 A 
ATOM     16  C   UNL     1      -0.024  10.212  21.888  0.00  0.00    +0.000 A 
ATOM     17  C   UNL     1       0.625   9.078  22.360  0.00  0.00    +0.000 A 
ATOM     18  C   UNL     1       1.317   8.247  21.473  0.00  0.00    +0.000 A 
ENDBRANCH  10  13
ENDBRANCH   6   7
BRANCH   1  21
ATOM     19  C   UNL     1       2.903   3.138  17.686  0.00  0.00    +0.000 C 
ATOM     20  O   UNL     1       3.701   2.416  18.278  0.00  0.00    +0.000 OA
ATOM     21  N   UNL     1       3.233   4.155  16.806  0.00  0.00    +0.000 N 
ATOM     22  H   UNL     1       2.576   4.920  16.722  0.00  0.00    +0.000 HD
BRANCH  19  23
ATOM     23  C   UNL     1       1.413   2.999  17.910  0.00  0.00    +0.000 C 
BRANCH  23  24
ATOM     24  C   UNL     1       1.104   2.286  19.221  0.00  0.00    +0.000 C 
BRANCH  24  25
ATOM     25  C   UNL     1       0.753   3.273  20.336  0.00  0.00    +0.000 C 
BRANCH  25  27
ATOM     26  C   UNL     1       2.843   2.601  21.553  0.00  0.00    +0.000 C 
ATOM     27  C   UNL     1       1.347   2.835  21.671  0.00  0.00    +0.000 C 
ENDBRANCH  25  27
ENDBRANCH  24  25
ENDBRANCH  23  24
ENDBRANCH  19  23
ENDBRANCH   1  21
TORSDOF 7
ENDMDL
MODEL 2
REMARK VINA RESULT:      -7.2      2.701      5.078
REMARK  Name = 
REMARK  8 active torsions:
REMARK  status: ('A' for Active; 'I' for Inactive)
REMARK    1  A    between atoms: C_1  and  C_2
REMARK    2  A    between atoms: C_2  and  C_3
REMARK    3  A    between atoms: C_3  and  C_4
REMARK    4  A    between atoms: C_4  and  C_5
REMARK    5  A    between atoms: C_5  and  C_6
REMARK    6  A    between atoms: N_8  and  C_9
REMARK    7  A    between atoms: C_14  and  N_15
REMARK    8  A    between atoms: N_18  and  C_19
REMARK                            x       y       z     vdW  Elec       q    Type
REMARK                         _______ _______ _______ _____ _____    ______ ____
ROOT
ATOM      1  C   UNL     1       6.339   5.946  16.555  0.00  0.00    +0.000 A 
ATOM      2  C   UNL     1       6.991   5.105  15.639  0.00  0.00    +0.000 A 
ATOM      3  C   UNL     1       6.377   3.942  15.192  0.00  0.00    +0.000 A 
ATOM      4  C   UNL     1       5.103   3.631  15.646  0.00  0.00    +0.000 A 
ATOM      5  C   UNL     1       4.448   4.480  16.547  0.00  0.00    +0.000 A 
ATOM      6  C   UNL     1       5.037   5.660  17.040  0.00  0.00    +0.000 A 
ENDROOT
BRANCH   6   7
ATOM      7  N   UNL     1       4.332   6.501  17.892  0.00  0.00    +0.000 N 
ATOM      8  C   UNL     1       3.754   7.789  17.450  0.00  0.00    +0.000 C 
ATOM      9  C   UNL     1       2.265   7.951  17.817  0.00  0.00    +0.000 C 
ATOM     10  N   UNL     1       2.045   7.615  19.229  0.00  0.00    +0.000 N 
ATOM     11  C   UNL     1       2.524   6.272  19.599  0.00  0.00    +0.000 C 
ATOM     12  C   UNL     1       4.031   6.137  19.292  0.00  0.00    +0.000 C 
BRANCH  10  13
ATOM     13  C   UNL     1       1.335   8.428  20.086  0.00  0.00    +0.000 A 
ATOM     14  C   UNL     1       0.750   9.633  19.656  0.00  0.00    +0.000 A 
ATOM     15  C   UNL     1       0.057  10.473  20.535  0.00  0.00    +0.000 A 
ATOM     16  C   UNL     1      -0.069  10.127  21.876  0.00  0.00    +0.000 A 
ATOM     17  C   UNL     1       0.497   8.943  22.329  0.00  0.00    +0.000 A 
ATOM     18  C   UNL     1       1.189   8.111  21.442  0.00  0.00    +0.000 A 
ENDBRANCH  10  13
ENDBRANCH   6   7
BRANCH   1  21
ATOM     19  C   UNL     1       7.757   6.949  18.262  0.00  0.00    +0.000 C 
ATOM     20  O   UNL     1       7.764   5.976  19.011  0.00  0.00    +0.000 OA
ATOM     21  N   UNL     1       7.063   7.044  17.068  0.00  0.00    +0.000 N 
ATOM     22  H   UNL     1       7.445   7.661  16.363  0.00  0.00    +0.000 HD
BRANCH  19  23
ATOM     23  C   UNL     1       8.583   8.178  18.575  0.00  0.00    +0.000 C 
BRANCH  23  24
ATOM     24  C   UNL     1       8.198   9.357  17.691  0.00  0.00    +0.000 C 
BRANCH  24  25
ATOM     25  C   UNL     1       8.741  10.679  18.237  0.00  0.00    +0.000 C 
BRANCH  25  27
ATOM     26  C   UNL     1       9.333  11.280  20.602  0.00  0.00    +0.000 C 
ATOM     27  C   UNL     1       9.712  10.446  19.390  0.00  0.00    +0.000 C 
ENDBRANCH  25  27
ENDBRANCH  24  25
ENDBRANCH  23  24
ENDBRANCH  19  23
ENDBRANCH   1  21
TORSDOF 7
ENDMDL
MODEL 3
REMARK VINA RESULT:      -7.1      2.131      5.092
REMARK  Name = 
REMARK  8 active torsions:
REMARK  status: ('A' for Active; 'I' for Inactive)
REMARK    1  A    between atoms: C_1  and  C_2
REMARK    2  A    between atoms: C_2  and  C_3
REMARK    3  A    between atoms: C_3  and  C_4
REMARK    4  A    between atoms: C_4  and  C_5
REMARK    5  A    between atoms: C_5  and  C_6
REMARK    6  A    between atoms: N_8  and  C_9
REMARK    7  A    between atoms: C_14  and  N_15
REMARK    8  A    between atoms: N_18  and  C_19
REMARK                            x       y       z     vdW  Elec       q    Type
REMARK                         _______ _______ _______ _____ _____    ______ ____
ROOT
ATOM      1  C   UNL     1       3.348   4.780  19.328  0.00  0.00    +0.000 A 
ATOM      2  C   UNL     1       3.301   3.383  19.461  0.00  0.00    +0.000 A 
ATOM      3  C   UNL     1       2.225   2.773  20.093  0.00  0.00    +0.000 A 
ATOM      4  C   UNL     1       1.186   3.559  20.572  0.00  0.00    +0.000 A 
ATOM      5  C   UNL     1       1.227   4.951  20.423  0.00  0.00    +0.000 A 
ATOM      6  C   UNL     1       2.305   5.614  19.804  0.00  0.00    +0.000 A 
ENDROOT
BRANCH   6   7
ATOM      7  N   UNL     1       2.282   6.993  19.630  0.00  0.00    +0.000 N 
ATOM      8  C   UNL     1       2.662   7.647  18.360  0.00  0.00    +0.000 C 
ATOM      9  C   UNL     1       1.610   8.652  17.848  0.00  0.00    +0.000 C 
ATOM     10  N   UNL     1       1.203   9.562  18.926  0.00  0.00    +0.000 N 
ATOM     11  C   UNL     1       0.712   8.870  20.129  0.00  0.00    +0.000 C 
ATOM     12  C   UNL     1       1.794   7.914  20.678  0.00  0.00    +0.000 C 
BRANCH  10  13
ATOM     13  C   UNL     1       1.159  10.931  18.767  0.00  0.00    +0.000 A 
ATOM     14  C   UNL     1       2.277  11.667  18.337  0.00  0.00    +0.000 A 
ATOM     15  C   UNL     1       2.239  13.060  18.208  0.00  0.00    +0.000 A 
ATOM     16  C   UNL     1       1.073  13.755  18.508  0.00  0.00    +0.000 A 
ATOM     17  C   UNL     1      -0.047  13.055  18.934  0.00  0.00    +0.000 A 
ATOM     18  C   UNL     1       0.002  11.663  19.061  0.00  0.00    +0.000 A 
ENDBRANCH  10  13
ENDBRANCH   6   7
BRANCH   1  21
ATOM     19  C   UNL     1       4.845   5.200  17.453  0.00  0.00    +0.000 C 
ATOM     20  O   UNL     1       4.218   4.530  16.636  0.00  0.00    +0.000 OA
ATOM     21  N   UNL     1       4.524   5.349  18.792  0.00  0.00    +0.000 N 
ATOM     22  H   UNL     1       4.818   6.206  19.241  0.00  0.00    +0.000 HD
BRANCH  19  23
ATOM     23  C   UNL     1       6.063   5.995  17.036  0.00  0.00    +0.000 C 
BRANCH  23  24
ATOM     24  C   UNL     1       7.285   5.634  17.872  0.00  0.00    +0.000 C 
BRANCH  24  25
ATOM     25  C   UNL     1       7.949   6.874  18.475  0.00  0.00    +0.000 C 
BRANCH  25  27
ATOM     26  C   UNL     1       8.458   9.311  18.153  0.00  0.00    +0.000 C 
ATOM     27  C   UNL     1       7.699   8.109  17.616  0.00  0.00    +0.000 C 
ENDBRANCH  25  27
ENDBRANCH  24  25
ENDBRANCH  23  24
ENDBRANCH  19  23
ENDBRANCH   1  21
TORSDOF 7
ENDMDL
MODEL 4
REMARK VINA RESULT:      -7.0      2.400      4.992
REMARK  Name = 
REMARK  8 active torsions:
REMARK  status: ('A' for Active; 'I' for Inactive)
REMARK    1  A    between atoms: C_1  and  C_2
REMARK    2  A    between atoms: C_2  and  C_3
REMARK    3  A    between atoms: C_3  and  C_4
REMARK    4  A    between atoms: C_4  and  C_5
REMARK    5  A    between atoms: C_5  and  C_6
REMARK    6  A    between atoms: N_8  and  C_9
REMARK    7  A    between atoms: C_14  and  N_15
REMARK    8  A    between atoms: N_18  and  C_19
REMARK                            x       y       z     vdW  Elec       q    Type
REMARK                         _______ _______ _______ _____ _____    ______ ____
ROOT
ATOM      1  C   UNL     1       3.902   5.278  17.738  0.00  0.00    +0.000 A 
ATOM      2  C   UNL     1       4.003   3.959  17.265  0.00  0.00    +0.000 A 
ATOM      3  C   UNL     1       2.894   3.123  17.273  0.00  0.00    +0.000 A 
ATOM      4  C   UNL     1       1.679   3.612  17.733  0.00  0.00    +0.000 A 
ATOM      5  C   UNL     1       1.577   4.933  18.188  0.00  0.00    +0.000 A 
ATOM      6  C   UNL     1       2.677   5.811  18.214  0.00  0.00    +0.000 A 
ENDROOT
BRANCH   6   7
ATOM      7  N   UNL     1       2.521   7.130  18.625  0.00  0.00    +0.000 N 
ATOM      8  C   UNL     1       2.486   8.266  17.677  0.00  0.00    +0.000 C 
ATOM      9  C   UNL     1       1.272   9.195  17.879  0.00  0.00    +0.000 C 
ATOM     10  N   UNL     1       1.130   9.554  19.295  0.00  0.00    +0.000 N 
ATOM     11  C   UNL     1       1.042   8.390  20.194  0.00  0.00    +0.000 C 
ATOM     12  C   UNL     1       2.292   7.497  20.038  0.00  0.00    +0.000 C 
BRANCH  10  13
ATOM     13  C   UNL     1       0.958  10.854  19.720  0.00  0.00    +0.000 A 
ATOM     14  C   UNL     1       1.494  11.945  19.014  0.00  0.00    +0.000 A 
ATOM     15  C   UNL     1       1.346  13.262  19.465  0.00  0.00    +0.000 A 
ATOM     16  C   UNL     1       0.652  13.521  20.642  0.00  0.00    +0.000 A 
ATOM     17  C   UNL     1       0.111  12.463  21.360  0.00  0.00    +0.000 A 
ATOM     18  C   UNL     1       0.267  11.151  20.901  0.00  0.00    +0.000 A 
ENDBRANCH  10  13
ENDBRANCH   6   7
BRANCH   1  21
ATOM     19  C   UNL     1       5.599   6.695  16.717  0.00  0.00    +0.000 C 
ATOM     20  O   UNL     1       5.145   6.638  15.577  0.00  0.00    +0.000 OA
ATOM     21  N   UNL     1       5.089   6.037  17.823  0.00  0.00    +0.000 N 
ATOM     22  H   UNL     1       5.249   6.465  18.726  0.00  0.00    +0.000 HD
BRANCH  19  23
ATOM     23  C   UNL     1       6.794   7.567  17.036  0.00  0.00    +0.000 C 
BRANCH  23  24
ATOM     24  C   UNL     1       7.717   6.909  18.054  0.00  0.00    +0.000 C 
BRANCH  24  25
ATOM     25  C   UNL     1       8.551   7.941  18.816  0.00  0.00    +0.000 C 
BRANCH  25  27
ATOM     26  C   UNL     1       9.198  10.361  18.992  0.00  0.00    +0.000 C 
ATOM     27  C   UNL     1       8.432   9.325  18.186  0.00  0.00    +0.000 C 
ENDBRANCH  25  27
ENDBRANCH  24  25
ENDBRANCH  23  24
ENDBRANCH  19  23
ENDBRANCH   1  21
TORSDOF 7
ENDMDL
MODEL 5
REMARK VINA RESULT:      -6.9      1.956      4.950
REMARK  Name = 
REMARK  8 active torsions:
REMARK  status: ('A' for Active; 'I' for Inactive)
REMARK    1  A    between atoms: C_1  and  C_2
REMARK    2  A    between atoms: C_2  and  C_3
REMARK    3  A    between atoms: C_3  and  C_4
REMARK    4  A    between atoms: C_4  and  C_5
REMARK    5  A    between atoms: C_5  and  C_6
REMARK    6  A    between atoms: N_8  and  C_9
REMARK    7  A    between atoms: C_14  and  N_15
REMARK    8  A    between atoms: N_18  and  C_19
REMARK                            x       y       z     vdW  Elec       q    Type
REMARK                         _______ _______ _______ _____ _____    ______ ____
ROOT
ATOM      1  C   UNL     1       3.044   4.807  18.825  0.00  0.00    +0.000 A 
ATOM      2  C   UNL     1       2.926   3.409  18.886  0.00  0.00    +0.000 A 
ATOM      3  C   UNL     1       2.013   2.818  19.751  0.00  0.00    +0.000 A 
ATOM      4  C   UNL     1       1.205   3.626  20.539  0.00  0.00    +0.000 A 
ATOM      5  C   UNL     1       1.314   5.021  20.464  0.00  0.00    +0.000 A 
ATOM      6  C   UNL     1       2.235   5.663  19.615  0.00  0.00    +0.000 A 
ENDROOT
BRANCH   6   7
ATOM      7  N   UNL     1       2.275   7.050  19.533  0.00  0.00    +0.000 N 
ATOM      8  C   UNL     1       2.709   7.769  18.316  0.00  0.00    +0.000 C 
ATOM      9  C   UNL     1       1.711   8.850  17.854  0.00  0.00    +0.000 C 
ATOM     10  N   UNL     1       1.321   9.705  18.983  0.00  0.00    +0.000 N 
ATOM     11  C   UNL     1       0.777   8.957  20.129  0.00  0.00    +0.000 C 
ATOM     12  C   UNL     1       1.806   7.921  20.631  0.00  0.00    +0.000 C 
BRANCH  10  13
ATOM     13  C   UNL     1       1.338  11.081  18.915  0.00  0.00    +0.000 A 
ATOM     14  C   UNL     1       2.271  11.777  18.125  0.00  0.00    +0.000 A 
ATOM     15  C   UNL     1       2.307  13.175  18.083  0.00  0.00    +0.000 A 
ATOM     16  C   UNL     1       1.405  13.918  18.837  0.00  0.00    +0.000 A 
ATOM     17  C   UNL     1       0.472  13.259  19.626  0.00  0.00    +0.000 A 
ATOM     18  C   UNL     1       0.446  11.860  19.661  0.00  0.00    +0.000 A 
ENDBRANCH  10  13
ENDBRANCH   6   7
BRANCH   1  21
ATOM     19  C   UNL     1       5.406   5.188  18.369  0.00  0.00    +0.000 C 
ATOM     20  O   UNL     1       5.822   4.660  19.397  0.00  0.00    +0.000 OA
ATOM     21  N   UNL     1       4.075   5.343  18.023  0.00  0.00    +0.000 N 
ATOM     22  H   UNL     1       3.860   5.384  17.035  0.00  0.00    +0.000 HD
BRANCH  19  23
ATOM     23  C   UNL     1       6.364   5.707  17.319  0.00  0.00    +0.000 C 
BRANCH  23  24
ATOM     24  C   UNL     1       7.096   4.573  16.614  0.00  0.00    +0.000 C 
BRANCH  24  25
ATOM     25  C   UNL     1       6.181   3.819  15.646  0.00  0.00    +0.000 C 
BRANCH  25  27
ATOM     26  C   UNL     1       6.161   3.694  13.138  0.00  0.00    +0.000 C 
ATOM     27  C   UNL     1       5.987   4.597  14.348  0.00  0.00    +0.000 C 
ENDBRANCH  25  27
ENDBRANCH  24  25
ENDBRANCH  23  24
ENDBRANCH  19  23
ENDBRANCH   1  21
TORSDOF 7
ENDMDL
MODEL 6
REMARK VINA RESULT:      -6.8      1.999      4.927
REMARK  Name = 
REMARK  8 active torsions:
REMARK  status: ('A' for Active; 'I' for Inactive)
REMARK    1  A    between atoms: C_1  and  C_2
REMARK    2  A    between atoms: C_2  and  C_3
REMARK    3  A    between atoms: C_3  and  C_4
REMARK    4  A    between atoms: C_4  and  C_5
REMARK    5  A    between atoms: C_5  and  C_6
REMARK    6  A    between atoms: N_8  and  C_9
REMARK    7  A    between atoms: C_14  and  N_15
REMARK    8  A    between atoms: N_18  and  C_19
REMARK                            x       y       z     vdW  Elec       q    Type
REMARK                         _______ _______ _______ _____ _____    ______ ____
ROOT
ATOM      1  C   UNL     1       3.589   5.190  19.101  0.00  0.00    +0.000 A 
ATOM      2  C   UNL     1       3.689   3.795  19.222  0.00  0.00    +0.000 A 
ATOM      3  C   UNL     1       2.754   3.085  19.965  0.00  0.00    +0.000 A 
ATOM      4  C   UNL     1       1.708   3.768  20.568  0.00  0.00    +0.000 A 
ATOM      5  C   UNL     1       1.601   5.159  20.432  0.00  0.00    +0.000 A 
ATOM      6  C   UNL     1       2.533   5.921  19.703  0.00  0.00    +0.000 A 
ENDROOT
BRANCH   6   7
ATOM      7  N   UNL     1       2.361   7.292  19.549  0.00  0.00    +0.000 N 
ATOM      8  C   UNL     1       2.554   7.984  18.257  0.00  0.00    +0.000 C 
ATOM      9  C   UNL     1       1.366   8.883  17.859  0.00  0.00    +0.000 C 
ATOM     10  N   UNL     1       0.977   9.746  18.981  0.00  0.00    +0.000 N 
ATOM     11  C   UNL     1       0.672   9.006  20.217  0.00  0.00    +0.000 C 
ATOM     12  C   UNL     1       1.888   8.158  20.650  0.00  0.00    +0.000 C 
BRANCH  10  13
ATOM     13  C   UNL     1       0.786  11.104  18.845  0.00  0.00    +0.000 A 
ATOM     14  C   UNL     1      -0.498  11.670  18.750  0.00  0.00    +0.000 A 
ATOM     15  C   UNL     1      -0.689  13.045  18.579  0.00  0.00    +0.000 A 
ATOM     16  C   UNL     1       0.408  13.896  18.498  0.00  0.00    +0.000 A 
ATOM     17  C   UNL     1       1.688  13.366  18.589  0.00  0.00    +0.000 A 
ATOM     18  C   UNL     1       1.867  11.989  18.759  0.00  0.00    +0.000 A 
ENDBRANCH  10  13
ENDBRANCH   6   7
BRANCH   1  21
ATOM     19  C   UNL     1       5.953   5.716  18.844  0.00  0.00    +0.000 C 
ATOM     20  O   UNL     1       6.335   5.067  19.814  0.00  0.00    +0.000 OA
ATOM     21  N   UNL     1       4.637   5.869  18.442  0.00  0.00    +0.000 N 
ATOM     22  H   UNL     1       4.474   6.037  17.458  0.00  0.00    +0.000 HD
BRANCH  19  23
ATOM     23  C   UNL     1       6.943   6.408  17.932  0.00  0.00    +0.000 C 
BRANCH  23  24
ATOM     24  C   UNL     1       6.805   5.938  16.489  0.00  0.00    +0.000 C 
BRANCH  24  25
ATOM     25  C   UNL     1       7.092   4.441  16.348  0.00  0.00    +0.000 C 
BRANCH  25  27
ATOM     26  C   UNL     1       6.103   3.995  14.085  0.00  0.00    +0.000 C 
ATOM     27  C   UNL     1       5.983   3.735  15.577  0.00  0.00    +0.000 C 
ENDBRANCH  25  27
ENDBRANCH  24  25
ENDBRANCH  23  24
ENDBRANCH  19  23
ENDBRANCH   1  21
TORSDOF 7
ENDMDL
MODEL 7
REMARK VINA RESULT:      -6.8      2.357      5.093
REMARK  Name = 
REMARK  8 active torsions:
REMARK  status: ('A' for Active; 'I' for Inactive)
REMARK    1  A    between atoms: C_1  and  C_2
REMARK    2  A    between atoms: C_2  and  C_3
REMARK    3  A    between atoms: C_3  and  C_4
REMARK    4  A    between atoms: C_4  and  C_5
REMARK    5  A    between atoms: C_5  and  C_6
REMARK    6  A    between atoms: N_8  and  C_9
REMARK    7  A    between atoms: C_14  and  N_15
REMARK    8  A    between atoms: N_18  and  C_19
REMARK                            x       y       z     vdW  Elec       q    Type
REMARK                         _______ _______ _______ _____ _____    ______ ____
ROOT
ATOM      1  C   UNL     1       3.880   4.340  18.629  0.00  0.00    +0.000 A 
ATOM      2  C   UNL     1       3.860   2.964  18.348  0.00  0.00    +0.000 A 
ATOM      3  C   UNL     1       2.655   2.307  18.136  0.00  0.00    +0.000 A 
ATOM      4  C   UNL     1       1.471   3.031  18.184  0.00  0.00    +0.000 A 
ATOM      5  C   UNL     1       1.495   4.407  18.447  0.00  0.00    +0.000 A 
ATOM      6  C   UNL     1       2.691   5.111  18.685  0.00  0.00    +0.000 A 
ENDROOT
BRANCH   6   7
ATOM      7  N   UNL     1       2.674   6.485  18.891  0.00  0.00    +0.000 N 
ATOM      8  C   UNL     1       2.979   7.460  17.822  0.00  0.00    +0.000 C 
ATOM      9  C   UNL     1       1.909   8.560  17.671  0.00  0.00    +0.000 C 
ATOM     10  N   UNL     1       1.585   9.143  18.979  0.00  0.00    +0.000 N 
ATOM     11  C   UNL     1       1.165   8.149  19.981  0.00  0.00    +0.000 C 
ATOM     12  C   UNL     1       2.268   7.087  20.178  0.00  0.00    +0.000 C 
BRANCH  10  13
ATOM     13  C   UNL     1       1.547  10.504  19.199  0.00  0.00    +0.000 A 
ATOM     14  C   UNL     1       0.959  11.056  20.350  0.00  0.00    +0.000 A 
ATOM     15  C   UNL     1       0.893  12.438  20.557  0.00  0.00    +0.000 A 
ATOM     16  C   UNL     1       1.419  13.309  19.608  0.00  0.00    +0.000 A 
ATOM     17  C   UNL     1       2.007  12.793  18.462  0.00  0.00    +0.000 A 
ATOM     18  C   UNL     1       2.065  11.409  18.266  0.00  0.00    +0.000 A 
ENDBRANCH  10  13
ENDBRANCH   6   7
BRANCH   1  21
ATOM     19  C   UNL     1       6.076   5.176  17.989  0.00  0.00    +0.000 C 
ATOM     20  O   UNL     1       5.989   4.869  16.803  0.00  0.00    +0.000 OA
ATOM     21  N   UNL     1       5.122   4.924  18.960  0.00  0.00    +0.000 N 
ATOM     22  H   UNL     1       5.091   5.558  19.748  0.00  0.00    +0.000 HD
BRANCH  19  23
ATOM     23  C   UNL     1       7.279   5.931  18.512  0.00  0.00    +0.000 C 
BRANCH  23  24
ATOM     24  C   UNL     1       7.534   7.206  17.718  0.00  0.00    +0.000 C 
BRANCH  24  25
ATOM     25  C   UNL     1       8.444   8.175  18.474  0.00  0.00    +0.000 C 
BRANCH  25  27
ATOM     26  C   UNL     1       9.237  10.550  18.669  0.00  0.00    +0.000 C 
ATOM     27  C   UNL     1       8.278   9.604  17.966  0.00  0.00    +0.000 C 
ENDBRANCH  25  27
ENDBRANCH  24  25
ENDBRANCH  23  24
ENDBRANCH  19  23
ENDBRANCH   1  21
TORSDOF 7
ENDMDL
MODEL 8
REMARK VINA RESULT:      -6.8      2.020      5.101
REMARK  Name = 
REMARK  8 active torsions:
REMARK  status: ('A' for Active; 'I' for Inactive)
REMARK    1  A    between atoms: C_1  and  C_2
REMARK    2  A    between atoms: C_2  and  C_3
REMARK    3  A    between atoms: C_3  and  C_4
REMARK    4  A    between atoms: C_4  and  C_5
REMARK    5  A    between atoms: C_5  and  C_6
REMARK    6  A    between atoms: N_8  and  C_9
REMARK    7  A    between atoms: C_14  and  N_15
REMARK    8  A    between atoms: N_18  and  C_19
REMARK                            x       y       z     vdW  Elec       q    Type
REMARK                         _______ _______ _______ _____ _____    ______ ____
ROOT
ATOM      1  C   UNL     1       2.704   4.964  18.583  0.00  0.00    +0.000 A 
ATOM      2  C   UNL     1       2.557   3.569  18.642  0.00  0.00    +0.000 A 
ATOM      3  C   UNL     1       1.856   2.979  19.686  0.00  0.00    +0.000 A 
ATOM      4  C   UNL     1       1.284   3.787  20.660  0.00  0.00    +0.000 A 
ATOM      5  C   UNL     1       1.419   5.179  20.590  0.00  0.00    +0.000 A 
ATOM      6  C   UNL     1       2.134   5.820  19.560  0.00  0.00    +0.000 A 
ENDROOT
BRANCH   6   7
ATOM      7  N   UNL     1       2.198   7.207  19.499  0.00  0.00    +0.000 N 
ATOM      8  C   UNL     1       2.604   7.938  18.279  0.00  0.00    +0.000 C 
ATOM      9  C   UNL     1       1.612   9.047  17.871  0.00  0.00    +0.000 C 
ATOM     10  N   UNL     1       1.281   9.889  19.028  0.00  0.00    +0.000 N 
ATOM     11  C   UNL     1       0.762   9.133  20.180  0.00  0.00    +0.000 C 
ATOM     12  C   UNL     1       1.787   8.068  20.628  0.00  0.00    +0.000 C 
BRANCH  10  13
ATOM     13  C   UNL     1       1.324  11.266  18.982  0.00  0.00    +0.000 A 
ATOM     14  C   UNL     1       0.430  12.063  19.719  0.00  0.00    +0.000 A 
ATOM     15  C   UNL     1       0.454  13.461  19.647  0.00  0.00    +0.000 A 
ATOM     16  C   UNL     1       1.380  14.100  18.829  0.00  0.00    +0.000 A 
ATOM     17  C   UNL     1       2.276  13.338  18.090  0.00  0.00    +0.000 A 
ATOM     18  C   UNL     1       2.241  11.942  18.169  0.00  0.00    +0.000 A 
ENDBRANCH  10  13
ENDBRANCH   6   7
BRANCH   1  21
ATOM     19  C   UNL     1       4.913   5.438  17.672  0.00  0.00    +0.000 C 
ATOM     20  O   UNL     1       5.543   5.011  18.636  0.00  0.00    +0.000 OA
ATOM     21  N   UNL     1       3.533   5.494  17.571  0.00  0.00    +0.000 N 
ATOM     22  H   UNL     1       3.139   5.450  16.640  0.00  0.00    +0.000 HD
BRANCH  19  23
ATOM     23  C   UNL     1       5.626   5.928  16.431  0.00  0.00    +0.000 C 
BRANCH  23  24
ATOM     24  C   UNL     1       6.892   5.127  16.154  0.00  0.00    +0.000 C 
BRANCH  24  25
ATOM     25  C   UNL     1       7.024   4.764  14.673  0.00  0.00    +0.000 C 
BRANCH  25  27
ATOM     26  C   UNL     1       5.959   3.560  12.745  0.00  0.00    +0.000 C 
ATOM     27  C   UNL     1       5.753   4.105  14.149  0.00  0.00    +0.000 C 
ENDBRANCH  25  27
ENDBRANCH  24  25
ENDBRANCH  23  24
ENDBRANCH  19  23
ENDBRANCH   1  21
TORSDOF 7
ENDMDL
MODEL 9
REMARK VINA RESULT:      -6.8      2.327      5.243
REMARK  Name = 
REMARK  8 active torsions:
REMARK  status: ('A' for Active; 'I' for Inactive)
REMARK    1  A    between atoms: C_1  and  C_2
REMARK    2  A    between atoms: C_2  and  C_3
REMARK    3  A    between atoms: C_3  and  C_4
REMARK    4  A    between atoms: C_4  and  C_5
REMARK    5  A    between atoms: C_5  and  C_6
REMARK    6  A    between atoms: N_8  and  C_9
REMARK    7  A    between atoms: C_14  and  N_15
REMARK    8  A    between atoms: N_18  and  C_19
REMARK                            x       y       z     vdW  Elec       q    Type
REMARK                         _______ _______ _______ _____ _____    ______ ____
ROOT
ATOM      1  C   UNL     1       2.890   5.041  18.641  0.00  0.00    +0.000 A 
ATOM      2  C   UNL     1       2.787   3.643  18.558  0.00  0.00    +0.000 A 
ATOM      3  C   UNL     1       1.936   2.950  19.409  0.00  0.00    +0.000 A 
ATOM      4  C   UNL     1       1.172   3.657  20.328  0.00  0.00    +0.000 A 
ATOM      5  C   UNL     1       1.265   5.054  20.396  0.00  0.00    +0.000 A 
ATOM      6  C   UNL     1       2.126   5.796  19.566  0.00  0.00    +0.000 A 
ENDROOT
BRANCH   6   7
ATOM      7  N   UNL     1       2.149   7.184  19.631  0.00  0.00    +0.000 N 
ATOM      8  C   UNL     1       2.415   8.038  18.453  0.00  0.00    +0.000 C 
ATOM      9  C   UNL     1       1.361   9.145  18.246  0.00  0.00    +0.000 C 
ATOM     10  N   UNL     1       1.121   9.865  19.503  0.00  0.00    +0.000 N 
ATOM     11  C   UNL     1       0.736   8.989  20.622  0.00  0.00    +0.000 C 
ATOM     12  C   UNL     1       1.826   7.924  20.869  0.00  0.00    +0.000 C 
BRANCH  10  13
ATOM     13  C   UNL     1       1.124  11.241  19.584  0.00  0.00    +0.000 A 
ATOM     14  C   UNL     1       1.615  12.048  18.542  0.00  0.00    +0.000 A 
ATOM     15  C   UNL     1       1.647  13.444  18.640  0.00  0.00    +0.000 A 
ATOM     16  C   UNL     1       1.184  14.071  19.791  0.00  0.00    +0.000 A 
ATOM     17  C   UNL     1       0.693  13.301  20.837  0.00  0.00    +0.000 A 
ATOM     18  C   UNL     1       0.668  11.907  20.728  0.00  0.00    +0.000 A 
ENDBRANCH  10  13
ENDBRANCH   6   7
BRANCH   1  21
ATOM     19  C   UNL     1       5.183   5.762  18.249  0.00  0.00    +0.000 C 
ATOM     20  O   UNL     1       5.623   5.385  19.332  0.00  0.00    +0.000 OA
ATOM     21  N   UNL     1       3.864   5.675  17.839  0.00  0.00    +0.000 N 
ATOM     22  H   UNL     1       3.696   5.608  16.843  0.00  0.00    +0.000 HD
BRANCH  19  23
ATOM     23  C   UNL     1       6.101   6.349  17.198  0.00  0.00    +0.000 C 
BRANCH  23  24
ATOM     24  C   UNL     1       7.434   6.786  17.793  0.00  0.00    +0.000 C 
BRANCH  24  25
ATOM     25  C   UNL     1       7.711   8.269  17.539  0.00  0.00    +0.000 C 
BRANCH  25  27
ATOM     26  C   UNL     1       8.951  10.308  18.321  0.00  0.00    +0.000 C 
ATOM     27  C   UNL     1       8.607   8.859  18.624  0.00  0.00    +0.000 C 
ENDBRANCH  25  27
ENDBRANCH  24  25
ENDBRANCH  23  24
ENDBRANCH  19  23
ENDBRANCH   1  21
TORSDOF 7
ENDMDL
