MODEL 1
REMARK VINA RESULT:      -7.3      0.000      0.000
REMARK  Name = 
REMARK  6 active torsions:
REMARK  status: ('A' for Active; 'I' for Inactive)
REMARK    1  A    between atoms: C_1  and  C_2
REMARK    2  A    between atoms: C_2  and  C_3
REMARK    3  A    between atoms: N_5  and  N_6
REMARK    4  A    between atoms: N_5  and  S_18
REMARK    5  A    between atoms: S_18  and  C_21
REMARK    6  A    between atoms: C_24  and  C_25
REMARK                            x       y       z     vdW  Elec       q    Type
REMARK                         _______ _______ _______ _____ _____    ______ ____
ROOT
ATOM      1  C   UNL     1       6.497   4.707  14.730  0.00  0.00    +0.000 C 
ATOM      2  O   UNL     1       7.598   5.207  14.524  0.00  0.00    +0.000 OA
ATOM      3  N   UNL     1       5.861   4.742  16.021  0.00  0.00    +0.000 N 
ENDROOT
BRANCH   3   4
ATOM      4  N   UNL     1       4.431   4.176  16.160  0.00  0.00    +0.000 N 
ATOM      5  C   UNL     1       4.177   3.397  17.285  0.00  0.00    +0.000 C 
ATOM      6  N   UNL     1       5.064   2.636  17.864  0.00  0.00    +0.000 NA
ATOM      7  S   UNL     1       4.401   1.768  19.090  0.00  0.00    +0.000 S 
ATOM      8  O   UNL     1       4.872   2.242  20.370  0.00  0.00    +0.000 OA
ATOM      9  O   UNL     1       4.372   0.362  18.738  0.00  0.00    +0.000 OA
ATOM     10  C   UNL     1       2.786   2.371  18.880  0.00  0.00    +0.000 A 
ATOM     11  C   UNL     1       1.643   2.000  19.565  0.00  0.00    +0.000 A 
ATOM     12  C   UNL     1       0.462   2.653  19.219  0.00  0.00    +0.000 A 
ATOM     13  C   UNL     1       0.463   3.643  18.217  0.00  0.00    +0.000 A 
ATOM     14  C   UNL     1       1.639   3.977  17.526  0.00  0.00    +0.000 A 
ATOM     15  C   UNL     1       2.806   3.310  17.864  0.00  0.00    +0.000 A 
ATOM     16  H   UNL     1       3.735   4.881  15.935  0.00  0.00    +0.000 HD
ENDBRANCH   3   4
BRANCH   3  17
ATOM     17  S   UNL     1       6.360   5.956  17.154  0.00  0.00    +0.000 S 
ATOM     18  O   UNL     1       7.358   5.403  18.049  0.00  0.00    +0.000 OA
ATOM     19  O   UNL     1       6.706   7.147  16.395  0.00  0.00    +0.000 OA
BRANCH  17  20
ATOM     20  C   UNL     1       4.888   6.290  18.093  0.00  0.00    +0.000 A 
ATOM     21  C   UNL     1       3.884   7.114  17.577  0.00  0.00    +0.000 A 
ATOM     22  C   UNL     1       2.724   7.345  18.328  0.00  0.00    +0.000 A 
ATOM     23  C   UNL     1       2.558   6.747  19.585  0.00  0.00    +0.000 A 
ATOM     24  C   UNL     1       1.342   7.014  20.424  0.00  0.00    +0.000 C 
ATOM     25  C   UNL     1       3.556   5.896  20.073  0.00  0.00    +0.000 A 
ATOM     26  C   UNL     1       4.705   5.651  19.321  0.00  0.00    +0.000 A 
ENDBRANCH  17  20
ENDBRANCH   3  17
BRANCH   1  28
ATOM     27  C   UNL     1       6.641   3.677  12.424  0.00  0.00    +0.000 C 
ATOM     28  C   UNL     1       5.745   3.993  13.616  0.00  0.00    +0.000 C 
ENDBRANCH   1  28
TORSDOF 4
ENDMDL
MODEL 2
REMARK VINA RESULT:      -7.0      3.400      6.257
REMARK  Name = 
REMARK  6 active torsions:
REMARK  status: ('A' for Active; 'I' for Inactive)
REMARK    1  A    between atoms: C_1  and  C_2
REMARK    2  A    between atoms: C_2  and  C_3
REMARK    3  A    between atoms: N_5  and  N_6
REMARK    4  A    between atoms: N_5  and  S_18
REMARK    5  A    between atoms: S_18  and  C_21
REMARK    6  A    between atoms: C_24  and  C_25
REMARK                            x       y       z     vdW  Elec       q    Type
REMARK                         _______ _______ _______ _____ _____    ______ ____
ROOT
ATOM      1  C   UNL     1       2.620   3.568  19.703  0.00  0.00    +0.000 C 
ATOM      2  O   UNL     1       3.146   2.579  20.202  0.00  0.00    +0.000 OA
ATOM      3  N   UNL     1       3.345   4.788  19.457  0.00  0.00    +0.000 N 
ENDROOT
BRANCH   3   4
ATOM      4  N   UNL     1       2.625   5.945  18.732  0.00  0.00    +0.000 N 
ATOM      5  C   UNL     1       2.106   6.955  19.537  0.00  0.00    +0.000 C 
ATOM      6  N   UNL     1       1.641   6.767  20.741  0.00  0.00    +0.000 NA
ATOM      7  S   UNL     1       1.001   8.146  21.360  0.00  0.00    +0.000 S 
ATOM      8  O   UNL     1       1.827   8.666  22.424  0.00  0.00    +0.000 OA
ATOM      9  O   UNL     1      -0.437   8.009  21.483  0.00  0.00    +0.000 OA
ATOM     10  C   UNL     1       1.295   9.124  19.955  0.00  0.00    +0.000 A 
ATOM     11  C   UNL     1       0.933  10.442  19.745  0.00  0.00    +0.000 A 
ATOM     12  C   UNL     1       1.306  11.010  18.528  0.00  0.00    +0.000 A 
ATOM     13  C   UNL     1       2.020  10.254  17.579  0.00  0.00    +0.000 A 
ATOM     14  C   UNL     1       2.349   8.910  17.818  0.00  0.00    +0.000 A 
ATOM     15  C   UNL     1       1.959   8.347  19.022  0.00  0.00    +0.000 A 
ATOM     16  H   UNL     1       3.148   6.247  17.915  0.00  0.00    +0.000 HD
ENDBRANCH   3   4
BRANCH   3  17
ATOM     17  S   UNL     1       5.073   4.710  19.334  0.00  0.00    +0.000 S 
ATOM     18  O   UNL     1       5.644   5.988  19.711  0.00  0.00    +0.000 OA
ATOM     19  O   UNL     1       5.510   3.525  20.053  0.00  0.00    +0.000 OA
BRANCH  17  20
ATOM     20  C   UNL     1       5.362   4.459  17.597  0.00  0.00    +0.000 A 
ATOM     21  C   UNL     1       4.354   3.947  16.774  0.00  0.00    +0.000 A 
ATOM     22  C   UNL     1       4.599   3.778  15.404  0.00  0.00    +0.000 A 
ATOM     23  C   UNL     1       5.840   4.128  14.854  0.00  0.00    +0.000 A 
ATOM     24  C   UNL     1       6.139   3.915  13.398  0.00  0.00    +0.000 C 
ATOM     25  C   UNL     1       6.826   4.671  15.685  0.00  0.00    +0.000 A 
ATOM     26  C   UNL     1       6.581   4.856  17.046  0.00  0.00    +0.000 A 
ENDBRANCH  17  20
ENDBRANCH   3  17
BRANCH   1  28
ATOM     27  C   UNL     1       0.713   2.248  18.693  0.00  0.00    +0.000 C 
ATOM     28  C   UNL     1       1.144   3.563  19.332  0.00  0.00    +0.000 C 
ENDBRANCH   1  28
TORSDOF 4
ENDMDL
MODEL 3
REMARK VINA RESULT:      -7.0      2.721      3.496
REMARK  Name = 
REMARK  6 active torsions:
REMARK  status: ('A' for Active; 'I' for Inactive)
REMARK    1  A    between atoms: C_1  and  C_2
REMARK    2  A    between atoms: C_2  and  C_3
REMARK    3  A    between atoms: N_5  and  N_6
REMARK    4  A    between atoms: N_5  and  S_18
REMARK    5  A    between atoms: S_18  and  C_21
REMARK    6  A    between atoms: C_24  and  C_25
REMARK                            x       y       z     vdW  Elec       q    Type
REMARK                         _______ _______ _______ _____ _____    ______ ____
ROOT
ATOM      1  C   UNL     1       6.627   5.183  16.000  0.00  0.00    +0.000 C 
ATOM      2  O   UNL     1       7.779   5.033  15.605  0.00  0.00    +0.000 OA
ATOM      3  N   UNL     1       6.273   5.119  17.394  0.00  0.00    +0.000 N 
ENDROOT
BRANCH   3   4
ATOM      4  N   UNL     1       4.815   5.421  17.804  0.00  0.00    +0.000 N 
ATOM      5  C   UNL     1       4.016   4.323  18.112  0.00  0.00    +0.000 C 
ATOM      6  N   UNL     1       4.136   3.151  17.555  0.00  0.00    +0.000 NA
ATOM      7  S   UNL     1       2.963   2.121  18.065  0.00  0.00    +0.000 S 
ATOM      8  O   UNL     1       3.514   1.092  18.916  0.00  0.00    +0.000 OA
ATOM      9  O   UNL     1       2.055   1.830  16.974  0.00  0.00    +0.000 OA
ATOM     10  C   UNL     1       2.159   3.266  19.096  0.00  0.00    +0.000 A 
ATOM     11  C   UNL     1       0.996   3.086  19.823  0.00  0.00    +0.000 A 
ATOM     12  C   UNL     1       0.564   4.163  20.594  0.00  0.00    +0.000 A 
ATOM     13  C   UNL     1       1.299   5.364  20.614  0.00  0.00    +0.000 A 
ATOM     14  C   UNL     1       2.463   5.518  19.843  0.00  0.00    +0.000 A 
ATOM     15  C   UNL     1       2.876   4.448  19.066  0.00  0.00    +0.000 A 
ATOM     16  H   UNL     1       4.771   6.204  18.449  0.00  0.00    +0.000 HD
ENDBRANCH   3   4
BRANCH   3  17
ATOM     17  S   UNL     1       7.514   5.391  18.573  0.00  0.00    +0.000 S 
ATOM     18  O   UNL     1       6.973   5.187  19.903  0.00  0.00    +0.000 OA
ATOM     19  O   UNL     1       8.672   4.606  18.178  0.00  0.00    +0.000 OA
BRANCH  17  20
ATOM     20  C   UNL     1       7.906   7.115  18.386  0.00  0.00    +0.000 A 
ATOM     21  C   UNL     1       7.318   7.873  17.369  0.00  0.00    +0.000 A 
ATOM     22  C   UNL     1       7.626   9.235  17.255  0.00  0.00    +0.000 A 
ATOM     23  C   UNL     1       8.508   9.844  18.157  0.00  0.00    +0.000 A 
ATOM     24  C   UNL     1       8.885  11.291  18.028  0.00  0.00    +0.000 C 
ATOM     25  C   UNL     1       9.061   9.081  19.192  0.00  0.00    +0.000 A 
ATOM     26  C   UNL     1       8.745   7.728  19.318  0.00  0.00    +0.000 A 
ENDBRANCH  17  20
ENDBRANCH   3  17
BRANCH   1  28
ATOM     27  C   UNL     1       5.271   4.241  14.083  0.00  0.00    +0.000 C 
ATOM     28  C   UNL     1       5.492   5.426  15.016  0.00  0.00    +0.000 C 
ENDBRANCH   1  28
TORSDOF 4
ENDMDL
MODEL 4
REMARK VINA RESULT:      -6.9      3.482      6.302
REMARK  Name = 
REMARK  6 active torsions:
REMARK  status: ('A' for Active; 'I' for Inactive)
REMARK    1  A    between atoms: C_1  and  C_2
REMARK    2  A    between atoms: C_2  and  C_3
REMARK    3  A    between atoms: N_5  and  N_6
REMARK    4  A    between atoms: N_5  and  S_18
REMARK    5  A    between atoms: S_18  and  C_21
REMARK    6  A    between atoms: C_24  and  C_25
REMARK                            x       y       z     vdW  Elec       q    Type
REMARK                         _______ _______ _______ _____ _____    ______ ____
ROOT
ATOM      1  C   UNL     1       3.003   4.143  18.984  0.00  0.00    +0.000 C 
ATOM      2  O   UNL     1       3.673   3.169  19.310  0.00  0.00    +0.000 OA
ATOM      3  N   UNL     1       3.573   5.456  18.823  0.00  0.00    +0.000 N 
ENDROOT
BRANCH   3   4
ATOM      4  N   UNL     1       2.671   6.599  18.311  0.00  0.00    +0.000 N 
ATOM      5  C   UNL     1       2.118   7.434  19.278  0.00  0.00    +0.000 C 
ATOM      6  N   UNL     1       1.785   7.047  20.477  0.00  0.00    +0.000 NA
ATOM      7  S   UNL     1       1.057   8.254  21.318  0.00  0.00    +0.000 S 
ATOM      8  O   UNL     1       1.913   8.735  22.377  0.00  0.00    +0.000 OA
ATOM      9  O   UNL     1      -0.341   7.934  21.528  0.00  0.00    +0.000 OA
ATOM     10  C   UNL     1       1.117   9.424  20.036  0.00  0.00    +0.000 A 
ATOM     11  C   UNL     1       0.598  10.706  20.028  0.00  0.00    +0.000 A 
ATOM     12  C   UNL     1       0.797  11.458  18.872  0.00  0.00    +0.000 A 
ATOM     13  C   UNL     1       1.502  10.914  17.781  0.00  0.00    +0.000 A 
ATOM     14  C   UNL     1       1.994   9.599  17.816  0.00  0.00    +0.000 A 
ATOM     15  C   UNL     1       1.776   8.851  18.963  0.00  0.00    +0.000 A 
ATOM     16  H   UNL     1       3.083   7.057  17.504  0.00  0.00    +0.000 HD
ENDBRANCH   3   4
BRANCH   3  17
ATOM     17  S   UNL     1       5.278   5.584  18.533  0.00  0.00    +0.000 S 
ATOM     18  O   UNL     1       5.680   6.974  18.614  0.00  0.00    +0.000 OA
ATOM     19  O   UNL     1       5.943   4.627  19.403  0.00  0.00    +0.000 OA
BRANCH  17  20
ATOM     20  C   UNL     1       5.463   5.045  16.849  0.00  0.00    +0.000 A 
ATOM     21  C   UNL     1       5.338   5.951  15.793  0.00  0.00    +0.000 A 
ATOM     22  C   UNL     1       5.509   5.507  14.475  0.00  0.00    +0.000 A 
ATOM     23  C   UNL     1       5.815   4.165  14.210  0.00  0.00    +0.000 A 
ATOM     24  C   UNL     1       5.961   3.658  12.804  0.00  0.00    +0.000 C 
ATOM     25  C   UNL     1       5.973   3.277  15.280  0.00  0.00    +0.000 A 
ATOM     26  C   UNL     1       5.819   3.719  16.594  0.00  0.00    +0.000 A 
ENDBRANCH  17  20
ENDBRANCH   3  17
BRANCH   1  28
ATOM     27  C   UNL     1       0.760   3.577  20.008  0.00  0.00    +0.000 C 
ATOM     28  C   UNL     1       1.504   4.015  18.752  0.00  0.00    +0.000 C 
ENDBRANCH   1  28
TORSDOF 4
ENDMDL
MODEL 5
REMARK VINA RESULT:      -6.8      8.270     10.450
REMARK  Name = 
REMARK  6 active torsions:
REMARK  status: ('A' for Active; 'I' for Inactive)
REMARK    1  A    between atoms: C_1  and  C_2
REMARK    2  A    between atoms: C_2  and  C_3
REMARK    3  A    between atoms: N_5  and  N_6
REMARK    4  A    between atoms: N_5  and  S_18
REMARK    5  A    between atoms: S_18  and  C_21
REMARK    6  A    between atoms: C_24  and  C_25
REMARK                            x       y       z     vdW  Elec       q    Type
REMARK                         _______ _______ _______ _____ _____    ______ ____
ROOT
ATOM      1  C   UNL     1       0.303  14.107  19.281  0.00  0.00    +0.000 C 
ATOM      2  O   UNL     1       1.521  14.033  19.410  0.00  0.00    +0.000 OA
ATOM      3  N   UNL     1      -0.589  13.081  19.756  0.00  0.00    +0.000 N 
ENDROOT
BRANCH   3   4
ATOM      4  N   UNL     1      -2.111  13.308  19.639  0.00  0.00    +0.000 N 
ATOM      5  C   UNL     1      -2.829  12.355  18.922  0.00  0.00    +0.000 C 
ATOM      6  N   UNL     1      -2.353  11.692  17.906  0.00  0.00    +0.000 NA
ATOM      7  S   UNL     1      -3.500  10.735  17.223  0.00  0.00    +0.000 S 
ATOM      8  O   UNL     1      -3.225   9.340  17.476  0.00  0.00    +0.000 OA
ATOM      9  O   UNL     1      -3.841  11.239  15.908  0.00  0.00    +0.000 OA
ATOM     10  C   UNL     1      -4.784  11.210  18.291  0.00  0.00    +0.000 A 
ATOM     11  C   UNL     1      -6.112  10.824  18.249  0.00  0.00    +0.000 A 
ATOM     12  C   UNL     1      -6.947  11.335  19.241  0.00  0.00    +0.000 A 
ATOM     13  C   UNL     1      -6.434  12.198  20.228  0.00  0.00    +0.000 A 
ATOM     14  C   UNL     1      -5.084  12.587  20.225  0.00  0.00    +0.000 A 
ATOM     15  C   UNL     1      -4.265  12.088  19.224  0.00  0.00    +0.000 A 
ATOM     16  H   UNL     1      -2.508  13.593  20.530  0.00  0.00    +0.000 HD
ENDBRANCH   3   4
BRANCH   3  17
ATOM     17  S   UNL     1      -0.027  12.012  21.000  0.00  0.00    +0.000 S 
ATOM     18  O   UNL     1       1.026  12.661  21.758  0.00  0.00    +0.000 OA
ATOM     19  O   UNL     1      -1.192  11.529  21.723  0.00  0.00    +0.000 OA
BRANCH  17  20
ATOM     20  C   UNL     1       0.687  10.654  20.101  0.00  0.00    +0.000 A 
ATOM     21  C   UNL     1       1.060  10.804  18.762  0.00  0.00    +0.000 A 
ATOM     22  C   UNL     1       1.641   9.726  18.081  0.00  0.00    +0.000 A 
ATOM     23  C   UNL     1       1.859   8.505  18.734  0.00  0.00    +0.000 A 
ATOM     24  C   UNL     1       2.439   7.324  18.012  0.00  0.00    +0.000 C 
ATOM     25  C   UNL     1       1.513   8.381  20.084  0.00  0.00    +0.000 A 
ATOM     26  C   UNL     1       0.950   9.458  20.770  0.00  0.00    +0.000 A 
ENDBRANCH  17  20
ENDBRANCH   3  17
BRANCH   1  28
ATOM     27  C   UNL     1       0.011  16.619  19.252  0.00  0.00    +0.000 C 
ATOM     28  C   UNL     1      -0.336  15.296  18.579  0.00  0.00    +0.000 C 
ENDBRANCH   1  28
TORSDOF 4
ENDMDL
MODEL 6
REMARK VINA RESULT:      -6.7      7.628      9.797
REMARK  Name = 
REMARK  6 active torsions:
REMARK  status: ('A' for Active; 'I' for Inactive)
REMARK    1  A    between atoms: C_1  and  C_2
REMARK    2  A    between atoms: C_2  and  C_3
REMARK    3  A    between atoms: N_5  and  N_6
REMARK    4  A    between atoms: N_5  and  S_18
REMARK    5  A    between atoms: S_18  and  C_21
REMARK    6  A    between atoms: C_24  and  C_25
REMARK                            x       y       z     vdW  Elec       q    Type
REMARK                         _______ _______ _______ _____ _____    ______ ____
ROOT
ATOM      1  C   UNL     1       1.094  12.944  19.236  0.00  0.00    +0.000 C 
ATOM      2  O   UNL     1       2.267  12.626  19.404  0.00  0.00    +0.000 OA
ATOM      3  N   UNL     1      -0.001  12.091  19.620  0.00  0.00    +0.000 N 
ENDROOT
BRANCH   3   4
ATOM      4  N   UNL     1      -1.443  12.619  19.463  0.00  0.00    +0.000 N 
ATOM      5  C   UNL     1      -2.260  11.937  18.566  0.00  0.00    +0.000 C 
ATOM      6  N   UNL     1      -1.831  11.354  17.481  0.00  0.00    +0.000 NA
ATOM      7  S   UNL     1      -3.072  10.746  16.595  0.00  0.00    +0.000 S 
ATOM      8  O   UNL     1      -3.074   9.302  16.634  0.00  0.00    +0.000 OA
ATOM      9  O   UNL     1      -3.209  11.495  15.362  0.00  0.00    +0.000 OA
ATOM     10  C   UNL     1      -4.332  11.292  17.658  0.00  0.00    +0.000 A 
ATOM     11  C   UNL     1      -5.700  11.177  17.486  0.00  0.00    +0.000 A 
ATOM     12  C   UNL     1      -6.506  11.684  18.503  0.00  0.00    +0.000 A 
ATOM     13  C   UNL     1      -5.928  12.277  19.641  0.00  0.00    +0.000 A 
ATOM     14  C   UNL     1      -4.534  12.398  19.770  0.00  0.00    +0.000 A 
ATOM     15  C   UNL     1      -3.740  11.907  18.746  0.00  0.00    +0.000 A 
ATOM     16  H   UNL     1      -1.853  12.839  20.366  0.00  0.00    +0.000 HD
ENDBRANCH   3   4
BRANCH   3  17
ATOM     17  S   UNL     1       0.285  10.873  20.821  0.00  0.00    +0.000 S 
ATOM     18  O   UNL     1       1.247  11.363  21.789  0.00  0.00    +0.000 OA
ATOM     19  O   UNL     1      -1.009  10.425  21.307  0.00  0.00    +0.000 OA
BRANCH  17  20
ATOM     20  C   UNL     1       1.039   9.547  19.907  0.00  0.00    +0.000 A 
ATOM     21  C   UNL     1       1.231   9.652  18.526  0.00  0.00    +0.000 A 
ATOM     22  C   UNL     1       1.846   8.603  17.831  0.00  0.00    +0.000 A 
ATOM     23  C   UNL     1       2.279   7.455  18.510  0.00  0.00    +0.000 A 
ATOM     24  C   UNL     1       2.901   6.301  17.780  0.00  0.00    +0.000 C 
ATOM     25  C   UNL     1       2.111   7.380  19.897  0.00  0.00    +0.000 A 
ATOM     26  C   UNL     1       1.514   8.429  20.595  0.00  0.00    +0.000 A 
ENDBRANCH  17  20
ENDBRANCH   3  17
BRANCH   1  28
ATOM     27  C   UNL     1       1.785  15.342  18.828  0.00  0.00    +0.000 C 
ATOM     28  C   UNL     1       0.732  14.269  18.581  0.00  0.00    +0.000 C 
ENDBRANCH   1  28
TORSDOF 4
ENDMDL
MODEL 7
REMARK VINA RESULT:      -6.7      2.589      3.649
REMARK  Name = 
REMARK  6 active torsions:
REMARK  status: ('A' for Active; 'I' for Inactive)
REMARK    1  A    between atoms: C_1  and  C_2
REMARK    2  A    between atoms: C_2  and  C_3
REMARK    3  A    between atoms: N_5  and  N_6
REMARK    4  A    between atoms: N_5  and  S_18
REMARK    5  A    between atoms: S_18  and  C_21
REMARK    6  A    between atoms: C_24  and  C_25
REMARK                            x       y       z     vdW  Elec       q    Type
REMARK                         _______ _______ _______ _____ _____    ______ ____
ROOT
ATOM      1  C   UNL     1       6.600   4.766  15.717  0.00  0.00    +0.000 C 
ATOM      2  O   UNL     1       7.725   4.403  15.388  0.00  0.00    +0.000 OA
ATOM      3  N   UNL     1       6.192   4.869  17.094  0.00  0.00    +0.000 N 
ENDROOT
BRANCH   3   4
ATOM      4  N   UNL     1       4.790   5.432  17.412  0.00  0.00    +0.000 N 
ATOM      5  C   UNL     1       4.014   4.700  18.307  0.00  0.00    +0.000 C 
ATOM      6  N   UNL     1       4.059   3.402  18.424  0.00  0.00    +0.000 NA
ATOM      7  S   UNL     1       2.934   2.856  19.488  0.00  0.00    +0.000 S 
ATOM      8  O   UNL     1       3.559   2.372  20.696  0.00  0.00    +0.000 OA
ATOM      9  O   UNL     1       1.912   2.110  18.782  0.00  0.00    +0.000 OA
ATOM     10  C   UNL     1       2.259   4.416  19.847  0.00  0.00    +0.000 A 
ATOM     11  C   UNL     1       1.178   4.709  20.659  0.00  0.00    +0.000 A 
ATOM     12  C   UNL     1       0.844   6.054  20.800  0.00  0.00    +0.000 A 
ATOM     13  C   UNL     1       1.592   7.047  20.138  0.00  0.00    +0.000 A 
ATOM     14  C   UNL     1       2.669   6.709  19.302  0.00  0.00    +0.000 A 
ATOM     15  C   UNL     1       2.984   5.368  19.153  0.00  0.00    +0.000 A 
ATOM     16  H   UNL     1       4.825   6.436  17.564  0.00  0.00    +0.000 HD
ENDBRANCH   3   4
BRANCH   3  17
ATOM     17  S   UNL     1       7.419   5.028  18.308  0.00  0.00    +0.000 S 
ATOM     18  O   UNL     1       6.860   4.707  19.607  0.00  0.00    +0.000 OA
ATOM     19  O   UNL     1       8.580   4.278  17.858  0.00  0.00    +0.000 OA
BRANCH  17  20
ATOM     20  C   UNL     1       7.817   6.761  18.283  0.00  0.00    +0.000 A 
ATOM     21  C   UNL     1       8.629   7.320  19.273  0.00  0.00    +0.000 A 
ATOM     22  C   UNL     1       8.946   8.684  19.220  0.00  0.00    +0.000 A 
ATOM     23  C   UNL     1       8.465   9.487  18.177  0.00  0.00    +0.000 A 
ATOM     24  C   UNL     1       8.756  10.959  18.124  0.00  0.00    +0.000 C 
ATOM     25  C   UNL     1       7.682   8.905  17.174  0.00  0.00    +0.000 A 
ATOM     26  C   UNL     1       7.377   7.545  17.214  0.00  0.00    +0.000 A 
ENDBRANCH  17  20
ENDBRANCH   3  17
BRANCH   1  28
ATOM     27  C   UNL     1       5.466   4.056  13.570  0.00  0.00    +0.000 C 
ATOM     28  C   UNL     1       5.555   5.112  14.666  0.00  0.00    +0.000 C 
ENDBRANCH   1  28
TORSDOF 4
ENDMDL
MODEL 8
REMARK VINA RESULT:      -6.6      7.908     10.663
REMARK  Name = 
REMARK  6 active torsions:
REMARK  status: ('A' for Active; 'I' for Inactive)
REMARK    1  A    between atoms: C_1  and  C_2
REMARK    2  A    between atoms: C_2  and  C_3
REMARK    3  A    between atoms: N_5  and  N_6
REMARK    4  A    between atoms: N_5  and  S_18
REMARK    5  A    between atoms: S_18  and  C_21
REMARK    6  A    between atoms: C_24  and  C_25
REMARK                            x       y       z     vdW  Elec       q    Type
REMARK                         _______ _______ _______ _____ _____    ______ ____
ROOT
ATOM      1  C   UNL     1      -1.536  10.922  18.551  0.00  0.00    +0.000 C 
ATOM      2  O   UNL     1      -2.237  10.095  19.126  0.00  0.00    +0.000 OA
ATOM      3  N   UNL     1      -0.382  11.520  19.170  0.00  0.00    +0.000 N 
ENDROOT
BRANCH   3   4
ATOM      4  N   UNL     1       0.498  12.473  18.333  0.00  0.00    +0.000 N 
ATOM      5  C   UNL     1       0.538  13.803  18.742  0.00  0.00    +0.000 C 
ATOM      6  N   UNL     1      -0.459  14.426  19.306  0.00  0.00    +0.000 NA
ATOM      7  S   UNL     1      -0.114  16.012  19.553  0.00  0.00    +0.000 S 
ATOM      8  O   UNL     1       0.055  16.289  20.961  0.00  0.00    +0.000 OA
ATOM      9  O   UNL     1      -0.934  16.834  18.687  0.00  0.00    +0.000 OA
ATOM     10  C   UNL     1       1.471  15.960  18.845  0.00  0.00    +0.000 A 
ATOM     11  C   UNL     1       2.350  17.010  18.648  0.00  0.00    +0.000 A 
ATOM     12  C   UNL     1       3.579  16.701  18.070  0.00  0.00    +0.000 A 
ATOM     13  C   UNL     1       3.886  15.373  17.717  0.00  0.00    +0.000 A 
ATOM     14  C   UNL     1       2.959  14.336  17.911  0.00  0.00    +0.000 A 
ATOM     15  C   UNL     1       1.731  14.654  18.469  0.00  0.00    +0.000 A 
ATOM     16  H   UNL     1       1.392  12.045  18.110  0.00  0.00    +0.000 HD
ENDBRANCH   3   4
BRANCH   3  17
ATOM     17  S   UNL     1       0.364  10.692  20.497  0.00  0.00    +0.000 S 
ATOM     18  O   UNL     1       1.361  11.551  21.106  0.00  0.00    +0.000 OA
ATOM     19  O   UNL     1      -0.698  10.171  21.342  0.00  0.00    +0.000 OA
BRANCH  17  20
ATOM     20  C   UNL     1       1.200   9.324  19.727  0.00  0.00    +0.000 A 
ATOM     21  C   UNL     1       1.633   9.409  18.401  0.00  0.00    +0.000 A 
ATOM     22  C   UNL     1       2.308   8.326  17.822  0.00  0.00    +0.000 A 
ATOM     23  C   UNL     1       2.562   7.166  18.566  0.00  0.00    +0.000 A 
ATOM     24  C   UNL     1       3.245   5.977  17.954  0.00  0.00    +0.000 C 
ATOM     25  C   UNL     1       2.154   7.109  19.903  0.00  0.00    +0.000 A 
ATOM     26  C   UNL     1       1.496   8.192  20.488  0.00  0.00    +0.000 A 
ENDBRANCH  17  20
ENDBRANCH   3  17
BRANCH   1  28
ATOM     27  C   UNL     1      -2.382  10.238  16.267  0.00  0.00    +0.000 C 
ATOM     28  C   UNL     1      -1.870  11.379  17.139  0.00  0.00    +0.000 C 
ENDBRANCH   1  28
TORSDOF 4
ENDMDL
MODEL 9
REMARK VINA RESULT:      -6.6     10.205     11.318
REMARK  Name = 
REMARK  6 active torsions:
REMARK  status: ('A' for Active; 'I' for Inactive)
REMARK    1  A    between atoms: C_1  and  C_2
REMARK    2  A    between atoms: C_2  and  C_3
REMARK    3  A    between atoms: N_5  and  N_6
REMARK    4  A    between atoms: N_5  and  S_18
REMARK    5  A    between atoms: S_18  and  C_21
REMARK    6  A    between atoms: C_24  and  C_25
REMARK                            x       y       z     vdW  Elec       q    Type
REMARK                         _______ _______ _______ _____ _____    ______ ____
ROOT
ATOM      1  C   UNL     1       0.720  15.302  19.488  0.00  0.00    +0.000 C 
ATOM      2  O   UNL     1       1.908  15.483  19.735  0.00  0.00    +0.000 OA
ATOM      3  N   UNL     1      -0.029  14.209  20.050  0.00  0.00    +0.000 N 
ENDROOT
BRANCH   3   4
ATOM      4  N   UNL     1      -1.543  14.121  19.762  0.00  0.00    +0.000 N 
ATOM      5  C   UNL     1      -1.984  12.983  19.093  0.00  0.00    +0.000 C 
ATOM      6  N   UNL     1      -1.278  12.334  18.210  0.00  0.00    +0.000 NA
ATOM      7  S   UNL     1      -2.141  11.111  17.534  0.00  0.00    +0.000 S 
ATOM      8  O   UNL     1      -1.645   9.827  17.970  0.00  0.00    +0.000 OA
ATOM      9  O   UNL     1      -2.414  11.412  16.143  0.00  0.00    +0.000 OA
ATOM     10  C   UNL     1      -3.607  11.422  18.412  0.00  0.00    +0.000 A 
ATOM     11  C   UNL     1      -4.826  10.781  18.287  0.00  0.00    +0.000 A 
ATOM     12  C   UNL     1      -5.851  11.210  19.129  0.00  0.00    +0.000 A 
ATOM     13  C   UNL     1      -5.625  12.245  20.056  0.00  0.00    +0.000 A 
ATOM     14  C   UNL     1      -4.379  12.889  20.138  0.00  0.00    +0.000 A 
ATOM     15  C   UNL     1      -3.371  12.470  19.284  0.00  0.00    +0.000 A 
ATOM     16  H   UNL     1      -2.087  14.405  20.572  0.00  0.00    +0.000 HD
ENDBRANCH   3   4
BRANCH   3  17
ATOM     17  S   UNL     1       0.559  13.469  21.504  0.00  0.00    +0.000 S 
ATOM     18  O   UNL     1       1.183  12.200  21.183  0.00  0.00    +0.000 OA
ATOM     19  O   UNL     1       1.351  14.461  22.212  0.00  0.00    +0.000 OA
BRANCH  17  20
ATOM     20  C   UNL     1      -0.917  13.145  22.441  0.00  0.00    +0.000 A 
ATOM     21  C   UNL     1      -1.401  11.841  22.581  0.00  0.00    +0.000 A 
ATOM     22  C   UNL     1      -2.554  11.608  23.342  0.00  0.00    +0.000 A 
ATOM     23  C   UNL     1      -3.218  12.670  23.971  0.00  0.00    +0.000 A 
ATOM     24  C   UNL     1      -4.479  12.450  24.756  0.00  0.00    +0.000 C 
ATOM     25  C   UNL     1      -2.702  13.965  23.851  0.00  0.00    +0.000 A 
ATOM     26  C   UNL     1      -1.545  14.198  23.107  0.00  0.00    +0.000 A 
ENDBRANCH  17  20
ENDBRANCH   3  17
BRANCH   1  28
ATOM     27  C   UNL     1       0.858  17.348  18.006  0.00  0.00    +0.000 C 
ATOM     28  C   UNL     1      -0.028  16.228  18.539  0.00  0.00    +0.000 C 
ENDBRANCH   1  28
TORSDOF 4
ENDMDL
