MODEL 1
REMARK VINA RESULT:      -6.9      0.000      0.000
REMARK  Name = 
REMARK  10 active torsions:
REMARK  status: ('A' for Active; 'I' for Inactive)
REMARK    1  A    between atoms: C_1  and  O_2
REMARK    2  A    between atoms: O_2  and  C_3
REMARK    3  A    between atoms: C_5  and  O_6
REMARK    4  A    between atoms: C_10  and  O_11
REMARK    5  A    between atoms: O_11  and  C_12
REMARK    6  A    between atoms: C_13  and  C_14
REMARK    7  A    between atoms: C_17  and  O_18
REMARK    8  A    between atoms: C_19  and  O_20
REMARK    9  A    between atoms: C_24  and  O_25
REMARK   10  A    between atoms: O_25  and  C_26
REMARK                            x       y       z     vdW  Elec       q    Type
REMARK                         _______ _______ _______ _____ _____    ______ ____
ROOT
ATOM      1  C   UNL     1       6.492   4.987  15.841  0.00  0.00    +0.000 A 
ATOM      2  C   UNL     1       6.080   3.654  15.959  0.00  0.00    +0.000 A 
ATOM      3  C   UNL     1       4.942   3.317  16.691  0.00  0.00    +0.000 A 
ATOM      4  C   UNL     1       4.194   4.306  17.339  0.00  0.00    +0.000 A 
ATOM      5  C   UNL     1       2.977   3.987  18.122  0.00  0.00    +0.000 A 
ATOM      6  O   UNL     1       2.574   2.832  18.217  0.00  0.00    +0.000 OA
ATOM      7  C   UNL     1       2.262   5.128  18.776  0.00  0.00    +0.000 A 
ATOM      8  C   UNL     1       2.782   6.355  18.587  0.00  0.00    +0.000 A 
ATOM      9  O   UNL     1       3.914   6.652  17.858  0.00  0.00    +0.000 OA
ATOM     10  C   UNL     1       4.607   5.632  17.244  0.00  0.00    +0.000 A 
ATOM     11  C   UNL     1       5.762   5.993  16.504  0.00  0.00    +0.000 A 
ENDROOT
BRANCH   8  12
ATOM     12  C   UNL     1       2.147   7.554  19.164  0.00  0.00    +0.000 A 
ATOM     13  C   UNL     1       1.859   7.608  20.540  0.00  0.00    +0.000 A 
ATOM     14  C   UNL     1       1.251   8.736  21.100  0.00  0.00    +0.000 A 
ATOM     15  C   UNL     1       0.934   9.809  20.279  0.00  0.00    +0.000 A 
ATOM     16  C   UNL     1       1.223   9.763  18.917  0.00  0.00    +0.000 A 
ATOM     17  C   UNL     1       1.827   8.647  18.350  0.00  0.00    +0.000 A 
BRANCH  15  18
ATOM     18  O   UNL     1       0.331  10.938  20.763  0.00  0.00    +0.000 OA
ATOM     19  H   UNL     1      -0.432  10.667  21.301  0.00  0.00    +0.000 HD
ENDBRANCH  15  18
BRANCH  16  20
ATOM     20  O   UNL     1       0.908  10.829  18.122  0.00  0.00    +0.000 OA
ATOM     21  H   UNL     1       0.015  11.095  18.417  0.00  0.00    +0.000 HD
ENDBRANCH  16  20
ENDBRANCH   8  12
BRANCH   1  23
ATOM     22  C   UNL     1       7.574   5.113  13.718  0.00  0.00    +0.000 C 
ATOM     23  O   UNL     1       7.614   5.323  15.127  0.00  0.00    +0.000 OA
ENDBRANCH   1  23
BRANCH   3  24
ATOM     24  O   UNL     1       4.586   2.001  16.754  0.00  0.00    +0.000 OA
ATOM     25  H   UNL     1       3.736   1.843  16.318  0.00  0.00    +0.000 HD
ENDBRANCH   3  24
BRANCH   7  26
ATOM     26  O   UNL     1       1.109   4.980  19.541  0.00  0.00    +0.000 OA
ATOM     27  C   UNL     1       1.141   4.088  20.648  0.00  0.00    +0.000 C 
ENDBRANCH   7  26
BRANCH  11  28
ATOM     28  O   UNL     1       6.029   7.342  16.516  0.00  0.00    +0.000 OA
ATOM     29  C   UNL     1       7.077   7.846  17.330  0.00  0.00    +0.000 C 
ENDBRANCH  11  28
TORSDOF 7
ENDMDL
MODEL 2
REMARK VINA RESULT:      -6.8      0.649      1.350
REMARK  Name = 
REMARK  10 active torsions:
REMARK  status: ('A' for Active; 'I' for Inactive)
REMARK    1  A    between atoms: C_1  and  O_2
REMARK    2  A    between atoms: O_2  and  C_3
REMARK    3  A    between atoms: C_5  and  O_6
REMARK    4  A    between atoms: C_10  and  O_11
REMARK    5  A    between atoms: O_11  and  C_12
REMARK    6  A    between atoms: C_13  and  C_14
REMARK    7  A    between atoms: C_17  and  O_18
REMARK    8  A    between atoms: C_19  and  O_20
REMARK    9  A    between atoms: C_24  and  O_25
REMARK   10  A    between atoms: O_25  and  C_26
REMARK                            x       y       z     vdW  Elec       q    Type
REMARK                         _______ _______ _______ _____ _____    ______ ____
ROOT
ATOM      1  C   UNL     1       6.672   5.010  15.573  0.00  0.00    +0.000 A 
ATOM      2  C   UNL     1       6.276   3.669  15.641  0.00  0.00    +0.000 A 
ATOM      3  C   UNL     1       5.130   3.293  16.342  0.00  0.00    +0.000 A 
ATOM      4  C   UNL     1       4.358   4.250  17.008  0.00  0.00    +0.000 A 
ATOM      5  C   UNL     1       3.132   3.890  17.759  0.00  0.00    +0.000 A 
ATOM      6  O   UNL     1       2.744   2.728  17.809  0.00  0.00    +0.000 OA
ATOM      7  C   UNL     1       2.391   5.000  18.437  0.00  0.00    +0.000 A 
ATOM      8  C   UNL     1       2.897   6.240  18.297  0.00  0.00    +0.000 A 
ATOM      9  O   UNL     1       4.036   6.575  17.597  0.00  0.00    +0.000 OA
ATOM     10  C   UNL     1       4.754   5.584  16.963  0.00  0.00    +0.000 A 
ATOM     11  C   UNL     1       5.916   5.984  16.255  0.00  0.00    +0.000 A 
ENDROOT
BRANCH   8  12
ATOM     12  C   UNL     1       2.235   7.411  18.900  0.00  0.00    +0.000 A 
ATOM     13  C   UNL     1       1.756   8.450  18.082  0.00  0.00    +0.000 A 
ATOM     14  C   UNL     1       1.131   9.570  18.641  0.00  0.00    +0.000 A 
ATOM     15  C   UNL     1       0.987   9.644  20.019  0.00  0.00    +0.000 A 
ATOM     16  C   UNL     1       1.453   8.614  20.833  0.00  0.00    +0.000 A 
ATOM     17  C   UNL     1       2.076   7.497  20.288  0.00  0.00    +0.000 A 
BRANCH  15  18
ATOM     18  O   UNL     1       0.392  10.715  20.629  0.00  0.00    +0.000 OA
ATOM     19  H   UNL     1      -0.572  10.592  20.585  0.00  0.00    +0.000 HD
ENDBRANCH  15  18
BRANCH  16  20
ATOM     20  O   UNL     1       1.300   8.700  22.188  0.00  0.00    +0.000 OA
ATOM     21  H   UNL     1       0.473   8.210  22.369  0.00  0.00    +0.000 HD
ENDBRANCH  16  20
ENDBRANCH   8  12
BRANCH   1  23
ATOM     22  C   UNL     1       7.792   5.208  13.476  0.00  0.00    +0.000 C 
ATOM     23  O   UNL     1       7.800   5.383  14.890  0.00  0.00    +0.000 OA
ENDBRANCH   1  23
BRANCH   3  24
ATOM     24  O   UNL     1       4.792   1.970  16.357  0.00  0.00    +0.000 OA
ATOM     25  H   UNL     1       5.295   1.469  15.698  0.00  0.00    +0.000 HD
ENDBRANCH   3  24
BRANCH   7  26
ATOM     26  O   UNL     1       1.227   4.812  19.176  0.00  0.00    +0.000 OA
ATOM     27  C   UNL     1       1.300   4.042  20.369  0.00  0.00    +0.000 C 
ENDBRANCH   7  26
BRANCH  11  28
ATOM     28  O   UNL     1       6.165   7.335  16.315  0.00  0.00    +0.000 OA
ATOM     29  C   UNL     1       7.130   7.835  17.228  0.00  0.00    +0.000 C 
ENDBRANCH  11  28
TORSDOF 7
ENDMDL
MODEL 3
REMARK VINA RESULT:      -6.5      7.035      9.862
REMARK  Name = 
REMARK  10 active torsions:
REMARK  status: ('A' for Active; 'I' for Inactive)
REMARK    1  A    between atoms: C_1  and  O_2
REMARK    2  A    between atoms: O_2  and  C_3
REMARK    3  A    between atoms: C_5  and  O_6
REMARK    4  A    between atoms: C_10  and  O_11
REMARK    5  A    between atoms: O_11  and  C_12
REMARK    6  A    between atoms: C_13  and  C_14
REMARK    7  A    between atoms: C_17  and  O_18
REMARK    8  A    between atoms: C_19  and  O_20
REMARK    9  A    between atoms: C_24  and  O_25
REMARK   10  A    between atoms: O_25  and  C_26
REMARK                            x       y       z     vdW  Elec       q    Type
REMARK                         _______ _______ _______ _____ _____    ______ ____
ROOT
ATOM      1  C   UNL     1      -3.419  10.671  16.313  0.00  0.00    +0.000 A 
ATOM      2  C   UNL     1      -2.138  10.121  16.439  0.00  0.00    +0.000 A 
ATOM      3  C   UNL     1      -1.384  10.314  17.596  0.00  0.00    +0.000 A 
ATOM      4  C   UNL     1      -1.888  11.077  18.654  0.00  0.00    +0.000 A 
ATOM      5  C   UNL     1      -1.119  11.301  19.901  0.00  0.00    +0.000 A 
ATOM      6  O   UNL     1      -0.008  10.805  20.053  0.00  0.00    +0.000 OA
ATOM      7  C   UNL     1      -1.760  12.142  20.962  0.00  0.00    +0.000 A 
ATOM      8  C   UNL     1      -2.991  12.617  20.696  0.00  0.00    +0.000 A 
ATOM      9  O   UNL     1      -3.707  12.408  19.536  0.00  0.00    +0.000 OA
ATOM     10  C   UNL     1      -3.153  11.646  18.530  0.00  0.00    +0.000 A 
ATOM     11  C   UNL     1      -3.933  11.460  17.360  0.00  0.00    +0.000 A 
ENDROOT
BRANCH   8  12
ATOM     12  C   UNL     1      -3.726  13.434  21.678  0.00  0.00    +0.000 A 
ATOM     13  C   UNL     1      -3.630  14.837  21.642  0.00  0.00    +0.000 A 
ATOM     14  C   UNL     1      -4.318  15.625  22.571  0.00  0.00    +0.000 A 
ATOM     15  C   UNL     1      -5.100  15.004  23.534  0.00  0.00    +0.000 A 
ATOM     16  C   UNL     1      -5.204  13.616  23.570  0.00  0.00    +0.000 A 
ATOM     17  C   UNL     1      -4.526  12.823  22.652  0.00  0.00    +0.000 A 
BRANCH  15  18
ATOM     18  O   UNL     1      -5.791  15.717  24.476  0.00  0.00    +0.000 OA
ATOM     19  H   UNL     1      -6.147  15.090  25.129  0.00  0.00    +0.000 HD
ENDBRANCH  15  18
BRANCH  16  20
ATOM     20  O   UNL     1      -5.982  13.020  24.522  0.00  0.00    +0.000 OA
ATOM     21  H   UNL     1      -6.627  12.492  24.011  0.00  0.00    +0.000 HD
ENDBRANCH  16  20
ENDBRANCH   8  12
BRANCH   1  23
ATOM     22  C   UNL     1      -3.462  10.073  14.004  0.00  0.00    +0.000 C 
ATOM     23  O   UNL     1      -4.161  10.489  15.174  0.00  0.00    +0.000 OA
ENDBRANCH   1  23
BRANCH   3  24
ATOM     24  O   UNL     1      -0.148   9.737  17.661  0.00  0.00    +0.000 OA
ATOM     25  H   UNL     1       0.547  10.361  17.402  0.00  0.00    +0.000 HD
ENDBRANCH   3  24
BRANCH   7  26
ATOM     26  O   UNL     1      -1.158  12.436  22.182  0.00  0.00    +0.000 OA
ATOM     27  C   UNL     1      -1.125  11.426  23.182  0.00  0.00    +0.000 C 
ENDBRANCH   7  26
BRANCH  11  28
ATOM     28  O   UNL     1      -5.154  12.091  17.402  0.00  0.00    +0.000 OA
ATOM     29  C   UNL     1      -6.302  11.380  17.838  0.00  0.00    +0.000 C 
ENDBRANCH  11  28
TORSDOF 7
ENDMDL
MODEL 4
REMARK VINA RESULT:      -6.5      2.168      4.579
REMARK  Name = 
REMARK  10 active torsions:
REMARK  status: ('A' for Active; 'I' for Inactive)
REMARK    1  A    between atoms: C_1  and  O_2
REMARK    2  A    between atoms: O_2  and  C_3
REMARK    3  A    between atoms: C_5  and  O_6
REMARK    4  A    between atoms: C_10  and  O_11
REMARK    5  A    between atoms: O_11  and  C_12
REMARK    6  A    between atoms: C_13  and  C_14
REMARK    7  A    between atoms: C_17  and  O_18
REMARK    8  A    between atoms: C_19  and  O_20
REMARK    9  A    between atoms: C_24  and  O_25
REMARK   10  A    between atoms: O_25  and  C_26
REMARK                            x       y       z     vdW  Elec       q    Type
REMARK                         _______ _______ _______ _____ _____    ______ ____
ROOT
ATOM      1  C   UNL     1       3.979   3.965  19.219  0.00  0.00    +0.000 A 
ATOM      2  C   UNL     1       4.439   4.340  17.951  0.00  0.00    +0.000 A 
ATOM      3  C   UNL     1       4.119   5.585  17.409  0.00  0.00    +0.000 A 
ATOM      4  C   UNL     1       3.315   6.483  18.117  0.00  0.00    +0.000 A 
ATOM      5  C   UNL     1       2.957   7.816  17.577  0.00  0.00    +0.000 A 
ATOM      6  O   UNL     1       3.372   8.183  16.484  0.00  0.00    +0.000 OA
ATOM      7  C   UNL     1       2.084   8.689  18.424  0.00  0.00    +0.000 A 
ATOM      8  C   UNL     1       1.705   8.191  19.616  0.00  0.00    +0.000 A 
ATOM      9  O   UNL     1       2.038   6.952  20.119  0.00  0.00    +0.000 OA
ATOM     10  C   UNL     1       2.835   6.112  19.370  0.00  0.00    +0.000 A 
ATOM     11  C   UNL     1       3.150   4.850  19.936  0.00  0.00    +0.000 A 
ENDROOT
BRANCH   8  12
ATOM     12  C   UNL     1       0.866   8.973  20.542  0.00  0.00    +0.000 A 
ATOM     13  C   UNL     1      -0.137   9.822  20.039  0.00  0.00    +0.000 A 
ATOM     14  C   UNL     1      -0.937  10.575  20.906  0.00  0.00    +0.000 A 
ATOM     15  C   UNL     1      -0.730  10.474  22.273  0.00  0.00    +0.000 A 
ATOM     16  C   UNL     1       0.257   9.630  22.776  0.00  0.00    +0.000 A 
ATOM     17  C   UNL     1       1.058   8.877  21.925  0.00  0.00    +0.000 A 
BRANCH  15  18
ATOM     18  O   UNL     1      -1.472  11.189  23.174  0.00  0.00    +0.000 OA
ATOM     19  H   UNL     1      -1.270  12.133  23.051  0.00  0.00    +0.000 HD
ENDBRANCH  15  18
BRANCH  16  20
ATOM     20  O   UNL     1       0.447   9.539  24.127  0.00  0.00    +0.000 OA
ATOM     21  H   UNL     1      -0.190   8.855  24.414  0.00  0.00    +0.000 HD
ENDBRANCH  16  20
ENDBRANCH   8  12
BRANCH   1  23
ATOM     22  C   UNL     1       3.828   1.591  19.046  0.00  0.00    +0.000 C 
ATOM     23  O   UNL     1       4.286   2.741  19.752  0.00  0.00    +0.000 OA
ENDBRANCH   1  23
BRANCH   3  24
ATOM     24  O   UNL     1       4.614   5.894  16.175  0.00  0.00    +0.000 OA
ATOM     25  H   UNL     1       4.366   6.792  15.910  0.00  0.00    +0.000 HD
ENDBRANCH   3  24
BRANCH   7  26
ATOM     26  O   UNL     1       1.668   9.962  18.047  0.00  0.00    +0.000 OA
ATOM     27  C   UNL     1       2.614  11.022  18.083  0.00  0.00    +0.000 C 
ENDBRANCH   7  26
BRANCH  11  28
ATOM     28  O   UNL     1       2.593   4.644  21.176  0.00  0.00    +0.000 OA
ATOM     29  C   UNL     1       1.611   3.633  21.350  0.00  0.00    +0.000 C 
ENDBRANCH  11  28
TORSDOF 7
ENDMDL
MODEL 5
REMARK VINA RESULT:      -6.5      4.682      8.609
REMARK  Name = 
REMARK  10 active torsions:
REMARK  status: ('A' for Active; 'I' for Inactive)
REMARK    1  A    between atoms: C_1  and  O_2
REMARK    2  A    between atoms: O_2  and  C_3
REMARK    3  A    between atoms: C_5  and  O_6
REMARK    4  A    between atoms: C_10  and  O_11
REMARK    5  A    between atoms: O_11  and  C_12
REMARK    6  A    between atoms: C_13  and  C_14
REMARK    7  A    between atoms: C_17  and  O_18
REMARK    8  A    between atoms: C_19  and  O_20
REMARK    9  A    between atoms: C_24  and  O_25
REMARK   10  A    between atoms: O_25  and  C_26
REMARK                            x       y       z     vdW  Elec       q    Type
REMARK                         _______ _______ _______ _____ _____    ______ ____
ROOT
ATOM      1  C   UNL     1       0.883   9.503  18.980  0.00  0.00    +0.000 A 
ATOM      2  C   UNL     1       0.114   9.493  17.810  0.00  0.00    +0.000 A 
ATOM      3  C   UNL     1      -1.082  10.205  17.731  0.00  0.00    +0.000 A 
ATOM      4  C   UNL     1      -1.550  10.935  18.829  0.00  0.00    +0.000 A 
ATOM      5  C   UNL     1      -2.814  11.707  18.782  0.00  0.00    +0.000 A 
ATOM      6  O   UNL     1      -3.491  11.743  17.761  0.00  0.00    +0.000 OA
ATOM      7  C   UNL     1      -3.215  12.444  20.022  0.00  0.00    +0.000 A 
ATOM      8  C   UNL     1      -2.384  12.351  21.077  0.00  0.00    +0.000 A 
ATOM      9  O   UNL     1      -1.208  11.634  21.120  0.00  0.00    +0.000 OA
ATOM     10  C   UNL     1      -0.803  10.934  20.004  0.00  0.00    +0.000 A 
ATOM     11  C   UNL     1       0.416  10.216  20.101  0.00  0.00    +0.000 A 
ENDROOT
BRANCH   8  12
ATOM     12  C   UNL     1      -2.667  13.056  22.340  0.00  0.00    +0.000 A 
ATOM     13  C   UNL     1      -2.160  14.350  22.556  0.00  0.00    +0.000 A 
ATOM     14  C   UNL     1      -2.416  15.029  23.752  0.00  0.00    +0.000 A 
ATOM     15  C   UNL     1      -3.181  14.408  24.728  0.00  0.00    +0.000 A 
ATOM     16  C   UNL     1      -3.692  13.130  24.517  0.00  0.00    +0.000 A 
ATOM     17  C   UNL     1      -3.444  12.446  23.333  0.00  0.00    +0.000 A 
BRANCH  15  18
ATOM     18  O   UNL     1      -3.461  15.014  25.923  0.00  0.00    +0.000 OA
ATOM     19  H   UNL     1      -3.322  15.971  25.817  0.00  0.00    +0.000 HD
ENDBRANCH  15  18
BRANCH  16  20
ATOM     20  O   UNL     1      -4.448  12.533  25.487  0.00  0.00    +0.000 OA
ATOM     21  H   UNL     1      -4.477  13.192  26.209  0.00  0.00    +0.000 HD
ENDBRANCH  16  20
ENDBRANCH   8  12
BRANCH   1  23
ATOM     22  C   UNL     1       2.533   8.186  17.869  0.00  0.00    +0.000 C 
ATOM     23  O   UNL     1       2.057   8.800  19.064  0.00  0.00    +0.000 OA
ENDBRANCH   1  23
BRANCH   3  24
ATOM     24  O   UNL     1      -1.776  10.166  16.556  0.00  0.00    +0.000 OA
ATOM     25  H   UNL     1      -1.225   9.837  15.831  0.00  0.00    +0.000 HD
ENDBRANCH   3  24
BRANCH   7  26
ATOM     26  O   UNL     1      -4.374  13.209  20.124  0.00  0.00    +0.000 OA
ATOM     27  C   UNL     1      -5.616  12.537  20.286  0.00  0.00    +0.000 C 
ENDBRANCH   7  26
BRANCH  11  28
ATOM     28  O   UNL     1       1.024  10.320  21.331  0.00  0.00    +0.000 OA
ATOM     29  C   UNL     1       0.964   9.233  22.242  0.00  0.00    +0.000 C 
ENDBRANCH  11  28
TORSDOF 7
ENDMDL
MODEL 6
REMARK VINA RESULT:      -6.3      6.558      9.182
REMARK  Name = 
REMARK  10 active torsions:
REMARK  status: ('A' for Active; 'I' for Inactive)
REMARK    1  A    between atoms: C_1  and  O_2
REMARK    2  A    between atoms: O_2  and  C_3
REMARK    3  A    between atoms: C_5  and  O_6
REMARK    4  A    between atoms: C_10  and  O_11
REMARK    5  A    between atoms: O_11  and  C_12
REMARK    6  A    between atoms: C_13  and  C_14
REMARK    7  A    between atoms: C_17  and  O_18
REMARK    8  A    between atoms: C_19  and  O_20
REMARK    9  A    between atoms: C_24  and  O_25
REMARK   10  A    between atoms: O_25  and  C_26
REMARK                            x       y       z     vdW  Elec       q    Type
REMARK                         _______ _______ _______ _____ _____    ______ ____
ROOT
ATOM      1  C   UNL     1      -3.127  10.820  16.636  0.00  0.00    +0.000 A 
ATOM      2  C   UNL     1      -1.977  10.024  16.545  0.00  0.00    +0.000 A 
ATOM      3  C   UNL     1      -1.104   9.899  17.625  0.00  0.00    +0.000 A 
ATOM      4  C   UNL     1      -1.349  10.581  18.821  0.00  0.00    +0.000 A 
ATOM      5  C   UNL     1      -0.446  10.470  19.991  0.00  0.00    +0.000 A 
ATOM      6  O   UNL     1       0.549   9.755  19.951  0.00  0.00    +0.000 OA
ATOM      7  C   UNL     1      -0.809  11.251  21.216  0.00  0.00    +0.000 A 
ATOM      8  C   UNL     1      -1.936  11.985  21.153  0.00  0.00    +0.000 A 
ATOM      9  O   UNL     1      -2.776  12.088  20.065  0.00  0.00    +0.000 OA
ATOM     10  C   UNL     1      -2.478  11.391  18.914  0.00  0.00    +0.000 A 
ATOM     11  C   UNL     1      -3.377  11.529  17.826  0.00  0.00    +0.000 A 
ENDROOT
BRANCH   8  12
ATOM     12  C   UNL     1      -2.402  12.774  22.308  0.00  0.00    +0.000 A 
ATOM     13  C   UNL     1      -1.940  14.089  22.496  0.00  0.00    +0.000 A 
ATOM     14  C   UNL     1      -2.370  14.848  23.591  0.00  0.00    +0.000 A 
ATOM     15  C   UNL     1      -3.261  14.285  24.493  0.00  0.00    +0.000 A 
ATOM     16  C   UNL     1      -3.726  12.986  24.307  0.00  0.00    +0.000 A 
ATOM     17  C   UNL     1      -3.307  12.223  23.223  0.00  0.00    +0.000 A 
BRANCH  15  18
ATOM     18  O   UNL     1      -3.713  14.971  25.588  0.00  0.00    +0.000 OA
ATOM     19  H   UNL     1      -3.549  14.424  26.376  0.00  0.00    +0.000 HD
ENDBRANCH  15  18
BRANCH  16  20
ATOM     20  O   UNL     1      -4.607  12.447  25.202  0.00  0.00    +0.000 OA
ATOM     21  H   UNL     1      -4.956  13.219  25.691  0.00  0.00    +0.000 HD
ENDBRANCH  16  20
ENDBRANCH   8  12
BRANCH   1  23
ATOM     22  C   UNL     1      -3.700  10.179  14.410  0.00  0.00    +0.000 C 
ATOM     23  O   UNL     1      -3.985  10.950  15.575  0.00  0.00    +0.000 OA
ENDBRANCH   1  23
BRANCH   3  24
ATOM     24  O   UNL     1      -0.010   9.096  17.476  0.00  0.00    +0.000 OA
ATOM     25  H   UNL     1       0.046   8.440  18.187  0.00  0.00    +0.000 HD
ENDBRANCH   3  24
BRANCH   7  26
ATOM     26  O   UNL     1      -0.057  11.244  22.386  0.00  0.00    +0.000 OA
ATOM     27  C   UNL     1      -0.143  10.110  23.239  0.00  0.00    +0.000 C 
ENDBRANCH   7  26
BRANCH  11  28
ATOM     28  O   UNL     1      -4.436  12.368  18.085  0.00  0.00    +0.000 OA
ATOM     29  C   UNL     1      -5.717  11.823  18.359  0.00  0.00    +0.000 C 
ENDBRANCH  11  28
TORSDOF 7
ENDMDL
MODEL 7
REMARK VINA RESULT:      -6.3      6.703      9.601
REMARK  Name = 
REMARK  10 active torsions:
REMARK  status: ('A' for Active; 'I' for Inactive)
REMARK    1  A    between atoms: C_1  and  O_2
REMARK    2  A    between atoms: O_2  and  C_3
REMARK    3  A    between atoms: C_5  and  O_6
REMARK    4  A    between atoms: C_10  and  O_11
REMARK    5  A    between atoms: O_11  and  C_12
REMARK    6  A    between atoms: C_13  and  C_14
REMARK    7  A    between atoms: C_17  and  O_18
REMARK    8  A    between atoms: C_19  and  O_20
REMARK    9  A    between atoms: C_24  and  O_25
REMARK   10  A    between atoms: O_25  and  C_26
REMARK                            x       y       z     vdW  Elec       q    Type
REMARK                         _______ _______ _______ _____ _____    ______ ____
ROOT
ATOM      1  C   UNL     1      -3.043  10.370  16.828  0.00  0.00    +0.000 A 
ATOM      2  C   UNL     1      -1.705   9.958  16.783  0.00  0.00    +0.000 A 
ATOM      3  C   UNL     1      -0.809  10.319  17.789  0.00  0.00    +0.000 A 
ATOM      4  C   UNL     1      -1.224  11.115  18.861  0.00  0.00    +0.000 A 
ATOM      5  C   UNL     1      -0.302  11.515  19.950  0.00  0.00    +0.000 A 
ATOM      6  O   UNL     1       0.866  11.143  19.954  0.00  0.00    +0.000 OA
ATOM      7  C   UNL     1      -0.860  12.375  21.041  0.00  0.00    +0.000 A 
ATOM      8  C   UNL     1      -2.162  12.705  20.945  0.00  0.00    +0.000 A 
ATOM      9  O   UNL     1      -3.020  12.332  19.933  0.00  0.00    +0.000 OA
ATOM     10  C   UNL     1      -2.547  11.547  18.904  0.00  0.00    +0.000 A 
ATOM     11  C   UNL     1      -3.472  11.189  17.890  0.00  0.00    +0.000 A 
ENDROOT
BRANCH   8  12
ATOM     12  C   UNL     1      -2.822  13.527  21.977  0.00  0.00    +0.000 A 
ATOM     13  C   UNL     1      -2.976  14.912  21.783  0.00  0.00    +0.000 A 
ATOM     14  C   UNL     1      -3.595  15.705  22.756  0.00  0.00    +0.000 A 
ATOM     15  C   UNL     1      -4.060  15.106  23.918  0.00  0.00    +0.000 A 
ATOM     16  C   UNL     1      -3.916  13.735  24.111  0.00  0.00    +0.000 A 
ATOM     17  C   UNL     1      -3.303  12.937  23.152  0.00  0.00    +0.000 A 
BRANCH  15  18
ATOM     18  O   UNL     1      -4.667  15.827  24.911  0.00  0.00    +0.000 OA
ATOM     19  H   UNL     1      -4.037  15.918  25.646  0.00  0.00    +0.000 HD
ENDBRANCH  15  18
BRANCH  16  20
ATOM     20  O   UNL     1      -4.383  13.160  25.259  0.00  0.00    +0.000 OA
ATOM     21  H   UNL     1      -5.342  13.054  25.104  0.00  0.00    +0.000 HD
ENDBRANCH  16  20
ENDBRANCH   8  12
BRANCH   1  23
ATOM     22  C   UNL     1      -3.480  10.163  14.492  0.00  0.00    +0.000 C 
ATOM     23  O   UNL     1      -3.925  10.023  15.839  0.00  0.00    +0.000 OA
ENDBRANCH   1  23
BRANCH   3  24
ATOM     24  O   UNL     1       0.478   9.871  17.693  0.00  0.00    +0.000 OA
ATOM     25  H   UNL     1       1.089  10.595  17.486  0.00  0.00    +0.000 HD
ENDBRANCH   3  24
BRANCH   7  26
ATOM     26  O   UNL     1      -0.114  12.827  22.126  0.00  0.00    +0.000 OA
ATOM     27  C   UNL     1       0.637  14.025  21.979  0.00  0.00    +0.000 C 
ENDBRANCH   7  26
BRANCH  11  28
ATOM     28  O   UNL     1      -4.734  11.701  18.085  0.00  0.00    +0.000 OA
ATOM     29  C   UNL     1      -5.785  10.847  18.508  0.00  0.00    +0.000 C 
ENDBRANCH  11  28
TORSDOF 7
ENDMDL
MODEL 8
REMARK VINA RESULT:      -6.2      7.023      9.791
REMARK  Name = 
REMARK  10 active torsions:
REMARK  status: ('A' for Active; 'I' for Inactive)
REMARK    1  A    between atoms: C_1  and  O_2
REMARK    2  A    between atoms: O_2  and  C_3
REMARK    3  A    between atoms: C_5  and  O_6
REMARK    4  A    between atoms: C_10  and  O_11
REMARK    5  A    between atoms: O_11  and  C_12
REMARK    6  A    between atoms: C_13  and  C_14
REMARK    7  A    between atoms: C_17  and  O_18
REMARK    8  A    between atoms: C_19  and  O_20
REMARK    9  A    between atoms: C_24  and  O_25
REMARK   10  A    between atoms: O_25  and  C_26
REMARK                            x       y       z     vdW  Elec       q    Type
REMARK                         _______ _______ _______ _____ _____    ______ ____
ROOT
ATOM      1  C   UNL     1      -3.441  10.640  16.304  0.00  0.00    +0.000 A 
ATOM      2  C   UNL     1      -2.159  10.090  16.421  0.00  0.00    +0.000 A 
ATOM      3  C   UNL     1      -1.397  10.282  17.573  0.00  0.00    +0.000 A 
ATOM      4  C   UNL     1      -1.893  11.045  18.635  0.00  0.00    +0.000 A 
ATOM      5  C   UNL     1      -1.115  11.268  19.876  0.00  0.00    +0.000 A 
ATOM      6  O   UNL     1      -0.003  10.772  20.019  0.00  0.00    +0.000 OA
ATOM      7  C   UNL     1      -1.748  12.108  20.942  0.00  0.00    +0.000 A 
ATOM      8  C   UNL     1      -2.981  12.584  20.685  0.00  0.00    +0.000 A 
ATOM      9  O   UNL     1      -3.705  12.375  19.531  0.00  0.00    +0.000 OA
ATOM     10  C   UNL     1      -3.159  11.614  18.520  0.00  0.00    +0.000 A 
ATOM     11  C   UNL     1      -3.947  11.429  17.356  0.00  0.00    +0.000 A 
ENDROOT
BRANCH   8  12
ATOM     12  C   UNL     1      -3.708  13.401  21.673  0.00  0.00    +0.000 A 
ATOM     13  C   UNL     1      -4.523  12.782  22.638  0.00  0.00    +0.000 A 
ATOM     14  C   UNL     1      -5.224  13.545  23.579  0.00  0.00    +0.000 A 
ATOM     15  C   UNL     1      -5.104  14.927  23.549  0.00  0.00    +0.000 A 
ATOM     16  C   UNL     1      -4.294  15.544  22.600  0.00  0.00    +0.000 A 
ATOM     17  C   UNL     1      -3.593  14.796  21.661  0.00  0.00    +0.000 A 
BRANCH  15  18
ATOM     18  O   UNL     1      -5.769  15.730  24.435  0.00  0.00    +0.000 OA
ATOM     19  H   UNL     1      -5.849  16.615  24.040  0.00  0.00    +0.000 HD
ENDBRANCH  15  18
BRANCH  16  20
ATOM     20  O   UNL     1      -4.184  16.906  22.586  0.00  0.00    +0.000 OA
ATOM     21  H   UNL     1      -4.899  17.200  21.988  0.00  0.00    +0.000 HD
ENDBRANCH  16  20
ENDBRANCH   8  12
BRANCH   1  23
ATOM     22  C   UNL     1      -3.493  10.102  13.980  0.00  0.00    +0.000 C 
ATOM     23  O   UNL     1      -4.191  10.459  15.171  0.00  0.00    +0.000 OA
ENDBRANCH   1  23
BRANCH   3  24
ATOM     24  O   UNL     1      -0.161   9.705  17.628  0.00  0.00    +0.000 OA
ATOM     25  H   UNL     1      -0.213   8.786  17.930  0.00  0.00    +0.000 HD
ENDBRANCH   3  24
BRANCH   7  26
ATOM     26  O   UNL     1      -1.137  12.402  22.157  0.00  0.00    +0.000 OA
ATOM     27  C   UNL     1      -1.102  11.393  23.159  0.00  0.00    +0.000 C 
ENDBRANCH   7  26
BRANCH  11  28
ATOM     28  O   UNL     1      -5.168  12.060  17.406  0.00  0.00    +0.000 OA
ATOM     29  C   UNL     1      -6.292  11.382  17.944  0.00  0.00    +0.000 C 
ENDBRANCH  11  28
TORSDOF 7
ENDMDL
MODEL 9
REMARK VINA RESULT:      -6.2      3.709      9.301
REMARK  Name = 
REMARK  10 active torsions:
REMARK  status: ('A' for Active; 'I' for Inactive)
REMARK    1  A    between atoms: C_1  and  O_2
REMARK    2  A    between atoms: O_2  and  C_3
REMARK    3  A    between atoms: C_5  and  O_6
REMARK    4  A    between atoms: C_10  and  O_11
REMARK    5  A    between atoms: O_11  and  C_12
REMARK    6  A    between atoms: C_13  and  C_14
REMARK    7  A    between atoms: C_17  and  O_18
REMARK    8  A    between atoms: C_19  and  O_20
REMARK    9  A    between atoms: C_24  and  O_25
REMARK   10  A    between atoms: O_25  and  C_26
REMARK                            x       y       z     vdW  Elec       q    Type
REMARK                         _______ _______ _______ _____ _____    ______ ____
ROOT
ATOM      1  C   UNL     1       0.352  15.156  21.732  0.00  0.00    +0.000 A 
ATOM      2  C   UNL     1      -0.992  15.365  21.400  0.00  0.00    +0.000 A 
ATOM      3  C   UNL     1      -1.720  14.399  20.707  0.00  0.00    +0.000 A 
ATOM      4  C   UNL     1      -1.116  13.201  20.313  0.00  0.00    +0.000 A 
ATOM      5  C   UNL     1      -1.857  12.149  19.578  0.00  0.00    +0.000 A 
ATOM      6  O   UNL     1      -3.044  12.291  19.303  0.00  0.00    +0.000 OA
ATOM      7  C   UNL     1      -1.103  10.911  19.203  0.00  0.00    +0.000 A 
ATOM      8  C   UNL     1       0.190  10.854  19.575  0.00  0.00    +0.000 A 
ATOM      9  O   UNL     1       0.879  11.832  20.259  0.00  0.00    +0.000 OA
ATOM     10  C   UNL     1       0.226  12.992  20.619  0.00  0.00    +0.000 A 
ATOM     11  C   UNL     1       0.981  13.964  21.323  0.00  0.00    +0.000 A 
ENDROOT
BRANCH   8  12
ATOM     12  C   UNL     1       1.021   9.673  19.280  0.00  0.00    +0.000 A 
ATOM     13  C   UNL     1       1.664   9.556  18.035  0.00  0.00    +0.000 A 
ATOM     14  C   UNL     1       2.452   8.438  17.739  0.00  0.00    +0.000 A 
ATOM     15  C   UNL     1       2.592   7.441  18.693  0.00  0.00    +0.000 A 
ATOM     16  C   UNL     1       1.963   7.555  19.930  0.00  0.00    +0.000 A 
ATOM     17  C   UNL     1       1.178   8.661  20.236  0.00  0.00    +0.000 A 
BRANCH  15  18
ATOM     18  O   UNL     1       3.342   6.318  18.464  0.00  0.00    +0.000 OA
ATOM     19  H   UNL     1       2.962   5.590  18.985  0.00  0.00    +0.000 HD
ENDBRANCH  15  18
BRANCH  16  20
ATOM     20  O   UNL     1       2.114   6.566  20.861  0.00  0.00    +0.000 OA
ATOM     21  H   UNL     1       1.283   6.054  20.807  0.00  0.00    +0.000 HD
ENDBRANCH  16  20
ENDBRANCH   8  12
BRANCH   1  23
ATOM     22  C   UNL     1       1.580  17.200  21.647  0.00  0.00    +0.000 C 
ATOM     23  O   UNL     1       1.073  16.106  22.407  0.00  0.00    +0.000 OA
ENDBRANCH   1  23
BRANCH   3  24
ATOM     24  O   UNL     1      -3.031  14.659  20.429  0.00  0.00    +0.000 OA
ATOM     25  H   UNL     1      -3.213  14.584  19.481  0.00  0.00    +0.000 HD
ENDBRANCH   3  24
BRANCH   7  26
ATOM     26  O   UNL     1      -1.668   9.842  18.514  0.00  0.00    +0.000 OA
ATOM     27  C   UNL     1      -1.927   9.994  17.124  0.00  0.00    +0.000 C 
ENDBRANCH   7  26
BRANCH  11  28
ATOM     28  O   UNL     1       2.290  13.599  21.540  0.00  0.00    +0.000 OA
ATOM     29  C   UNL     1       3.312  14.103  20.694  0.00  0.00    +0.000 C 
ENDBRANCH  11  28
TORSDOF 7
ENDMDL
