MODEL 1
REMARK VINA RESULT:      -6.3      0.000      0.000
REMARK  Name = 
REMARK  16 active torsions:
REMARK  status: ('A' for Active; 'I' for Inactive)
REMARK    1  A    between atoms: C_1  and  O_2
REMARK    2  A    between atoms: O_2  and  C_3
REMARK    3  A    between atoms: C_5  and  C_6
REMARK    4  A    between atoms: C_7  and  S_8
REMARK    5  A    between atoms: S_8  and  N_11
REMARK    6  A    between atoms: N_11  and  C_12
REMARK    7  A    between atoms: N_11  and  O_16
REMARK    8  A    between atoms: C_12  and  C_13
REMARK    9  A    between atoms: C_13  and  C_14
REMARK   10  A    between atoms: C_14  and  N_15
REMARK   11  A    between atoms: O_16  and  C_17
REMARK   12  A    between atoms: C_17  and  C_18
REMARK   13  A    between atoms: C_18  and  C_19
REMARK   14  A    between atoms: C_19  and  N_20
REMARK   15  A    between atoms: C_21  and  C_22
REMARK   16  A    between atoms: C_23  and  C_24
REMARK                            x       y       z     vdW  Elec       q    Type
REMARK                         _______ _______ _______ _____ _____    ______ ____
ROOT
ATOM      1  S   UNL     1       4.970   4.290  18.406  0.00  0.00    +0.000 S 
ATOM      2  O   UNL     1       5.654   4.002  19.619  0.00  0.00    +0.000 OA
ATOM      3  O   UNL     1       4.203   3.202  17.797  0.00  0.00    +0.000 OA
ENDROOT
BRANCH   1   8
ATOM      4  C   UNL     1       2.227   7.882  19.180  0.00  0.00    +0.000 A 
ATOM      5  C   UNL     1       3.038   7.859  18.049  0.00  0.00    +0.000 A 
ATOM      6  C   UNL     1       3.754   6.706  17.680  0.00  0.00    +0.000 A 
ATOM      7  C   UNL     1       4.314   6.720  16.272  0.00  0.00    +0.000 C 
ATOM      8  C   UNL     1       3.780   5.618  18.588  0.00  0.00    +0.000 A 
ATOM      9  C   UNL     1       2.844   5.563  19.653  0.00  0.00    +0.000 A 
ATOM     10  C   UNL     1       2.604   4.350  20.499  0.00  0.00    +0.000 C 
ATOM     11  C   UNL     1       2.048   6.708  19.924  0.00  0.00    +0.000 A 
ATOM     12  C   UNL     1       0.966   6.716  20.985  0.00  0.00    +0.000 C 
BRANCH   4  14
ATOM     13  C   UNL     1       0.864   9.760  18.642  0.00  0.00    +0.000 C 
ATOM     14  O   UNL     1       1.546   8.989  19.621  0.00  0.00    +0.000 OA
ENDBRANCH   4  14
ENDBRANCH   1   8
BRANCH   1  15
ATOM     15  N   UNL     1       6.218   4.784  17.252  0.00  0.00    +0.000 NA
BRANCH  15  16
ATOM     16  C   UNL     1       7.623   4.883  17.809  0.00  0.00    +0.000 C 
BRANCH  16  17
ATOM     17  C   UNL     1       7.758   6.066  18.778  0.00  0.00    +0.000 C 
BRANCH  17  18
ATOM     18  C   UNL     1       8.115   7.409  18.144  0.00  0.00    +0.000 C 
BRANCH  18  19
ATOM     19  N   UNL     1       7.717   7.372  16.741  0.00  0.00    +0.000 NA
ATOM     20  H   UNL     1       7.778   6.415  16.400  0.00  0.00    +0.000 HD
ATOM     21  H   UNL     1       8.353   7.932  16.179  0.00  0.00    +0.000 HD
ENDBRANCH  18  19
ENDBRANCH  17  18
ENDBRANCH  16  17
ENDBRANCH  15  16
BRANCH  15  22
ATOM     22  O   UNL     1       6.163   3.723  16.197  0.00  0.00    +0.000 OA
BRANCH  22  23
ATOM     23  C   UNL     1       6.700   4.192  14.965  0.00  0.00    +0.000 C 
BRANCH  23  24
ATOM     24  C   UNL     1       5.724   3.980  13.827  0.00  0.00    +0.000 C 
BRANCH  24  25
ATOM     25  C   UNL     1       6.470   3.770  12.511  0.00  0.00    +0.000 C 
BRANCH  25  26
ATOM     26  N   UNL     1       6.296   2.403  12.031  0.00  0.00    +0.000 NA
ATOM     27  H   UNL     1       6.009   1.801  12.802  0.00  0.00    +0.000 HD
ATOM     28  H   UNL     1       7.198   2.045  11.715  0.00  0.00    +0.000 HD
ENDBRANCH  25  26
ENDBRANCH  24  25
ENDBRANCH  23  24
ENDBRANCH  22  23
ENDBRANCH  15  22
ENDBRANCH   1  15
TORSDOF 12
ENDMDL
MODEL 2
REMARK VINA RESULT:      -6.1      2.686      6.475
REMARK  Name = 
REMARK  16 active torsions:
REMARK  status: ('A' for Active; 'I' for Inactive)
REMARK    1  A    between atoms: C_1  and  O_2
REMARK    2  A    between atoms: O_2  and  C_3
REMARK    3  A    between atoms: C_5  and  C_6
REMARK    4  A    between atoms: C_7  and  S_8
REMARK    5  A    between atoms: S_8  and  N_11
REMARK    6  A    between atoms: N_11  and  C_12
REMARK    7  A    between atoms: N_11  and  O_16
REMARK    8  A    between atoms: C_12  and  C_13
REMARK    9  A    between atoms: C_13  and  C_14
REMARK   10  A    between atoms: C_14  and  N_15
REMARK   11  A    between atoms: O_16  and  C_17
REMARK   12  A    between atoms: C_17  and  C_18
REMARK   13  A    between atoms: C_18  and  C_19
REMARK   14  A    between atoms: C_19  and  N_20
REMARK   15  A    between atoms: C_21  and  C_22
REMARK   16  A    between atoms: C_23  and  C_24
REMARK                            x       y       z     vdW  Elec       q    Type
REMARK                         _______ _______ _______ _____ _____    ______ ____
ROOT
ATOM      1  S   UNL     1       5.219   4.650  19.148  0.00  0.00    +0.000 S 
ATOM      2  O   UNL     1       4.850   3.419  19.756  0.00  0.00    +0.000 OA
ATOM      3  O   UNL     1       6.458   5.278  19.609  0.00  0.00    +0.000 OA
ENDROOT
BRANCH   1   8
ATOM      4  C   UNL     1       6.112   3.951  14.705  0.00  0.00    +0.000 A 
ATOM      5  C   UNL     1       5.024   3.321  15.302  0.00  0.00    +0.000 A 
ATOM      6  C   UNL     1       4.609   3.647  16.605  0.00  0.00    +0.000 A 
ATOM      7  C   UNL     1       3.235   3.136  16.989  0.00  0.00    +0.000 C 
ATOM      8  C   UNL     1       5.437   4.502  17.375  0.00  0.00    +0.000 A 
ATOM      9  C   UNL     1       6.448   5.268  16.738  0.00  0.00    +0.000 A 
ATOM     10  C   UNL     1       7.193   6.389  17.397  0.00  0.00    +0.000 C 
ATOM     11  C   UNL     1       6.761   4.993  15.380  0.00  0.00    +0.000 A 
ATOM     12  C   UNL     1       7.765   5.812  14.594  0.00  0.00    +0.000 C 
BRANCH   4  14
ATOM     13  C   UNL     1       5.643   3.370  12.443  0.00  0.00    +0.000 C 
ATOM     14  O   UNL     1       6.598   3.642  13.459  0.00  0.00    +0.000 OA
ENDBRANCH   4  14
ENDBRANCH   1   8
BRANCH   1  15
ATOM     15  N   UNL     1       3.890   5.770  19.477  0.00  0.00    +0.000 NA
BRANCH  15  16
ATOM     16  C   UNL     1       3.035   6.143  18.283  0.00  0.00    +0.000 C 
BRANCH  16  17
ATOM     17  C   UNL     1       3.182   7.630  17.932  0.00  0.00    +0.000 C 
BRANCH  17  18
ATOM     18  C   UNL     1       2.030   8.534  18.367  0.00  0.00    +0.000 C 
BRANCH  18  19
ATOM     19  N   UNL     1       1.975   9.672  17.455  0.00  0.00    +0.000 NA
ATOM     20  H   UNL     1       2.089   9.343  16.500  0.00  0.00    +0.000 HD
ATOM     21  H   UNL     1       2.740  10.313  17.645  0.00  0.00    +0.000 HD
ENDBRANCH  18  19
ENDBRANCH  17  18
ENDBRANCH  16  17
ENDBRANCH  15  16
BRANCH  15  22
ATOM     22  O   UNL     1       3.059   5.045  20.490  0.00  0.00    +0.000 OA
BRANCH  22  23
ATOM     23  C   UNL     1       1.717   4.892  20.041  0.00  0.00    +0.000 C 
BRANCH  23  24
ATOM     24  C   UNL     1       1.260   3.453  20.165  0.00  0.00    +0.000 C 
BRANCH  24  25
ATOM     25  C   UNL     1       1.427   2.956  21.598  0.00  0.00    +0.000 C 
BRANCH  25  26
ATOM     26  N   UNL     1       2.791   2.493  21.829  0.00  0.00    +0.000 NA
ATOM     27  H   UNL     1       3.447   3.257  21.665  0.00  0.00    +0.000 HD
ATOM     28  H   UNL     1       3.018   1.775  21.142  0.00  0.00    +0.000 HD
ENDBRANCH  25  26
ENDBRANCH  24  25
ENDBRANCH  23  24
ENDBRANCH  22  23
ENDBRANCH  15  22
ENDBRANCH   1  15
TORSDOF 12
ENDMDL
MODEL 3
REMARK VINA RESULT:      -6.1      1.510      1.904
REMARK  Name = 
REMARK  16 active torsions:
REMARK  status: ('A' for Active; 'I' for Inactive)
REMARK    1  A    between atoms: C_1  and  O_2
REMARK    2  A    between atoms: O_2  and  C_3
REMARK    3  A    between atoms: C_5  and  C_6
REMARK    4  A    between atoms: C_7  and  S_8
REMARK    5  A    between atoms: S_8  and  N_11
REMARK    6  A    between atoms: N_11  and  C_12
REMARK    7  A    between atoms: N_11  and  O_16
REMARK    8  A    between atoms: C_12  and  C_13
REMARK    9  A    between atoms: C_13  and  C_14
REMARK   10  A    between atoms: C_14  and  N_15
REMARK   11  A    between atoms: O_16  and  C_17
REMARK   12  A    between atoms: C_17  and  C_18
REMARK   13  A    between atoms: C_18  and  C_19
REMARK   14  A    between atoms: C_19  and  N_20
REMARK   15  A    between atoms: C_21  and  C_22
REMARK   16  A    between atoms: C_23  and  C_24
REMARK                            x       y       z     vdW  Elec       q    Type
REMARK                         _______ _______ _______ _____ _____    ______ ____
ROOT
ATOM      1  S   UNL     1       4.888   4.519  16.897  0.00  0.00    +0.000 S 
ATOM      2  O   UNL     1       5.800   3.679  17.593  0.00  0.00    +0.000 OA
ATOM      3  O   UNL     1       4.115   3.910  15.813  0.00  0.00    +0.000 OA
ENDROOT
BRANCH   1   8
ATOM      4  C   UNL     1       2.033   6.308  20.007  0.00  0.00    +0.000 A 
ATOM      5  C   UNL     1       2.705   7.144  19.119  0.00  0.00    +0.000 A 
ATOM      6  C   UNL     1       3.444   6.629  18.039  0.00  0.00    +0.000 A 
ATOM      7  C   UNL     1       3.831   7.643  16.984  0.00  0.00    +0.000 C 
ATOM      8  C   UNL     1       3.646   5.227  17.978  0.00  0.00    +0.000 A 
ATOM      9  C   UNL     1       2.846   4.362  18.770  0.00  0.00    +0.000 A 
ATOM     10  C   UNL     1       2.786   2.875  18.590  0.00  0.00    +0.000 C 
ATOM     11  C   UNL     1       2.017   4.926  19.776  0.00  0.00    +0.000 A 
ATOM     12  C   UNL     1       1.069   4.092  20.614  0.00  0.00    +0.000 C 
BRANCH   4  14
ATOM     13  C   UNL     1       1.120   8.145  21.218  0.00  0.00    +0.000 C 
ATOM     14  O   UNL     1       1.340   6.746  21.108  0.00  0.00    +0.000 OA
ENDBRANCH   4  14
ENDBRANCH   1   8
BRANCH   1  15
ATOM     15  N   UNL     1       5.862   5.821  16.201  0.00  0.00    +0.000 NA
BRANCH  15  16
ATOM     16  C   UNL     1       7.289   5.912  16.703  0.00  0.00    +0.000 C 
BRANCH  16  17
ATOM     17  C   UNL     1       7.376   6.743  17.991  0.00  0.00    +0.000 C 
BRANCH  17  18
ATOM     18  C   UNL     1       7.981   6.036  19.201  0.00  0.00    +0.000 C 
BRANCH  18  19
ATOM     19  N   UNL     1       6.919   5.298  19.876  0.00  0.00    +0.000 NA
ATOM     20  H   UNL     1       7.327   4.536  20.413  0.00  0.00    +0.000 HD
ATOM     21  H   UNL     1       6.292   4.880  19.194  0.00  0.00    +0.000 HD
ENDBRANCH  18  19
ENDBRANCH  17  18
ENDBRANCH  16  17
ENDBRANCH  15  16
BRANCH  15  22
ATOM     22  O   UNL     1       5.857   5.521  14.734  0.00  0.00    +0.000 OA
BRANCH  22  23
ATOM     23  C   UNL     1       7.117   5.010  14.309  0.00  0.00    +0.000 C 
BRANCH  23  24
ATOM     24  C   UNL     1       7.024   4.417  12.918  0.00  0.00    +0.000 C 
BRANCH  24  25
ATOM     25  C   UNL     1       5.829   3.473  12.815  0.00  0.00    +0.000 C 
BRANCH  25  26
ATOM     26  N   UNL     1       6.128   2.355  11.925  0.00  0.00    +0.000 NA
ATOM     27  H   UNL     1       5.321   2.161  11.333  0.00  0.00    +0.000 HD
ATOM     28  H   UNL     1       6.274   1.516  12.485  0.00  0.00    +0.000 HD
ENDBRANCH  25  26
ENDBRANCH  24  25
ENDBRANCH  23  24
ENDBRANCH  22  23
ENDBRANCH  15  22
ENDBRANCH   1  15
TORSDOF 12
ENDMDL
MODEL 4
REMARK VINA RESULT:      -5.9      2.388      4.953
REMARK  Name = 
REMARK  16 active torsions:
REMARK  status: ('A' for Active; 'I' for Inactive)
REMARK    1  A    between atoms: C_1  and  O_2
REMARK    2  A    between atoms: O_2  and  C_3
REMARK    3  A    between atoms: C_5  and  C_6
REMARK    4  A    between atoms: C_7  and  S_8
REMARK    5  A    between atoms: S_8  and  N_11
REMARK    6  A    between atoms: N_11  and  C_12
REMARK    7  A    between atoms: N_11  and  O_16
REMARK    8  A    between atoms: C_12  and  C_13
REMARK    9  A    between atoms: C_13  and  C_14
REMARK   10  A    between atoms: C_14  and  N_15
REMARK   11  A    between atoms: O_16  and  C_17
REMARK   12  A    between atoms: C_17  and  C_18
REMARK   13  A    between atoms: C_18  and  C_19
REMARK   14  A    between atoms: C_19  and  N_20
REMARK   15  A    between atoms: C_21  and  C_22
REMARK   16  A    between atoms: C_23  and  C_24
REMARK                            x       y       z     vdW  Elec       q    Type
REMARK                         _______ _______ _______ _____ _____    ______ ____
ROOT
ATOM      1  S   UNL     1       4.470   6.477  17.472  0.00  0.00    +0.000 S 
ATOM      2  O   UNL     1       4.609   6.049  16.123  0.00  0.00    +0.000 OA
ATOM      3  O   UNL     1       4.107   7.877  17.693  0.00  0.00    +0.000 OA
ENDROOT
BRANCH   1   8
ATOM      4  C   UNL     1       1.612   3.945  20.011  0.00  0.00    +0.000 A 
ATOM      5  C   UNL     1       1.751   5.306  20.270  0.00  0.00    +0.000 A 
ATOM      6  C   UNL     1       2.472   6.150  19.407  0.00  0.00    +0.000 A 
ATOM      7  C   UNL     1       2.258   7.633  19.630  0.00  0.00    +0.000 C 
ATOM      8  C   UNL     1       3.216   5.553  18.359  0.00  0.00    +0.000 A 
ATOM      9  C   UNL     1       2.960   4.207  17.988  0.00  0.00    +0.000 A 
ATOM     10  C   UNL     1       3.485   3.565  16.739  0.00  0.00    +0.000 C 
ATOM     11  C   UNL     1       2.127   3.414  18.822  0.00  0.00    +0.000 A 
ATOM     12  C   UNL     1       1.732   1.995  18.466  0.00  0.00    +0.000 C 
BRANCH   4  14
ATOM     13  C   UNL     1       1.693   2.581  21.962  0.00  0.00    +0.000 C 
ATOM     14  O   UNL     1       0.966   3.062  20.840  0.00  0.00    +0.000 OA
ENDBRANCH   4  14
ENDBRANCH   1   8
BRANCH   1  15
ATOM     15  N   UNL     1       6.042   6.198  18.234  0.00  0.00    +0.000 NA
BRANCH  15  16
ATOM     16  C   UNL     1       6.512   4.759  18.260  0.00  0.00    +0.000 C 
BRANCH  16  17
ATOM     17  C   UNL     1       7.597   4.505  17.205  0.00  0.00    +0.000 C 
BRANCH  17  18
ATOM     18  C   UNL     1       7.097   4.178  15.799  0.00  0.00    +0.000 C 
BRANCH  18  19
ATOM     19  N   UNL     1       7.419   5.303  14.928  0.00  0.00    +0.000 NA
ATOM     20  H   UNL     1       7.074   5.111  13.990  0.00  0.00    +0.000 HD
ATOM     21  H   UNL     1       8.426   5.419  14.860  0.00  0.00    +0.000 HD
ENDBRANCH  18  19
ENDBRANCH  17  18
ENDBRANCH  16  17
ENDBRANCH  15  16
BRANCH  15  22
ATOM     22  O   UNL     1       6.983   7.025  17.413  0.00  0.00    +0.000 OA
BRANCH  22  23
ATOM     23  C   UNL     1       7.947   7.676  18.234  0.00  0.00    +0.000 C 
BRANCH  23  24
ATOM     24  C   UNL     1       8.110   9.129  17.838  0.00  0.00    +0.000 C 
BRANCH  24  25
ATOM     25  C   UNL     1       8.994   9.865  18.842  0.00  0.00    +0.000 C 
BRANCH  25  26
ATOM     26  N   UNL     1       9.274  11.223  18.388  0.00  0.00    +0.000 NA
ATOM     27  H   UNL     1      10.015  11.631  18.958  0.00  0.00    +0.000 HD
ATOM     28  H   UNL     1       8.448  11.801  18.542  0.00  0.00    +0.000 HD
ENDBRANCH  25  26
ENDBRANCH  24  25
ENDBRANCH  23  24
ENDBRANCH  22  23
ENDBRANCH  15  22
ENDBRANCH   1  15
TORSDOF 12
ENDMDL
MODEL 5
REMARK VINA RESULT:      -5.8      1.658      2.746
REMARK  Name = 
REMARK  16 active torsions:
REMARK  status: ('A' for Active; 'I' for Inactive)
REMARK    1  A    between atoms: C_1  and  O_2
REMARK    2  A    between atoms: O_2  and  C_3
REMARK    3  A    between atoms: C_5  and  C_6
REMARK    4  A    between atoms: C_7  and  S_8
REMARK    5  A    between atoms: S_8  and  N_11
REMARK    6  A    between atoms: N_11  and  C_12
REMARK    7  A    between atoms: N_11  and  O_16
REMARK    8  A    between atoms: C_12  and  C_13
REMARK    9  A    between atoms: C_13  and  C_14
REMARK   10  A    between atoms: C_14  and  N_15
REMARK   11  A    between atoms: O_16  and  C_17
REMARK   12  A    between atoms: C_17  and  C_18
REMARK   13  A    between atoms: C_18  and  C_19
REMARK   14  A    between atoms: C_19  and  N_20
REMARK   15  A    between atoms: C_21  and  C_22
REMARK   16  A    between atoms: C_23  and  C_24
REMARK                            x       y       z     vdW  Elec       q    Type
REMARK                         _______ _______ _______ _____ _____    ______ ____
ROOT
ATOM      1  S   UNL     1       3.435   4.167  18.173  0.00  0.00    +0.000 S 
ATOM      2  O   UNL     1       3.772   3.165  19.124  0.00  0.00    +0.000 OA
ATOM      3  O   UNL     1       2.415   3.828  17.180  0.00  0.00    +0.000 OA
ENDROOT
BRANCH   1   8
ATOM      4  C   UNL     1       1.466   7.935  19.890  0.00  0.00    +0.000 A 
ATOM      5  C   UNL     1       1.466   6.754  20.627  0.00  0.00    +0.000 A 
ATOM      6  C   UNL     1       2.212   5.633  20.222  0.00  0.00    +0.000 A 
ATOM      7  C   UNL     1       2.383   4.559  21.276  0.00  0.00    +0.000 C 
ATOM      8  C   UNL     1       2.820   5.664  18.942  0.00  0.00    +0.000 A 
ATOM      9  C   UNL     1       2.963   6.900  18.257  0.00  0.00    +0.000 A 
ATOM     10  C   UNL     1       3.818   7.092  17.041  0.00  0.00    +0.000 C 
ATOM     11  C   UNL     1       2.291   8.044  18.763  0.00  0.00    +0.000 A 
ATOM     12  C   UNL     1       2.450   9.420  18.149  0.00  0.00    +0.000 C 
BRANCH   4  14
ATOM     13  C   UNL     1       0.166   9.099  21.512  0.00  0.00    +0.000 C 
ATOM     14  O   UNL     1       0.720   9.043  20.205  0.00  0.00    +0.000 OA
ENDBRANCH   4  14
ENDBRANCH   1   8
BRANCH   1  15
ATOM     15  N   UNL     1       4.933   4.534  17.305  0.00  0.00    +0.000 NA
BRANCH  15  16
ATOM     16  C   UNL     1       6.212   4.347  18.096  0.00  0.00    +0.000 C 
BRANCH  16  17
ATOM     17  C   UNL     1       6.434   5.504  19.080  0.00  0.00    +0.000 C 
BRANCH  17  18
ATOM     18  C   UNL     1       7.890   5.852  19.382  0.00  0.00    +0.000 C 
BRANCH  18  19
ATOM     19  N   UNL     1       8.224   5.316  20.697  0.00  0.00    +0.000 NA
ATOM     20  H   UNL     1       8.486   4.337  20.605  0.00  0.00    +0.000 HD
ATOM     21  H   UNL     1       7.413   5.352  21.309  0.00  0.00    +0.000 HD
ENDBRANCH  18  19
ENDBRANCH  17  18
ENDBRANCH  16  17
ENDBRANCH  15  16
BRANCH  15  22
ATOM     22  O   UNL     1       4.910   3.587  16.145  0.00  0.00    +0.000 OA
BRANCH  22  23
ATOM     23  C   UNL     1       5.024   4.284  14.909  0.00  0.00    +0.000 C 
BRANCH  23  24
ATOM     24  C   UNL     1       6.384   4.062  14.280  0.00  0.00    +0.000 C 
BRANCH  24  25
ATOM     25  C   UNL     1       7.340   5.193  14.650  0.00  0.00    +0.000 C 
BRANCH  25  26
ATOM     26  N   UNL     1       8.100   5.630  13.484  0.00  0.00    +0.000 NA
ATOM     27  H   UNL     1       7.485   6.121  12.835  0.00  0.00    +0.000 HD
ATOM     28  H   UNL     1       8.439   4.809  12.982  0.00  0.00    +0.000 HD
ENDBRANCH  25  26
ENDBRANCH  24  25
ENDBRANCH  23  24
ENDBRANCH  22  23
ENDBRANCH  15  22
ENDBRANCH   1  15
TORSDOF 12
ENDMDL
MODEL 6
REMARK VINA RESULT:      -5.7      2.676      6.552
REMARK  Name = 
REMARK  16 active torsions:
REMARK  status: ('A' for Active; 'I' for Inactive)
REMARK    1  A    between atoms: C_1  and  O_2
REMARK    2  A    between atoms: O_2  and  C_3
REMARK    3  A    between atoms: C_5  and  C_6
REMARK    4  A    between atoms: C_7  and  S_8
REMARK    5  A    between atoms: S_8  and  N_11
REMARK    6  A    between atoms: N_11  and  C_12
REMARK    7  A    between atoms: N_11  and  O_16
REMARK    8  A    between atoms: C_12  and  C_13
REMARK    9  A    between atoms: C_13  and  C_14
REMARK   10  A    between atoms: C_14  and  N_15
REMARK   11  A    between atoms: O_16  and  C_17
REMARK   12  A    between atoms: C_17  and  C_18
REMARK   13  A    between atoms: C_18  and  C_19
REMARK   14  A    between atoms: C_19  and  N_20
REMARK   15  A    between atoms: C_21  and  C_22
REMARK   16  A    between atoms: C_23  and  C_24
REMARK                            x       y       z     vdW  Elec       q    Type
REMARK                         _______ _______ _______ _____ _____    ______ ____
ROOT
ATOM      1  S   UNL     1       4.890   4.447  19.053  0.00  0.00    +0.000 S 
ATOM      2  O   UNL     1       4.848   3.136  19.601  0.00  0.00    +0.000 OA
ATOM      3  O   UNL     1       5.581   5.475  19.833  0.00  0.00    +0.000 OA
ENDROOT
BRANCH   1   8
ATOM      4  C   UNL     1       6.726   4.979  14.884  0.00  0.00    +0.000 A 
ATOM      5  C   UNL     1       7.459   5.326  16.015  0.00  0.00    +0.000 A 
ATOM      6  C   UNL     1       7.009   5.012  17.310  0.00  0.00    +0.000 A 
ATOM      7  C   UNL     1       8.049   5.146  18.403  0.00  0.00    +0.000 C 
ATOM      8  C   UNL     1       5.697   4.496  17.453  0.00  0.00    +0.000 A 
ATOM      9  C   UNL     1       5.007   3.993  16.318  0.00  0.00    +0.000 A 
ATOM     10  C   UNL     1       3.745   3.189  16.390  0.00  0.00    +0.000 C 
ATOM     11  C   UNL     1       5.553   4.225  15.027  0.00  0.00    +0.000 A 
ATOM     12  C   UNL     1       4.934   3.657  13.766  0.00  0.00    +0.000 C 
BRANCH   4  14
ATOM     13  C   UNL     1       8.453   5.606  13.369  0.00  0.00    +0.000 C 
ATOM     14  O   UNL     1       7.084   5.303  13.600  0.00  0.00    +0.000 OA
ENDBRANCH   4  14
ENDBRANCH   1   8
BRANCH   1  15
ATOM     15  N   UNL     1       3.204   4.951  18.868  0.00  0.00    +0.000 NA
BRANCH  15  16
ATOM     16  C   UNL     1       2.435   5.151  20.157  0.00  0.00    +0.000 C 
BRANCH  16  17
ATOM     17  C   UNL     1       1.269   4.159  20.272  0.00  0.00    +0.000 C 
BRANCH  17  18
ATOM     18  C   UNL     1       1.628   2.762  20.772  0.00  0.00    +0.000 C 
BRANCH  18  19
ATOM     19  N   UNL     1       2.553   2.902  21.891  0.00  0.00    +0.000 NA
ATOM     20  H   UNL     1       3.509   2.872  21.544  0.00  0.00    +0.000 HD
ATOM     21  H   UNL     1       2.445   2.126  22.538  0.00  0.00    +0.000 HD
ENDBRANCH  18  19
ENDBRANCH  17  18
ENDBRANCH  16  17
ENDBRANCH  15  16
BRANCH  15  22
ATOM     22  O   UNL     1       3.302   6.248  18.127  0.00  0.00    +0.000 OA
BRANCH  22  23
ATOM     23  C   UNL     1       2.533   7.264  18.763  0.00  0.00    +0.000 C 
BRANCH  23  24
ATOM     24  C   UNL     1       2.052   8.293  17.761  0.00  0.00    +0.000 C 
BRANCH  24  25
ATOM     25  C   UNL     1       1.493   9.520  18.477  0.00  0.00    +0.000 C 
BRANCH  25  26
ATOM     26  N   UNL     1       1.986  10.748  17.861  0.00  0.00    +0.000 NA
ATOM     27  H   UNL     1       2.714  11.158  18.445  0.00  0.00    +0.000 HD
ATOM     28  H   UNL     1       1.229  11.431  17.832  0.00  0.00    +0.000 HD
ENDBRANCH  25  26
ENDBRANCH  24  25
ENDBRANCH  23  24
ENDBRANCH  22  23
ENDBRANCH  15  22
ENDBRANCH   1  15
TORSDOF 12
ENDMDL
MODEL 7
REMARK VINA RESULT:      -5.6      1.818      2.815
REMARK  Name = 
REMARK  16 active torsions:
REMARK  status: ('A' for Active; 'I' for Inactive)
REMARK    1  A    between atoms: C_1  and  O_2
REMARK    2  A    between atoms: O_2  and  C_3
REMARK    3  A    between atoms: C_5  and  C_6
REMARK    4  A    between atoms: C_7  and  S_8
REMARK    5  A    between atoms: S_8  and  N_11
REMARK    6  A    between atoms: N_11  and  C_12
REMARK    7  A    between atoms: N_11  and  O_16
REMARK    8  A    between atoms: C_12  and  C_13
REMARK    9  A    between atoms: C_13  and  C_14
REMARK   10  A    between atoms: C_14  and  N_15
REMARK   11  A    between atoms: O_16  and  C_17
REMARK   12  A    between atoms: C_17  and  C_18
REMARK   13  A    between atoms: C_18  and  C_19
REMARK   14  A    between atoms: C_19  and  N_20
REMARK   15  A    between atoms: C_21  and  C_22
REMARK   16  A    between atoms: C_23  and  C_24
REMARK                            x       y       z     vdW  Elec       q    Type
REMARK                         _______ _______ _______ _____ _____    ______ ____
ROOT
ATOM      1  S   UNL     1       5.933   5.071  18.262  0.00  0.00    +0.000 S 
ATOM      2  O   UNL     1       7.030   5.781  17.702  0.00  0.00    +0.000 OA
ATOM      3  O   UNL     1       6.088   4.572  19.629  0.00  0.00    +0.000 OA
ENDROOT
BRANCH   1   8
ATOM      4  C   UNL     1       2.337   7.882  18.705  0.00  0.00    +0.000 A 
ATOM      5  C   UNL     1       3.156   7.974  17.583  0.00  0.00    +0.000 A 
ATOM      6  C   UNL     1       4.154   7.019  17.320  0.00  0.00    +0.000 A 
ATOM      7  C   UNL     1       4.728   7.057  15.919  0.00  0.00    +0.000 C 
ATOM      8  C   UNL     1       4.436   6.056  18.321  0.00  0.00    +0.000 A 
ATOM      9  C   UNL     1       3.518   5.851  19.384  0.00  0.00    +0.000 A 
ATOM     10  C   UNL     1       3.578   4.694  20.334  0.00  0.00    +0.000 C 
ATOM     11  C   UNL     1       2.448   6.770  19.550  0.00  0.00    +0.000 A 
ATOM     12  C   UNL     1       1.373   6.587  20.603  0.00  0.00    +0.000 C 
BRANCH   4  14
ATOM     13  C   UNL     1       1.454  10.073  18.402  0.00  0.00    +0.000 C 
ATOM     14  O   UNL     1       1.383   8.808  19.044  0.00  0.00    +0.000 OA
ENDBRANCH   4  14
ENDBRANCH   1   8
BRANCH   1  15
ATOM     15  N   UNL     1       5.668   3.677  17.204  0.00  0.00    +0.000 NA
BRANCH  15  16
ATOM     16  C   UNL     1       4.229   3.422  16.805  0.00  0.00    +0.000 C 
BRANCH  16  17
ATOM     17  C   UNL     1       3.611   2.289  17.635  0.00  0.00    +0.000 C 
BRANCH  17  18
ATOM     18  C   UNL     1       2.138   2.458  18.002  0.00  0.00    +0.000 C 
BRANCH  18  19
ATOM     19  N   UNL     1       1.628   3.637  17.309  0.00  0.00    +0.000 NA
ATOM     20  H   UNL     1       2.179   3.798  16.469  0.00  0.00    +0.000 HD
ATOM     21  H   UNL     1       1.727   4.461  17.895  0.00  0.00    +0.000 HD
ENDBRANCH  18  19
ENDBRANCH  17  18
ENDBRANCH  16  17
ENDBRANCH  15  16
BRANCH  15  22
ATOM     22  O   UNL     1       6.484   3.995  15.990  0.00  0.00    +0.000 OA
BRANCH  22  23
ATOM     23  C   UNL     1       5.778   3.676  14.796  0.00  0.00    +0.000 C 
BRANCH  23  24
ATOM     24  C   UNL     1       6.461   4.268  13.581  0.00  0.00    +0.000 C 
BRANCH  24  25
ATOM     25  C   UNL     1       6.266   3.370  12.362  0.00  0.00    +0.000 C 
BRANCH  25  26
ATOM     26  N   UNL     1       4.872   3.377  11.932  0.00  0.00    +0.000 NA
ATOM     27  H   UNL     1       4.264   3.518  12.739  0.00  0.00    +0.000 HD
ATOM     28  H   UNL     1       4.636   2.458  11.559  0.00  0.00    +0.000 HD
ENDBRANCH  25  26
ENDBRANCH  24  25
ENDBRANCH  23  24
ENDBRANCH  22  23
ENDBRANCH  15  22
ENDBRANCH   1  15
TORSDOF 12
ENDMDL
MODEL 8
REMARK VINA RESULT:      -5.6      1.279      1.307
REMARK  Name = 
REMARK  16 active torsions:
REMARK  status: ('A' for Active; 'I' for Inactive)
REMARK    1  A    between atoms: C_1  and  O_2
REMARK    2  A    between atoms: O_2  and  C_3
REMARK    3  A    between atoms: C_5  and  C_6
REMARK    4  A    between atoms: C_7  and  S_8
REMARK    5  A    between atoms: S_8  and  N_11
REMARK    6  A    between atoms: N_11  and  C_12
REMARK    7  A    between atoms: N_11  and  O_16
REMARK    8  A    between atoms: C_12  and  C_13
REMARK    9  A    between atoms: C_13  and  C_14
REMARK   10  A    between atoms: C_14  and  N_15
REMARK   11  A    between atoms: O_16  and  C_17
REMARK   12  A    between atoms: C_17  and  C_18
REMARK   13  A    between atoms: C_18  and  C_19
REMARK   14  A    between atoms: C_19  and  N_20
REMARK   15  A    between atoms: C_21  and  C_22
REMARK   16  A    between atoms: C_23  and  C_24
REMARK                            x       y       z     vdW  Elec       q    Type
REMARK                         _______ _______ _______ _____ _____    ______ ____
ROOT
ATOM      1  S   UNL     1       4.330   5.000  18.748  0.00  0.00    +0.000 S 
ATOM      2  O   UNL     1       4.947   4.732  20.001  0.00  0.00    +0.000 OA
ATOM      3  O   UNL     1       3.515   3.933  18.164  0.00  0.00    +0.000 OA
ENDROOT
BRANCH   1   8
ATOM      4  C   UNL     1       1.814   8.804  19.215  0.00  0.00    +0.000 A 
ATOM      5  C   UNL     1       2.631   8.645  18.100  0.00  0.00    +0.000 A 
ATOM      6  C   UNL     1       3.275   7.425  17.827  0.00  0.00    +0.000 A 
ATOM      7  C   UNL     1       3.845   7.297  16.430  0.00  0.00    +0.000 C 
ATOM      8  C   UNL     1       3.225   6.409  18.814  0.00  0.00    +0.000 A 
ATOM      9  C   UNL     1       2.279   6.494  19.869  0.00  0.00    +0.000 A 
ATOM     10  C   UNL     1       1.956   5.366  20.801  0.00  0.00    +0.000 C 
ATOM     11  C   UNL     1       1.555   7.704  20.044  0.00  0.00    +0.000 A 
ATOM     12  C   UNL     1       0.467   7.860  21.087  0.00  0.00    +0.000 C 
BRANCH   4  14
ATOM     13  C   UNL     1       1.475  11.117  18.754  0.00  0.00    +0.000 C 
ATOM     14  O   UNL     1       1.201   9.982  19.564  0.00  0.00    +0.000 OA
ENDBRANCH   4  14
ENDBRANCH   1   8
BRANCH   1  15
ATOM     15  N   UNL     1       5.650   5.350  17.622  0.00  0.00    +0.000 NA
BRANCH  15  16
ATOM     16  C   UNL     1       7.007   4.803  18.013  0.00  0.00    +0.000 C 
BRANCH  16  17
ATOM     17  C   UNL     1       7.858   5.869  18.717  0.00  0.00    +0.000 C 
BRANCH  17  18
ATOM     18  C   UNL     1       7.712   7.295  18.189  0.00  0.00    +0.000 C 
BRANCH  18  19
ATOM     19  N   UNL     1       7.694   7.241  16.731  0.00  0.00    +0.000 NA
ATOM     20  H   UNL     1       6.808   7.608  16.392  0.00  0.00    +0.000 HD
ATOM     21  H   UNL     1       7.762   6.278  16.413  0.00  0.00    +0.000 HD
ENDBRANCH  18  19
ENDBRANCH  17  18
ENDBRANCH  16  17
ENDBRANCH  15  16
BRANCH  15  22
ATOM     22  O   UNL     1       5.197   4.720  16.341  0.00  0.00    +0.000 OA
BRANCH  22  23
ATOM     23  C   UNL     1       6.208   3.878  15.797  0.00  0.00    +0.000 C 
BRANCH  23  24
ATOM     24  C   UNL     1       6.049   3.733  14.297  0.00  0.00    +0.000 C 
BRANCH  24  25
ATOM     25  C   UNL     1       6.851   4.805  13.565  0.00  0.00    +0.000 C 
BRANCH  25  26
ATOM     26  N   UNL     1       7.812   5.437  14.464  0.00  0.00    +0.000 NA
ATOM     27  H   UNL     1       8.499   4.749  14.772  0.00  0.00    +0.000 HD
ATOM     28  H   UNL     1       7.325   5.745  15.306  0.00  0.00    +0.000 HD
ENDBRANCH  25  26
ENDBRANCH  24  25
ENDBRANCH  23  24
ENDBRANCH  22  23
ENDBRANCH  15  22
ENDBRANCH   1  15
TORSDOF 12
ENDMDL
MODEL 9
REMARK VINA RESULT:      -5.6      2.703      6.274
REMARK  Name = 
REMARK  16 active torsions:
REMARK  status: ('A' for Active; 'I' for Inactive)
REMARK    1  A    between atoms: C_1  and  O_2
REMARK    2  A    between atoms: O_2  and  C_3
REMARK    3  A    between atoms: C_5  and  C_6
REMARK    4  A    between atoms: C_7  and  S_8
REMARK    5  A    between atoms: S_8  and  N_11
REMARK    6  A    between atoms: N_11  and  C_12
REMARK    7  A    between atoms: N_11  and  O_16
REMARK    8  A    between atoms: C_12  and  C_13
REMARK    9  A    between atoms: C_13  and  C_14
REMARK   10  A    between atoms: C_14  and  N_15
REMARK   11  A    between atoms: O_16  and  C_17
REMARK   12  A    between atoms: C_17  and  C_18
REMARK   13  A    between atoms: C_18  and  C_19
REMARK   14  A    between atoms: C_19  and  N_20
REMARK   15  A    between atoms: C_21  and  C_22
REMARK   16  A    between atoms: C_23  and  C_24
REMARK                            x       y       z     vdW  Elec       q    Type
REMARK                         _______ _______ _______ _____ _____    ______ ____
ROOT
ATOM      1  S   UNL     1       5.109   4.578  19.258  0.00  0.00    +0.000 S 
ATOM      2  O   UNL     1       4.544   3.290  19.469  0.00  0.00    +0.000 OA
ATOM      3  O   UNL     1       6.174   4.997  20.170  0.00  0.00    +0.000 OA
ENDROOT
BRANCH   1   8
ATOM      4  C   UNL     1       6.632   5.351  15.003  0.00  0.00    +0.000 A 
ATOM      5  C   UNL     1       7.274   5.941  16.088  0.00  0.00    +0.000 A 
ATOM      6  C   UNL     1       6.956   5.589  17.412  0.00  0.00    +0.000 A 
ATOM      7  C   UNL     1       7.950   6.052  18.457  0.00  0.00    +0.000 C 
ATOM      8  C   UNL     1       5.833   4.752  17.628  0.00  0.00    +0.000 A 
ATOM      9  C   UNL     1       5.275   4.024  16.544  0.00  0.00    +0.000 A 
ATOM     10  C   UNL     1       4.274   2.920  16.701  0.00  0.00    +0.000 C 
ATOM     11  C   UNL     1       5.707   4.323  15.224  0.00  0.00    +0.000 A 
ATOM     12  C   UNL     1       5.230   3.544  14.015  0.00  0.00    +0.000 C 
BRANCH   4  14
ATOM     13  C   UNL     1       8.169   5.466  13.186  0.00  0.00    +0.000 C 
ATOM     14  O   UNL     1       6.860   5.689  13.692  0.00  0.00    +0.000 OA
ENDBRANCH   4  14
ENDBRANCH   1   8
BRANCH   1  15
ATOM     15  N   UNL     1       3.772   5.726  19.424  0.00  0.00    +0.000 NA
BRANCH  15  16
ATOM     16  C   UNL     1       3.007   6.030  18.152  0.00  0.00    +0.000 C 
BRANCH  16  17
ATOM     17  C   UNL     1       3.138   7.508  17.760  0.00  0.00    +0.000 C 
BRANCH  17  18
ATOM     18  C   UNL     1       2.086   8.449  18.343  0.00  0.00    +0.000 C 
BRANCH  18  19
ATOM     19  N   UNL     1       1.950   9.591  17.446  0.00  0.00    +0.000 NA
ATOM     20  H   UNL     1       2.863   9.836  17.071  0.00  0.00    +0.000 HD
ATOM     21  H   UNL     1       1.609  10.401  17.957  0.00  0.00    +0.000 HD
ENDBRANCH  18  19
ENDBRANCH  17  18
ENDBRANCH  16  17
ENDBRANCH  15  16
BRANCH  15  22
ATOM     22  O   UNL     1       2.865   5.071  20.419  0.00  0.00    +0.000 OA
BRANCH  22  23
ATOM     23  C   UNL     1       1.595   4.780  19.845  0.00  0.00    +0.000 C 
BRANCH  23  24
ATOM     24  C   UNL     1       1.154   3.370  20.181  0.00  0.00    +0.000 C 
BRANCH  24  25
ATOM     25  C   UNL     1       1.454   3.047  21.643  0.00  0.00    +0.000 C 
BRANCH  25  26
ATOM     26  N   UNL     1       2.798   2.498  21.785  0.00  0.00    +0.000 NA
ATOM     27  H   UNL     1       2.966   2.247  22.759  0.00  0.00    +0.000 HD
ATOM     28  H   UNL     1       3.478   3.224  21.560  0.00  0.00    +0.000 HD
ENDBRANCH  25  26
ENDBRANCH  24  25
ENDBRANCH  23  24
ENDBRANCH  22  23
ENDBRANCH  15  22
ENDBRANCH   1  15
TORSDOF 12
ENDMDL
