MODEL 1
REMARK VINA RESULT:      -8.1      0.000      0.000
REMARK  Name = 
REMARK  8 active torsions:
REMARK  status: ('A' for Active; 'I' for Inactive)
REMARK    1  A    between atoms: C_1  and  O_2
REMARK    2  A    between atoms: O_2  and  C_3
REMARK    3  A    between atoms: C_3  and  C_4
REMARK    4  A    between atoms: C_4  and  C_5
REMARK    5  A    between atoms: C_5  and  C_6
REMARK    6  A    between atoms: C_9  and  C_10
REMARK    7  A    between atoms: N_19  and  C_20
REMARK    8  A    between atoms: C_20  and  C_21
REMARK                            x       y       z     vdW  Elec       q    Type
REMARK                         _______ _______ _______ _____ _____    ______ ____
ROOT
ATOM      1  C   UNL     1       6.174   5.715  16.855  0.00  0.00    +0.000 C 
ATOM      2  C   UNL     1       4.969   6.694  16.731  0.00  0.00    +0.000 C 
ATOM      3  C   UNL     1       4.137   6.881  18.017  0.00  0.00    +0.000 C 
ATOM      4  N   UNL     1       3.714   5.591  18.588  0.00  0.00    +0.000 NA
ATOM      5  C   UNL     1       4.919   4.797  18.894  0.00  0.00    +0.000 C 
ATOM      6  C   UNL     1       5.668   4.460  17.609  0.00  0.00    +0.000 C 
ENDROOT
BRANCH   1   7
ATOM      7  C   UNL     1       6.663   5.296  15.481  0.00  0.00    +0.000 A 
ATOM      8  N   UNL     1       7.853   5.667  14.979  0.00  0.00    +0.000 NA
ATOM      9  O   UNL     1       7.843   5.131  13.689  0.00  0.00    +0.000 OA
ATOM     10  C   UNL     1       6.639   4.510  13.543  0.00  0.00    +0.000 A 
ATOM     11  N   UNL     1       5.870   4.601  14.605  0.00  0.00    +0.000 NA
BRANCH  10  12
ATOM     12  C   UNL     1       6.373   3.807  12.261  0.00  0.00    +0.000 C 
ATOM     13  C   UNL     1       4.943   3.252  12.244  0.00  0.00    +0.000 C 
ATOM     14  C   UNL     1       4.728   2.319  11.065  0.00  0.00    +0.000 C 
ATOM     15  O   UNL     1       5.708   1.285  11.055  0.00  0.00    +0.000 OA
ATOM     16  C   UNL     1       7.030   1.794  10.899  0.00  0.00    +0.000 C 
ATOM     17  C   UNL     1       7.400   2.685  12.072  0.00  0.00    +0.000 C 
ENDBRANCH  10  12
ENDBRANCH   1   7
BRANCH   1  18
ATOM     18  C   UNL     1       7.377   6.355  17.618  0.00  0.00    +0.000 C 
BRANCH  18  19
ATOM     19  C   UNL     1       7.495   7.878  17.490  0.00  0.00    +0.000 C 
BRANCH  19  21
ATOM     20  C   UNL     1       8.659   9.748  18.342  0.00  0.00    +0.000 C 
ATOM     21  O   UNL     1       8.429   8.349  18.467  0.00  0.00    +0.000 OA
ENDBRANCH  19  21
ENDBRANCH  18  19
ENDBRANCH   1  18
BRANCH   4  22
ATOM     22  C   UNL     1       2.900   5.715  19.823  0.00  0.00    +0.000 C 
BRANCH  22  23
ATOM     23  C   UNL     1       1.642   4.815  19.981  0.00  0.00    +0.000 C 
ATOM     24  C   UNL     1       1.217   4.030  18.718  0.00  0.00    +0.000 C 
ATOM     25  C   UNL     1       1.876   2.659  18.501  0.00  0.00    +0.000 C 
ATOM     26  C   UNL     1       1.983   1.825  19.773  0.00  0.00    +0.000 C 
ATOM     27  C   UNL     1       2.645   2.626  20.881  0.00  0.00    +0.000 C 
ATOM     28  C   UNL     1       1.816   3.869  21.190  0.00  0.00    +0.000 C 
ENDBRANCH  22  23
ENDBRANCH   4  22
TORSDOF 7
ENDMDL
MODEL 2
REMARK VINA RESULT:      -7.9      2.281      6.385
REMARK  Name = 
REMARK  8 active torsions:
REMARK  status: ('A' for Active; 'I' for Inactive)
REMARK    1  A    between atoms: C_1  and  O_2
REMARK    2  A    between atoms: O_2  and  C_3
REMARK    3  A    between atoms: C_3  and  C_4
REMARK    4  A    between atoms: C_4  and  C_5
REMARK    5  A    between atoms: C_5  and  C_6
REMARK    6  A    between atoms: C_9  and  C_10
REMARK    7  A    between atoms: N_19  and  C_20
REMARK    8  A    between atoms: C_20  and  C_21
REMARK                            x       y       z     vdW  Elec       q    Type
REMARK                         _______ _______ _______ _____ _____    ______ ____
ROOT
ATOM      1  C   UNL     1       5.937   5.925  16.947  0.00  0.00    +0.000 C 
ATOM      2  C   UNL     1       6.235   4.413  17.181  0.00  0.00    +0.000 C 
ATOM      3  C   UNL     1       5.042   3.463  16.951  0.00  0.00    +0.000 C 
ATOM      4  N   UNL     1       3.849   3.889  17.702  0.00  0.00    +0.000 NA
ATOM      5  C   UNL     1       3.484   5.251  17.267  0.00  0.00    +0.000 C 
ATOM      6  C   UNL     1       4.587   6.237  17.638  0.00  0.00    +0.000 C 
ENDROOT
BRANCH   1   7
ATOM      7  C   UNL     1       7.018   6.784  17.576  0.00  0.00    +0.000 A 
ATOM      8  N   UNL     1       7.758   6.385  18.625  0.00  0.00    +0.000 NA
ATOM      9  O   UNL     1       8.549   7.500  18.909  0.00  0.00    +0.000 OA
ATOM     10  C   UNL     1       8.189   8.462  18.013  0.00  0.00    +0.000 A 
ATOM     11  N   UNL     1       7.240   8.080  17.188  0.00  0.00    +0.000 NA
BRANCH  10  12
ATOM     12  C   UNL     1       8.912   9.759  18.060  0.00  0.00    +0.000 C 
ATOM     13  C   UNL     1       9.364  10.065  19.494  0.00  0.00    +0.000 C 
ATOM     14  C   UNL     1       9.877  11.490  19.617  0.00  0.00    +0.000 C 
ATOM     15  O   UNL     1       8.903  12.418  19.150  0.00  0.00    +0.000 OA
ATOM     16  C   UNL     1       8.607  12.241  17.767  0.00  0.00    +0.000 C 
ATOM     17  C   UNL     1       8.002  10.869  17.523  0.00  0.00    +0.000 C 
ENDBRANCH  10  12
ENDBRANCH   1   7
BRANCH   1  18
ATOM     18  C   UNL     1       5.862   6.283  15.429  0.00  0.00    +0.000 C 
BRANCH  18  19
ATOM     19  C   UNL     1       6.342   5.183  14.475  0.00  0.00    +0.000 C 
BRANCH  19  21
ATOM     20  C   UNL     1       7.927   5.246  12.725  0.00  0.00    +0.000 C 
ATOM     21  O   UNL     1       7.702   5.449  14.115  0.00  0.00    +0.000 OA
ENDBRANCH  19  21
ENDBRANCH  18  19
ENDBRANCH   1  18
BRANCH   4  22
ATOM     22  C   UNL     1       2.674   3.002  17.523  0.00  0.00    +0.000 C 
BRANCH  22  23
ATOM     23  C   UNL     1       2.241   2.089  18.705  0.00  0.00    +0.000 C 
ATOM     24  C   UNL     1       3.190   2.079  19.926  0.00  0.00    +0.000 C 
ATOM     25  C   UNL     1       2.961   3.162  20.991  0.00  0.00    +0.000 C 
ATOM     26  C   UNL     1       1.491   3.392  21.321  0.00  0.00    +0.000 C 
ATOM     27  C   UNL     1       0.692   3.637  20.052  0.00  0.00    +0.000 C 
ATOM     28  C   UNL     1       0.794   2.425  19.131  0.00  0.00    +0.000 C 
ENDBRANCH  22  23
ENDBRANCH   4  22
TORSDOF 7
ENDMDL
MODEL 3
REMARK VINA RESULT:      -7.6      1.813      6.571
REMARK  Name = 
REMARK  8 active torsions:
REMARK  status: ('A' for Active; 'I' for Inactive)
REMARK    1  A    between atoms: C_1  and  O_2
REMARK    2  A    between atoms: O_2  and  C_3
REMARK    3  A    between atoms: C_3  and  C_4
REMARK    4  A    between atoms: C_4  and  C_5
REMARK    5  A    between atoms: C_5  and  C_6
REMARK    6  A    between atoms: C_9  and  C_10
REMARK    7  A    between atoms: N_19  and  C_20
REMARK    8  A    between atoms: C_20  and  C_21
REMARK                            x       y       z     vdW  Elec       q    Type
REMARK                         _______ _______ _______ _____ _____    ______ ____
ROOT
ATOM      1  C   UNL     1       6.285   6.197  17.142  0.00  0.00    +0.000 C 
ATOM      2  C   UNL     1       6.305   4.812  17.857  0.00  0.00    +0.000 C 
ATOM      3  C   UNL     1       5.057   3.935  17.629  0.00  0.00    +0.000 C 
ATOM      4  N   UNL     1       3.812   4.665  17.924  0.00  0.00    +0.000 NA
ATOM      5  C   UNL     1       3.746   5.851  17.049  0.00  0.00    +0.000 C 
ATOM      6  C   UNL     1       4.884   6.812  17.377  0.00  0.00    +0.000 C 
ENDROOT
BRANCH   1   7
ATOM      7  C   UNL     1       7.331   7.119  17.740  0.00  0.00    +0.000 A 
ATOM      8  N   UNL     1       8.124   6.765  18.766  0.00  0.00    +0.000 NA
ATOM      9  O   UNL     1       8.854   7.926  19.029  0.00  0.00    +0.000 OA
ATOM     10  C   UNL     1       8.411   8.864  18.145  0.00  0.00    +0.000 A 
ATOM     11  N   UNL     1       7.462   8.426  17.348  0.00  0.00    +0.000 NA
BRANCH  10  12
ATOM     12  C   UNL     1       9.056  10.202  18.173  0.00  0.00    +0.000 C 
ATOM     13  C   UNL     1       9.499  10.550  19.601  0.00  0.00    +0.000 C 
ATOM     14  C   UNL     1       9.927  12.004  19.705  0.00  0.00    +0.000 C 
ATOM     15  O   UNL     1       8.896  12.868  19.235  0.00  0.00    +0.000 OA
ATOM     16  C   UNL     1       8.601  12.658  17.856  0.00  0.00    +0.000 C 
ATOM     17  C   UNL     1       8.077  11.251  17.632  0.00  0.00    +0.000 C 
ENDBRANCH  10  12
ENDBRANCH   1   7
BRANCH   1  18
ATOM     18  C   UNL     1       6.572   6.073  15.612  0.00  0.00    +0.000 C 
BRANCH  18  19
ATOM     19  C   UNL     1       7.020   4.685  15.142  0.00  0.00    +0.000 C 
BRANCH  19  21
ATOM     20  C   UNL     1       6.105   3.709  13.196  0.00  0.00    +0.000 C 
ATOM     21  O   UNL     1       7.025   4.665  13.710  0.00  0.00    +0.000 OA
ENDBRANCH  19  21
ENDBRANCH  18  19
ENDBRANCH   1  18
BRANCH   4  22
ATOM     22  C   UNL     1       2.580   3.862  17.731  0.00  0.00    +0.000 C 
BRANCH  22  23
ATOM     23  C   UNL     1       1.398   4.056  18.723  0.00  0.00    +0.000 C 
ATOM     24  C   UNL     1       0.815   2.760  19.332  0.00  0.00    +0.000 C 
ATOM     25  C   UNL     1       1.488   2.232  20.609  0.00  0.00    +0.000 C 
ATOM     26  C   UNL     1       1.823   3.324  21.618  0.00  0.00    +0.000 C 
ATOM     27  C   UNL     1       2.616   4.437  20.955  0.00  0.00    +0.000 C 
ATOM     28  C   UNL     1       1.796   5.060  19.829  0.00  0.00    +0.000 C 
ENDBRANCH  22  23
ENDBRANCH   4  22
TORSDOF 7
ENDMDL
MODEL 4
REMARK VINA RESULT:      -7.1      3.486      5.437
REMARK  Name = 
REMARK  8 active torsions:
REMARK  status: ('A' for Active; 'I' for Inactive)
REMARK    1  A    between atoms: C_1  and  O_2
REMARK    2  A    between atoms: O_2  and  C_3
REMARK    3  A    between atoms: C_3  and  C_4
REMARK    4  A    between atoms: C_4  and  C_5
REMARK    5  A    between atoms: C_5  and  C_6
REMARK    6  A    between atoms: C_9  and  C_10
REMARK    7  A    between atoms: N_19  and  C_20
REMARK    8  A    between atoms: C_20  and  C_21
REMARK                            x       y       z     vdW  Elec       q    Type
REMARK                         _______ _______ _______ _____ _____    ______ ____
ROOT
ATOM      1  C   UNL     1       3.318   5.215  18.143  0.00  0.00    +0.000 C 
ATOM      2  C   UNL     1       3.432   5.063  19.690  0.00  0.00    +0.000 C 
ATOM      3  C   UNL     1       2.326   5.764  20.504  0.00  0.00    +0.000 C 
ATOM      4  N   UNL     1       2.175   7.178  20.121  0.00  0.00    +0.000 NA
ATOM      5  C   UNL     1       1.843   7.241  18.685  0.00  0.00    +0.000 C 
ATOM      6  C   UNL     1       3.001   6.702  17.852  0.00  0.00    +0.000 C 
ENDROOT
BRANCH   1   7
ATOM      7  C   UNL     1       4.631   4.854  17.474  0.00  0.00    +0.000 A 
ATOM      8  N   UNL     1       5.795   4.763  18.140  0.00  0.00    +0.000 NA
ATOM      9  O   UNL     1       6.725   4.495  17.134  0.00  0.00    +0.000 OA
ATOM     10  C   UNL     1       6.027   4.471  15.964  0.00  0.00    +0.000 A 
ATOM     11  N   UNL     1       4.743   4.707  16.116  0.00  0.00    +0.000 NA
BRANCH  10  12
ATOM     12  C   UNL     1       6.773   4.160  14.717  0.00  0.00    +0.000 C 
ATOM     13  C   UNL     1       7.499   5.411  14.205  0.00  0.00    +0.000 C 
ATOM     14  C   UNL     1       8.055   5.190  12.808  0.00  0.00    +0.000 C 
ATOM     15  O   UNL     1       7.029   4.760  11.918  0.00  0.00    +0.000 OA
ATOM     16  C   UNL     1       6.469   3.507  12.304  0.00  0.00    +0.000 C 
ATOM     17  C   UNL     1       5.800   3.620  13.663  0.00  0.00    +0.000 C 
ENDBRANCH  10  12
ENDBRANCH   1   7
BRANCH   1  18
ATOM     18  C   UNL     1       2.205   4.298  17.543  0.00  0.00    +0.000 C 
BRANCH  18  19
ATOM     19  C   UNL     1       2.424   2.793  17.737  0.00  0.00    +0.000 C 
BRANCH  19  21
ATOM     20  C   UNL     1       0.709   2.702  19.359  0.00  0.00    +0.000 C 
ATOM     21  O   UNL     1       1.180   2.194  18.115  0.00  0.00    +0.000 OA
ENDBRANCH  19  21
ENDBRANCH  18  19
ENDBRANCH   1  18
BRANCH   4  22
ATOM     22  C   UNL     1       1.129   7.903  20.884  0.00  0.00    +0.000 C 
BRANCH  22  23
ATOM     23  C   UNL     1       1.449   9.326  21.423  0.00  0.00    +0.000 C 
ATOM     24  C   UNL     1       0.796  10.496  20.652  0.00  0.00    +0.000 C 
ATOM     25  C   UNL     1      -0.619  10.908  21.087  0.00  0.00    +0.000 C 
ATOM     26  C   UNL     1      -0.804  10.951  22.600  0.00  0.00    +0.000 C 
ATOM     27  C   UNL     1      -0.353   9.644  23.228  0.00  0.00    +0.000 C 
ATOM     28  C   UNL     1       1.124   9.406  22.932  0.00  0.00    +0.000 C 
ENDBRANCH  22  23
ENDBRANCH   4  22
TORSDOF 7
ENDMDL
MODEL 5
REMARK VINA RESULT:      -7.0      6.344     10.032
REMARK  Name = 
REMARK  8 active torsions:
REMARK  status: ('A' for Active; 'I' for Inactive)
REMARK    1  A    between atoms: C_1  and  O_2
REMARK    2  A    between atoms: O_2  and  C_3
REMARK    3  A    between atoms: C_3  and  C_4
REMARK    4  A    between atoms: C_4  and  C_5
REMARK    5  A    between atoms: C_5  and  C_6
REMARK    6  A    between atoms: C_9  and  C_10
REMARK    7  A    between atoms: N_19  and  C_20
REMARK    8  A    between atoms: C_20  and  C_21
REMARK                            x       y       z     vdW  Elec       q    Type
REMARK                         _______ _______ _______ _____ _____    ______ ____
ROOT
ATOM      1  C   UNL     1       0.832  10.181  19.519  0.00  0.00    +0.000 C 
ATOM      2  C   UNL     1       1.696   9.715  18.308  0.00  0.00    +0.000 C 
ATOM      3  C   UNL     1       1.871   8.188  18.173  0.00  0.00    +0.000 C 
ATOM      4  N   UNL     1       2.343   7.577  19.426  0.00  0.00    +0.000 NA
ATOM      5  C   UNL     1       1.360   7.866  20.488  0.00  0.00    +0.000 C 
ATOM      6  C   UNL     1       1.296   9.367  20.752  0.00  0.00    +0.000 C 
ENDROOT
BRANCH   1   7
ATOM      7  C   UNL     1       1.053  11.656  19.794  0.00  0.00    +0.000 A 
ATOM      8  N   UNL     1       0.925  12.204  21.015  0.00  0.00    +0.000 NA
ATOM      9  O   UNL     1       1.137  13.565  20.785  0.00  0.00    +0.000 OA
ATOM     10  C   UNL     1       1.352  13.697  19.445  0.00  0.00    +0.000 A 
ATOM     11  N   UNL     1       1.289  12.559  18.791  0.00  0.00    +0.000 NA
BRANCH  10  12
ATOM     12  C   UNL     1       1.650  15.055  18.922  0.00  0.00    +0.000 C 
ATOM     13  C   UNL     1       2.906  15.022  18.041  0.00  0.00    +0.000 C 
ATOM     14  C   UNL     1       3.378  16.426  17.702  0.00  0.00    +0.000 C 
ATOM     15  O   UNL     1       3.571  17.193  18.887  0.00  0.00    +0.000 OA
ATOM     16  C   UNL     1       2.362  17.367  19.622  0.00  0.00    +0.000 C 
ATOM     17  C   UNL     1       1.828  16.025  20.095  0.00  0.00    +0.000 C 
ENDBRANCH  10  12
ENDBRANCH   1   7
BRANCH   1  18
ATOM     18  C   UNL     1      -0.695   9.963  19.271  0.00  0.00    +0.000 C 
BRANCH  18  19
ATOM     19  C   UNL     1      -1.170  10.243  17.841  0.00  0.00    +0.000 C 
BRANCH  19  21
ATOM     20  C   UNL     1      -2.960   9.824  16.358  0.00  0.00    +0.000 C 
ATOM     21  O   UNL     1      -2.526   9.799  17.713  0.00  0.00    +0.000 OA
ENDBRANCH  19  21
ENDBRANCH  18  19
ENDBRANCH   1  18
BRANCH   4  22
ATOM     22  C   UNL     1       2.539   6.108  19.347  0.00  0.00    +0.000 C 
BRANCH  22  23
ATOM     23  C   UNL     1       2.614   5.440  17.944  0.00  0.00    +0.000 C 
ATOM     24  C   UNL     1       3.950   4.740  17.607  0.00  0.00    +0.000 C 
ATOM     25  C   UNL     1       4.096   3.276  18.049  0.00  0.00    +0.000 C 
ATOM     26  C   UNL     1       2.848   2.436  17.800  0.00  0.00    +0.000 C 
ATOM     27  C   UNL     1       1.625   3.110  18.396  0.00  0.00    +0.000 C 
ATOM     28  C   UNL     1       1.419   4.478  17.752  0.00  0.00    +0.000 C 
ENDBRANCH  22  23
ENDBRANCH   4  22
TORSDOF 7
ENDMDL
MODEL 6
REMARK VINA RESULT:      -7.0      1.910      6.532
REMARK  Name = 
REMARK  8 active torsions:
REMARK  status: ('A' for Active; 'I' for Inactive)
REMARK    1  A    between atoms: C_1  and  O_2
REMARK    2  A    between atoms: O_2  and  C_3
REMARK    3  A    between atoms: C_3  and  C_4
REMARK    4  A    between atoms: C_4  and  C_5
REMARK    5  A    between atoms: C_5  and  C_6
REMARK    6  A    between atoms: C_9  and  C_10
REMARK    7  A    between atoms: N_19  and  C_20
REMARK    8  A    between atoms: C_20  and  C_21
REMARK                            x       y       z     vdW  Elec       q    Type
REMARK                         _______ _______ _______ _____ _____    ______ ____
ROOT
ATOM      1  C   UNL     1       6.049   6.147  17.045  0.00  0.00    +0.000 C 
ATOM      2  C   UNL     1       6.121   4.709  17.641  0.00  0.00    +0.000 C 
ATOM      3  C   UNL     1       4.877   3.831  17.395  0.00  0.00    +0.000 C 
ATOM      4  N   UNL     1       3.636   4.511  17.804  0.00  0.00    +0.000 NA
ATOM      5  C   UNL     1       3.513   5.764  17.033  0.00  0.00    +0.000 C 
ATOM      6  C   UNL     1       4.650   6.715  17.390  0.00  0.00    +0.000 C 
ENDROOT
BRANCH   1   7
ATOM      7  C   UNL     1       7.106   7.036  17.671  0.00  0.00    +0.000 A 
ATOM      8  N   UNL     1       8.030   6.583  18.536  0.00  0.00    +0.000 NA
ATOM      9  O   UNL     1       8.724   7.738  18.906  0.00  0.00    +0.000 OA
ATOM     10  C   UNL     1       8.132   8.769  18.239  0.00  0.00    +0.000 A 
ATOM     11  N   UNL     1       7.122   8.394  17.486  0.00  0.00    +0.000 NA
BRANCH  10  12
ATOM     12  C   UNL     1       8.704  10.128  18.417  0.00  0.00    +0.000 C 
ATOM     13  C   UNL     1       9.871  10.347  17.444  0.00  0.00    +0.000 C 
ATOM     14  C   UNL     1      10.632  11.620  17.775  0.00  0.00    +0.000 C 
ATOM     15  O   UNL     1      11.057  11.614  19.134  0.00  0.00    +0.000 OA
ATOM     16  C   UNL     1       9.960  11.582  20.044  0.00  0.00    +0.000 C 
ATOM     17  C   UNL     1       9.161  10.303  19.870  0.00  0.00    +0.000 C 
ENDBRANCH  10  12
ENDBRANCH   1   7
BRANCH   1  18
ATOM     18  C   UNL     1       6.268   6.155  15.499  0.00  0.00    +0.000 C 
BRANCH  18  19
ATOM     19  C   UNL     1       7.012   4.938  14.939  0.00  0.00    +0.000 C 
BRANCH  19  21
ATOM     20  C   UNL     1       6.502   3.871  12.894  0.00  0.00    +0.000 C 
ATOM     21  O   UNL     1       6.078   4.116  14.230  0.00  0.00    +0.000 OA
ENDBRANCH  19  21
ENDBRANCH  18  19
ENDBRANCH   1  18
BRANCH   4  22
ATOM     22  C   UNL     1       2.408   3.704  17.598  0.00  0.00    +0.000 C 
BRANCH  22  23
ATOM     23  C   UNL     1       2.160   2.475  18.517  0.00  0.00    +0.000 C 
ATOM     24  C   UNL     1       3.314   2.115  19.480  0.00  0.00    +0.000 C 
ATOM     25  C   UNL     1       3.329   2.829  20.841  0.00  0.00    +0.000 C 
ATOM     26  C   UNL     1       1.955   2.930  21.492  0.00  0.00    +0.000 C 
ATOM     27  C   UNL     1       0.950   3.530  20.525  0.00  0.00    +0.000 C 
ATOM     28  C   UNL     1       0.830   2.649  19.286  0.00  0.00    +0.000 C 
ENDBRANCH  22  23
ENDBRANCH   4  22
TORSDOF 7
ENDMDL
MODEL 7
REMARK VINA RESULT:      -6.9      4.589      8.987
REMARK  Name = 
REMARK  8 active torsions:
REMARK  status: ('A' for Active; 'I' for Inactive)
REMARK    1  A    between atoms: C_1  and  O_2
REMARK    2  A    between atoms: O_2  and  C_3
REMARK    3  A    between atoms: C_3  and  C_4
REMARK    4  A    between atoms: C_4  and  C_5
REMARK    5  A    between atoms: C_5  and  C_6
REMARK    6  A    between atoms: C_9  and  C_10
REMARK    7  A    between atoms: N_19  and  C_20
REMARK    8  A    between atoms: C_20  and  C_21
REMARK                            x       y       z     vdW  Elec       q    Type
REMARK                         _______ _______ _______ _____ _____    ______ ____
ROOT
ATOM      1  C   UNL     1       2.342   6.113  19.724  0.00  0.00    +0.000 C 
ATOM      2  C   UNL     1       2.081   5.756  18.229  0.00  0.00    +0.000 C 
ATOM      3  C   UNL     1       3.039   4.709  17.625  0.00  0.00    +0.000 C 
ATOM      4  N   UNL     1       4.451   5.067  17.845  0.00  0.00    +0.000 NA
ATOM      5  C   UNL     1       4.688   5.169  19.298  0.00  0.00    +0.000 C 
ATOM      6  C   UNL     1       3.868   6.314  19.886  0.00  0.00    +0.000 C 
ENDROOT
BRANCH   1   7
ATOM      7  C   UNL     1       1.637   7.405  20.093  0.00  0.00    +0.000 A 
ATOM      8  N   UNL     1       0.913   7.553  21.216  0.00  0.00    +0.000 NA
ATOM      9  O   UNL     1       0.396   8.845  21.101  0.00  0.00    +0.000 OA
ATOM     10  C   UNL     1       0.846   9.333  19.911  0.00  0.00    +0.000 A 
ATOM     11  N   UNL     1       1.593   8.481  19.245  0.00  0.00    +0.000 NA
BRANCH  10  12
ATOM     12  C   UNL     1       0.476  10.725  19.548  0.00  0.00    +0.000 C 
ATOM     13  C   UNL     1       0.326  11.583  20.811  0.00  0.00    +0.000 C 
ATOM     14  C   UNL     1      -0.294  12.933  20.490  0.00  0.00    +0.000 C 
ATOM     15  O   UNL     1      -1.530  12.768  19.800  0.00  0.00    +0.000 OA
ATOM     16  C   UNL     1      -1.365  12.118  18.542  0.00  0.00    +0.000 C 
ATOM     17  C   UNL     1      -0.824  10.712  18.736  0.00  0.00    +0.000 C 
ENDBRANCH  10  12
ENDBRANCH   1   7
BRANCH   1  18
ATOM     18  C   UNL     1       1.837   4.997  20.693  0.00  0.00    +0.000 C 
BRANCH  18  19
ATOM     19  C   UNL     1       0.886   3.971  20.067  0.00  0.00    +0.000 C 
BRANCH  19  21
ATOM     20  C   UNL     1       2.199   2.652  21.521  0.00  0.00    +0.000 C 
ATOM     21  O   UNL     1       1.368   2.656  20.366  0.00  0.00    +0.000 OA
ENDBRANCH  19  21
ENDBRANCH  18  19
ENDBRANCH   1  18
BRANCH   4  22
ATOM     22  C   UNL     1       5.417   4.097  17.273  0.00  0.00    +0.000 C 
BRANCH  22  23
ATOM     23  C   UNL     1       6.800   4.617  16.789  0.00  0.00    +0.000 C 
ATOM     24  C   UNL     1       6.804   6.035  16.173  0.00  0.00    +0.000 C 
ATOM     25  C   UNL     1       6.969   7.213  17.146  0.00  0.00    +0.000 C 
ATOM     26  C   UNL     1       8.025   6.974  18.220  0.00  0.00    +0.000 C 
ATOM     27  C   UNL     1       7.773   5.655  18.931  0.00  0.00    +0.000 C 
ATOM     28  C   UNL     1       7.836   4.505  17.931  0.00  0.00    +0.000 C 
ENDBRANCH  22  23
ENDBRANCH   4  22
TORSDOF 7
ENDMDL
MODEL 8
REMARK VINA RESULT:      -6.9      6.431     10.021
REMARK  Name = 
REMARK  8 active torsions:
REMARK  status: ('A' for Active; 'I' for Inactive)
REMARK    1  A    between atoms: C_1  and  O_2
REMARK    2  A    between atoms: O_2  and  C_3
REMARK    3  A    between atoms: C_3  and  C_4
REMARK    4  A    between atoms: C_4  and  C_5
REMARK    5  A    between atoms: C_5  and  C_6
REMARK    6  A    between atoms: C_9  and  C_10
REMARK    7  A    between atoms: N_19  and  C_20
REMARK    8  A    between atoms: C_20  and  C_21
REMARK                            x       y       z     vdW  Elec       q    Type
REMARK                         _______ _______ _______ _____ _____    ______ ____
ROOT
ATOM      1  C   UNL     1       0.722  10.224  19.397  0.00  0.00    +0.000 C 
ATOM      2  C   UNL     1       1.674   9.802  18.237  0.00  0.00    +0.000 C 
ATOM      3  C   UNL     1       1.903   8.284  18.092  0.00  0.00    +0.000 C 
ATOM      4  N   UNL     1       2.316   7.667  19.365  0.00  0.00    +0.000 NA
ATOM      5  C   UNL     1       1.261   7.912  20.367  0.00  0.00    +0.000 C 
ATOM      6  C   UNL     1       1.134   9.406  20.646  0.00  0.00    +0.000 C 
ENDROOT
BRANCH   1   7
ATOM      7  C   UNL     1       0.882  11.700  19.705  0.00  0.00    +0.000 A 
ATOM      8  N   UNL     1       0.015  12.391  20.466  0.00  0.00    +0.000 NA
ATOM      9  O   UNL     1       0.503  13.698  20.411  0.00  0.00    +0.000 OA
ATOM     10  C   UNL     1       1.603  13.662  19.606  0.00  0.00    +0.000 A 
ATOM     11  N   UNL     1       1.864  12.465  19.131  0.00  0.00    +0.000 NA
BRANCH  10  12
ATOM     12  C   UNL     1       2.356  14.927  19.403  0.00  0.00    +0.000 C 
ATOM     13  C   UNL     1       1.443  16.135  19.650  0.00  0.00    +0.000 C 
ATOM     14  C   UNL     1       2.109  17.427  19.206  0.00  0.00    +0.000 C 
ATOM     15  O   UNL     1       2.530  17.337  17.848  0.00  0.00    +0.000 OA
ATOM     16  C   UNL     1       3.509  16.320  17.651  0.00  0.00    +0.000 C 
ATOM     17  C   UNL     1       2.932  14.954  17.983  0.00  0.00    +0.000 C 
ENDBRANCH  10  12
ENDBRANCH   1   7
BRANCH   1  18
ATOM     18  C   UNL     1      -0.778   9.964  19.052  0.00  0.00    +0.000 C 
BRANCH  18  19
ATOM     19  C   UNL     1      -1.203  10.373  17.637  0.00  0.00    +0.000 C 
BRANCH  19  21
ATOM     20  C   UNL     1      -3.557  10.181  17.658  0.00  0.00    +0.000 C 
ATOM     21  O   UNL     1      -2.332   9.582  17.250  0.00  0.00    +0.000 OA
ENDBRANCH  19  21
ENDBRANCH  18  19
ENDBRANCH   1  18
BRANCH   4  22
ATOM     22  C   UNL     1       2.561   6.207  19.278  0.00  0.00    +0.000 C 
BRANCH  22  23
ATOM     23  C   UNL     1       2.584   5.536  17.876  0.00  0.00    +0.000 C 
ATOM     24  C   UNL     1       3.934   4.910  17.456  0.00  0.00    +0.000 C 
ATOM     25  C   UNL     1       4.190   3.459  17.891  0.00  0.00    +0.000 C 
ATOM     26  C   UNL     1       2.978   2.549  17.723  0.00  0.00    +0.000 C 
ATOM     27  C   UNL     1       1.759   3.157  18.395  0.00  0.00    +0.000 C 
ATOM     28  C   UNL     1       1.436   4.507  17.762  0.00  0.00    +0.000 C 
ENDBRANCH  22  23
ENDBRANCH   4  22
TORSDOF 7
ENDMDL
MODEL 9
REMARK VINA RESULT:      -6.9      7.026      9.155
REMARK  Name = 
REMARK  8 active torsions:
REMARK  status: ('A' for Active; 'I' for Inactive)
REMARK    1  A    between atoms: C_1  and  O_2
REMARK    2  A    between atoms: O_2  and  C_3
REMARK    3  A    between atoms: C_3  and  C_4
REMARK    4  A    between atoms: C_4  and  C_5
REMARK    5  A    between atoms: C_5  and  C_6
REMARK    6  A    between atoms: C_9  and  C_10
REMARK    7  A    between atoms: N_19  and  C_20
REMARK    8  A    between atoms: C_20  and  C_21
REMARK                            x       y       z     vdW  Elec       q    Type
REMARK                         _______ _______ _______ _____ _____    ______ ____
ROOT
ATOM      1  C   UNL     1       0.563  10.016  19.818  0.00  0.00    +0.000 C 
ATOM      2  C   UNL     1       1.209  11.389  20.174  0.00  0.00    +0.000 C 
ATOM      3  C   UNL     1       0.233  12.458  20.706  0.00  0.00    +0.000 C 
ATOM      4  N   UNL     1      -0.927  12.634  19.816  0.00  0.00    +0.000 NA
ATOM      5  C   UNL     1      -1.629  11.341  19.701  0.00  0.00    +0.000 C 
ATOM      6  C   UNL     1      -0.731  10.313  19.022  0.00  0.00    +0.000 C 
ENDROOT
BRANCH   1   7
ATOM      7  C   UNL     1       1.497   9.198  18.947  0.00  0.00    +0.000 A 
ATOM      8  N   UNL     1       1.793   9.525  17.677  0.00  0.00    +0.000 NA
ATOM      9  O   UNL     1       2.604   8.471  17.251  0.00  0.00    +0.000 OA
ATOM     10  C   UNL     1       2.696   7.609  18.303  0.00  0.00    +0.000 A 
ATOM     11  N   UNL     1       2.017   7.999  19.359  0.00  0.00    +0.000 NA
BRANCH  10  12
ATOM     12  C   UNL     1       3.546   6.402  18.138  0.00  0.00    +0.000 C 
ATOM     13  C   UNL     1       4.532   6.598  16.979  0.00  0.00    +0.000 C 
ATOM     14  C   UNL     1       5.233   5.297  16.626  0.00  0.00    +0.000 C 
ATOM     15  O   UNL     1       4.283   4.270  16.358  0.00  0.00    +0.000 OA
ATOM     16  C   UNL     1       3.477   3.969  17.494  0.00  0.00    +0.000 C 
ATOM     17  C   UNL     1       2.653   5.179  17.898  0.00  0.00    +0.000 C 
ENDBRANCH  10  12
ENDBRANCH   1   7
BRANCH   1  18
ATOM     18  C   UNL     1       0.233   9.173  21.091  0.00  0.00    +0.000 C 
BRANCH  18  19
ATOM     19  C   UNL     1       1.254   9.283  22.229  0.00  0.00    +0.000 C 
BRANCH  19  21
ATOM     20  C   UNL     1      -0.790  10.026  23.152  0.00  0.00    +0.000 C 
ATOM     21  O   UNL     1       0.578   9.730  23.410  0.00  0.00    +0.000 OA
ENDBRANCH  19  21
ENDBRANCH  18  19
ENDBRANCH   1  18
BRANCH   4  22
ATOM     22  C   UNL     1      -1.893  13.661  20.278  0.00  0.00    +0.000 C 
BRANCH  22  23
ATOM     23  C   UNL     1      -3.113  13.208  21.129  0.00  0.00    +0.000 C 
ATOM     24  C   UNL     1      -2.874  13.134  22.655  0.00  0.00    +0.000 C 
ATOM     25  C   UNL     1      -3.098  14.427  23.455  0.00  0.00    +0.000 C 
ATOM     26  C   UNL     1      -4.346  15.196  23.035  0.00  0.00    +0.000 C 
ATOM     27  C   UNL     1      -4.349  15.426  21.534  0.00  0.00    +0.000 C 
ATOM     28  C   UNL     1      -4.342  14.088  20.802  0.00  0.00    +0.000 C 
ENDBRANCH  22  23
ENDBRANCH   4  22
TORSDOF 7
ENDMDL
