MODEL 1
REMARK VINA RESULT:      -8.1      0.000      0.000
REMARK  Name = 
REMARK  12 active torsions:
REMARK  status: ('A' for Active; 'I' for Inactive)
REMARK    1  A    between atoms: C_1  and  C_2
REMARK    2  A    between atoms: C_2  and  C_3
REMARK    3  A    between atoms: C_3  and  C_4
REMARK    4  A    between atoms: C_4  and  C_5
REMARK    5  A    between atoms: C_11  and  C_13
REMARK    6  A    between atoms: C_13  and  C_14
REMARK    7  A    between atoms: C_14  and  C_15
REMARK    8  A    between atoms: C_15  and  C_16
REMARK    9  A    between atoms: C_15  and  C_19
REMARK   10  A    between atoms: C_16  and  C_17
REMARK   11  A    between atoms: C_17  and  C_18
REMARK   12  A    between atoms: C_19  and  O_21
REMARK                            x       y       z     vdW  Elec       q    Type
REMARK                         _______ _______ _______ _____ _____    ______ ____
ROOT
ATOM      1  C   UNL     1       1.465   8.562  20.270  0.00  0.00    +0.000 A 
ATOM      2  C   UNL     1       1.215   9.706  19.512  0.00  0.00    +0.000 A 
ATOM      3  C   UNL     1       1.556   9.699  18.167  0.00  0.00    +0.000 A 
ATOM      4  N   UNL     1       2.131   8.656  17.538  0.00  0.00    +0.000 NA
ATOM      5  C   UNL     1       2.473   7.603  18.300  0.00  0.00    +0.000 A 
ATOM      6  N   UNL     1       3.162   6.589  17.630  0.00  0.00    +0.000 N 
ATOM      7  C   UNL     1       4.240   5.918  18.165  0.00  0.00    +0.000 C 
ATOM      8  O   UNL     1       4.746   6.188  19.258  0.00  0.00    +0.000 OA
ATOM      9  C   UNL     1       2.142   7.502  19.653  0.00  0.00    +0.000 A 
ATOM     10  H   UNL     1       3.064   6.641  16.625  0.00  0.00    +0.000 HD
ENDROOT
BRANCH   7  11
ATOM     11  C   UNL     1       4.853   4.834  17.261  0.00  0.00    +0.000 C 
ATOM     12  C   UNL     1       5.089   5.398  15.847  0.00  0.00    +0.000 C 
ATOM     13  C   UNL     1       6.243   4.600  15.273  0.00  0.00    +0.000 C 
ATOM     14  C   UNL     1       7.185   4.421  16.444  0.00  0.00    +0.000 C 
ATOM     15  C   UNL     1       6.332   4.586  17.705  0.00  0.00    +0.000 C 
BRANCH  11  16
ATOM     16  C   UNL     1       4.023   3.507  17.330  0.00  0.00    +0.000 C 
BRANCH  16  17
ATOM     17  C   UNL     1       3.344   3.016  18.665  0.00  0.00    +0.000 C 
BRANCH  17  18
ATOM     18  C   UNL     1       4.225   1.904  19.269  0.00  0.00    +0.000 C 
ATOM     19  O   UNL     1       4.858   2.004  20.305  0.00  0.00    +0.000 OA
BRANCH  18  20
ATOM     20  O   UNL     1       4.273   0.763  18.531  0.00  0.00    +0.000 OA
ATOM     21  H   UNL     1       4.671  -0.007  18.975  0.00  0.00    +0.000 HD
ENDBRANCH  18  20
ENDBRANCH  17  18
BRANCH  17  22
ATOM     22  C   UNL     1       1.899   2.465  18.550  0.00  0.00    +0.000 C 
BRANCH  22  23
ATOM     23  C   UNL     1       0.936   3.166  19.516  0.00  0.00    +0.000 C 
ATOM     24  C   UNL     1       1.251   2.964  20.986  0.00  0.00    +0.000 C 
ENDBRANCH  22  23
ENDBRANCH  17  22
ENDBRANCH  16  17
ENDBRANCH  11  16
ENDBRANCH   7  11
BRANCH   1  25
ATOM     25  C   UNL     1       1.045   8.470  21.720  0.00  0.00    +0.000 C 
BRANCH  25  26
ATOM     26  C   UNL     1      -0.417   8.879  21.941  0.00  0.00    +0.000 C 
BRANCH  26  28
ATOM     27  C   UNL     1      -0.871  11.232  22.719  0.00  0.00    +0.000 C 
ATOM     28  C   UNL     1      -0.575   9.803  23.151  0.00  0.00    +0.000 C 
ENDBRANCH  26  28
ENDBRANCH  25  26
ENDBRANCH   1  25
TORSDOF 10
ENDMDL
MODEL 2
REMARK VINA RESULT:      -7.6      3.467      7.469
REMARK  Name = 
REMARK  12 active torsions:
REMARK  status: ('A' for Active; 'I' for Inactive)
REMARK    1  A    between atoms: C_1  and  C_2
REMARK    2  A    between atoms: C_2  and  C_3
REMARK    3  A    between atoms: C_3  and  C_4
REMARK    4  A    between atoms: C_4  and  C_5
REMARK    5  A    between atoms: C_11  and  C_13
REMARK    6  A    between atoms: C_13  and  C_14
REMARK    7  A    between atoms: C_14  and  C_15
REMARK    8  A    between atoms: C_15  and  C_16
REMARK    9  A    between atoms: C_15  and  C_19
REMARK   10  A    between atoms: C_16  and  C_17
REMARK   11  A    between atoms: C_17  and  C_18
REMARK   12  A    between atoms: C_19  and  O_21
REMARK                            x       y       z     vdW  Elec       q    Type
REMARK                         _______ _______ _______ _____ _____    ______ ____
ROOT
ATOM      1  C   UNL     1       6.275   3.744  12.147  0.00  0.00    +0.000 A 
ATOM      2  C   UNL     1       7.170   4.480  11.370  0.00  0.00    +0.000 A 
ATOM      3  C   UNL     1       8.065   5.326  12.010  0.00  0.00    +0.000 A 
ATOM      4  N   UNL     1       8.120   5.499  13.344  0.00  0.00    +0.000 NA
ATOM      5  C   UNL     1       7.181   4.876  14.075  0.00  0.00    +0.000 A 
ATOM      6  N   UNL     1       7.209   5.166  15.441  0.00  0.00    +0.000 N 
ATOM      7  C   UNL     1       6.077   5.380  16.198  0.00  0.00    +0.000 C 
ATOM      8  O   UNL     1       4.933   5.404  15.734  0.00  0.00    +0.000 OA
ATOM      9  C   UNL     1       6.261   3.978  13.528  0.00  0.00    +0.000 A 
ATOM     10  H   UNL     1       8.086   5.568  15.743  0.00  0.00    +0.000 HD
ENDROOT
BRANCH   7  11
ATOM     11  C   UNL     1       6.328   5.684  17.685  0.00  0.00    +0.000 C 
ATOM     12  C   UNL     1       7.490   4.819  18.211  0.00  0.00    +0.000 C 
ATOM     13  C   UNL     1       8.103   5.605  19.353  0.00  0.00    +0.000 C 
ATOM     14  C   UNL     1       8.067   7.040  18.874  0.00  0.00    +0.000 C 
ATOM     15  C   UNL     1       6.970   7.105  17.808  0.00  0.00    +0.000 C 
BRANCH  11  16
ATOM     16  C   UNL     1       4.998   5.602  18.509  0.00  0.00    +0.000 C 
BRANCH  16  17
ATOM     17  C   UNL     1       4.538   4.273  19.221  0.00  0.00    +0.000 C 
BRANCH  17  18
ATOM     18  C   UNL     1       3.771   3.419  18.191  0.00  0.00    +0.000 C 
ATOM     19  O   UNL     1       3.772   2.201  18.160  0.00  0.00    +0.000 OA
BRANCH  18  20
ATOM     20  O   UNL     1       3.081   4.139  17.267  0.00  0.00    +0.000 OA
ATOM     21  H   UNL     1       3.623   4.686  16.671  0.00  0.00    +0.000 HD
ENDBRANCH  18  20
ENDBRANCH  17  18
BRANCH  17  22
ATOM     22  C   UNL     1       3.635   4.430  20.472  0.00  0.00    +0.000 C 
BRANCH  22  23
ATOM     23  C   UNL     1       2.351   5.209  20.164  0.00  0.00    +0.000 C 
ATOM     24  C   UNL     1       1.066   4.453  20.445  0.00  0.00    +0.000 C 
ENDBRANCH  22  23
ENDBRANCH  17  22
ENDBRANCH  16  17
ENDBRANCH  11  16
ENDBRANCH   7  11
BRANCH   1  25
ATOM     25  C   UNL     1       5.328   2.743  11.524  0.00  0.00    +0.000 C 
BRANCH  25  26
ATOM     26  C   UNL     1       3.872   3.226  11.520  0.00  0.00    +0.000 C 
BRANCH  26  28
ATOM     27  C   UNL     1       2.862   4.379   9.520  0.00  0.00    +0.000 C 
ATOM     28  C   UNL     1       3.213   3.040  10.151  0.00  0.00    +0.000 C 
ENDBRANCH  26  28
ENDBRANCH  25  26
ENDBRANCH   1  25
TORSDOF 10
ENDMDL
MODEL 3
REMARK VINA RESULT:      -7.5      3.649      7.620
REMARK  Name = 
REMARK  12 active torsions:
REMARK  status: ('A' for Active; 'I' for Inactive)
REMARK    1  A    between atoms: C_1  and  C_2
REMARK    2  A    between atoms: C_2  and  C_3
REMARK    3  A    between atoms: C_3  and  C_4
REMARK    4  A    between atoms: C_4  and  C_5
REMARK    5  A    between atoms: C_11  and  C_13
REMARK    6  A    between atoms: C_13  and  C_14
REMARK    7  A    between atoms: C_14  and  C_15
REMARK    8  A    between atoms: C_15  and  C_16
REMARK    9  A    between atoms: C_15  and  C_19
REMARK   10  A    between atoms: C_16  and  C_17
REMARK   11  A    between atoms: C_17  and  C_18
REMARK   12  A    between atoms: C_19  and  O_21
REMARK                            x       y       z     vdW  Elec       q    Type
REMARK                         _______ _______ _______ _____ _____    ______ ____
ROOT
ATOM      1  C   UNL     1       6.146   3.638  12.281  0.00  0.00    +0.000 A 
ATOM      2  C   UNL     1       7.030   4.327  11.451  0.00  0.00    +0.000 A 
ATOM      3  C   UNL     1       7.927   5.216  12.028  0.00  0.00    +0.000 A 
ATOM      4  N   UNL     1       7.995   5.471  13.349  0.00  0.00    +0.000 NA
ATOM      5  C   UNL     1       7.065   4.891  14.126  0.00  0.00    +0.000 A 
ATOM      6  N   UNL     1       7.104   5.266  15.471  0.00  0.00    +0.000 N 
ATOM      7  C   UNL     1       5.978   5.522  16.224  0.00  0.00    +0.000 C 
ATOM      8  O   UNL     1       4.830   5.512  15.771  0.00  0.00    +0.000 OA
ATOM      9  C   UNL     1       6.144   3.957  13.645  0.00  0.00    +0.000 A 
ATOM     10  H   UNL     1       7.982   5.689  15.739  0.00  0.00    +0.000 HD
ENDROOT
BRANCH   7  11
ATOM     11  C   UNL     1       6.242   5.919  17.687  0.00  0.00    +0.000 C 
ATOM     12  C   UNL     1       7.204   4.909  18.342  0.00  0.00    +0.000 C 
ATOM     13  C   UNL     1       7.923   5.675  19.434  0.00  0.00    +0.000 C 
ATOM     14  C   UNL     1       8.174   7.038  18.825  0.00  0.00    +0.000 C 
ATOM     15  C   UNL     1       7.138   7.200  17.708  0.00  0.00    +0.000 C 
BRANCH  11  16
ATOM     16  C   UNL     1       4.898   6.168  18.454  0.00  0.00    +0.000 C 
BRANCH  16  17
ATOM     17  C   UNL     1       3.833   5.026  18.664  0.00  0.00    +0.000 C 
BRANCH  17  18
ATOM     18  C   UNL     1       2.705   5.581  19.555  0.00  0.00    +0.000 C 
ATOM     19  O   UNL     1       1.687   4.976  19.846  0.00  0.00    +0.000 OA
BRANCH  18  20
ATOM     20  O   UNL     1       2.910   6.850  19.996  0.00  0.00    +0.000 OA
ATOM     21  H   UNL     1       2.979   6.952  20.962  0.00  0.00    +0.000 HD
ENDBRANCH  18  20
ENDBRANCH  17  18
BRANCH  17  22
ATOM     22  C   UNL     1       4.341   3.710  19.309  0.00  0.00    +0.000 C 
BRANCH  22  23
ATOM     23  C   UNL     1       3.899   2.472  18.520  0.00  0.00    +0.000 C 
ATOM     24  C   UNL     1       2.918   2.751  17.398  0.00  0.00    +0.000 C 
ENDBRANCH  22  23
ENDBRANCH  17  22
ENDBRANCH  16  17
ENDBRANCH  11  16
ENDBRANCH   7  11
BRANCH   1  25
ATOM     25  C   UNL     1       5.199   2.595  11.731  0.00  0.00    +0.000 C 
BRANCH  25  26
ATOM     26  C   UNL     1       3.845   3.185  11.315  0.00  0.00    +0.000 C 
BRANCH  26  28
ATOM     27  C   UNL     1       2.538   4.321   9.483  0.00  0.00    +0.000 C 
ATOM     28  C   UNL     1       3.916   3.868   9.947  0.00  0.00    +0.000 C 
ENDBRANCH  26  28
ENDBRANCH  25  26
ENDBRANCH   1  25
TORSDOF 10
ENDMDL
MODEL 4
REMARK VINA RESULT:      -7.4      0.948      1.110
REMARK  Name = 
REMARK  12 active torsions:
REMARK  status: ('A' for Active; 'I' for Inactive)
REMARK    1  A    between atoms: C_1  and  C_2
REMARK    2  A    between atoms: C_2  and  C_3
REMARK    3  A    between atoms: C_3  and  C_4
REMARK    4  A    between atoms: C_4  and  C_5
REMARK    5  A    between atoms: C_11  and  C_13
REMARK    6  A    between atoms: C_13  and  C_14
REMARK    7  A    between atoms: C_14  and  C_15
REMARK    8  A    between atoms: C_15  and  C_16
REMARK    9  A    between atoms: C_15  and  C_19
REMARK   10  A    between atoms: C_16  and  C_17
REMARK   11  A    between atoms: C_17  and  C_18
REMARK   12  A    between atoms: C_19  and  O_21
REMARK                            x       y       z     vdW  Elec       q    Type
REMARK                         _______ _______ _______ _____ _____    ______ ____
ROOT
ATOM      1  C   UNL     1       1.414   8.278  20.091  0.00  0.00    +0.000 A 
ATOM      2  C   UNL     1       1.310   9.442  19.329  0.00  0.00    +0.000 A 
ATOM      3  C   UNL     1       1.864   9.453  18.056  0.00  0.00    +0.000 A 
ATOM      4  N   UNL     1       2.514   8.411  17.505  0.00  0.00    +0.000 NA
ATOM      5  C   UNL     1       2.709   7.336  18.287  0.00  0.00    +0.000 A 
ATOM      6  N   UNL     1       3.479   6.322  17.714  0.00  0.00    +0.000 N 
ATOM      7  C   UNL     1       4.445   5.617  18.400  0.00  0.00    +0.000 C 
ATOM      8  O   UNL     1       4.772   5.855  19.566  0.00  0.00    +0.000 OA
ATOM      9  C   UNL     1       2.163   7.216  19.567  0.00  0.00    +0.000 A 
ATOM     10  H   UNL     1       3.546   6.396  16.708  0.00  0.00    +0.000 HD
ENDROOT
BRANCH   7  11
ATOM     11  C   UNL     1       5.177   4.539  17.583  0.00  0.00    +0.000 C 
ATOM     12  C   UNL     1       4.855   4.703  16.085  0.00  0.00    +0.000 C 
ATOM     13  C   UNL     1       6.050   4.137  15.343  0.00  0.00    +0.000 C 
ATOM     14  C   UNL     1       7.240   4.590  16.161  0.00  0.00    +0.000 C 
ATOM     15  C   UNL     1       6.706   4.868  17.569  0.00  0.00    +0.000 C 
BRANCH  11  16
ATOM     16  C   UNL     1       4.922   3.112  18.177  0.00  0.00    +0.000 C 
BRANCH  16  17
ATOM     17  C   UNL     1       3.673   2.798  19.087  0.00  0.00    +0.000 C 
BRANCH  17  18
ATOM     18  C   UNL     1       4.188   2.262  20.437  0.00  0.00    +0.000 C 
ATOM     19  O   UNL     1       5.245   1.676  20.596  0.00  0.00    +0.000 OA
BRANCH  18  20
ATOM     20  O   UNL     1       3.345   2.471  21.483  0.00  0.00    +0.000 OA
ATOM     21  H   UNL     1       3.765   2.775  22.307  0.00  0.00    +0.000 HD
ENDBRANCH  18  20
ENDBRANCH  17  18
BRANCH  17  22
ATOM     22  C   UNL     1       2.647   1.776  18.533  0.00  0.00    +0.000 C 
BRANCH  22  23
ATOM     23  C   UNL     1       1.208   2.300  18.616  0.00  0.00    +0.000 C 
ATOM     24  C   UNL     1       1.075   3.808  18.526  0.00  0.00    +0.000 C 
ENDBRANCH  22  23
ENDBRANCH  17  22
ENDBRANCH  16  17
ENDBRANCH  11  16
ENDBRANCH   7  11
BRANCH   1  25
ATOM     25  C   UNL     1       0.764   8.166  21.452  0.00  0.00    +0.000 C 
BRANCH  25  26
ATOM     26  C   UNL     1       1.004   9.403  22.328  0.00  0.00    +0.000 C 
BRANCH  26  28
ATOM     27  C   UNL     1      -0.623  11.315  22.111  0.00  0.00    +0.000 C 
ATOM     28  C   UNL     1      -0.308  10.011  22.830  0.00  0.00    +0.000 C 
ENDBRANCH  26  28
ENDBRANCH  25  26
ENDBRANCH   1  25
TORSDOF 10
ENDMDL
MODEL 5
REMARK VINA RESULT:      -7.4      3.397      7.550
REMARK  Name = 
REMARK  12 active torsions:
REMARK  status: ('A' for Active; 'I' for Inactive)
REMARK    1  A    between atoms: C_1  and  C_2
REMARK    2  A    between atoms: C_2  and  C_3
REMARK    3  A    between atoms: C_3  and  C_4
REMARK    4  A    between atoms: C_4  and  C_5
REMARK    5  A    between atoms: C_11  and  C_13
REMARK    6  A    between atoms: C_13  and  C_14
REMARK    7  A    between atoms: C_14  and  C_15
REMARK    8  A    between atoms: C_15  and  C_16
REMARK    9  A    between atoms: C_15  and  C_19
REMARK   10  A    between atoms: C_16  and  C_17
REMARK   11  A    between atoms: C_17  and  C_18
REMARK   12  A    between atoms: C_19  and  O_21
REMARK                            x       y       z     vdW  Elec       q    Type
REMARK                         _______ _______ _______ _____ _____    ______ ____
ROOT
ATOM      1  C   UNL     1       6.280   3.699  12.167  0.00  0.00    +0.000 A 
ATOM      2  C   UNL     1       7.185   4.386  11.358  0.00  0.00    +0.000 A 
ATOM      3  C   UNL     1       8.068   5.275  11.957  0.00  0.00    +0.000 A 
ATOM      4  N   UNL     1       8.102   5.533  13.278  0.00  0.00    +0.000 NA
ATOM      5  C   UNL     1       7.152   4.955  14.032  0.00  0.00    +0.000 A 
ATOM      6  N   UNL     1       7.157   5.332  15.377  0.00  0.00    +0.000 N 
ATOM      7  C   UNL     1       6.012   5.591  16.100  0.00  0.00    +0.000 C 
ATOM      8  O   UNL     1       4.876   5.582  15.618  0.00  0.00    +0.000 OA
ATOM      9  C   UNL     1       6.242   4.021  13.530  0.00  0.00    +0.000 A 
ATOM     10  H   UNL     1       8.028   5.755  15.667  0.00  0.00    +0.000 HD
ENDROOT
BRANCH   7  11
ATOM     11  C   UNL     1       6.239   5.990  17.569  0.00  0.00    +0.000 C 
ATOM     12  C   UNL     1       7.235   5.020  18.231  0.00  0.00    +0.000 C 
ATOM     13  C   UNL     1       7.906   5.811  19.338  0.00  0.00    +0.000 C 
ATOM     14  C   UNL     1       8.103   7.187  18.739  0.00  0.00    +0.000 C 
ATOM     15  C   UNL     1       7.076   7.310  17.609  0.00  0.00    +0.000 C 
BRANCH  11  16
ATOM     16  C   UNL     1       4.875   6.175  18.319  0.00  0.00    +0.000 C 
BRANCH  16  17
ATOM     17  C   UNL     1       4.293   5.067  19.276  0.00  0.00    +0.000 C 
BRANCH  17  18
ATOM     18  C   UNL     1       3.895   3.851  18.416  0.00  0.00    +0.000 C 
ATOM     19  O   UNL     1       2.967   3.832  17.626  0.00  0.00    +0.000 OA
BRANCH  18  20
ATOM     20  O   UNL     1       4.661   2.746  18.616  0.00  0.00    +0.000 OA
ATOM     21  H   UNL     1       4.183   1.898  18.619  0.00  0.00    +0.000 HD
ENDBRANCH  18  20
ENDBRANCH  17  18
BRANCH  17  22
ATOM     22  C   UNL     1       3.062   5.462  20.133  0.00  0.00    +0.000 C 
BRANCH  22  23
ATOM     23  C   UNL     1       2.394   6.745  19.626  0.00  0.00    +0.000 C 
ATOM     24  C   UNL     1       1.553   7.474  20.657  0.00  0.00    +0.000 C 
ENDBRANCH  22  23
ENDBRANCH  17  22
ENDBRANCH  16  17
ENDBRANCH  11  16
ENDBRANCH   7  11
BRANCH   1  25
ATOM     25  C   UNL     1       5.346   2.656  11.594  0.00  0.00    +0.000 C 
BRANCH  25  26
ATOM     26  C   UNL     1       3.875   3.092  11.632  0.00  0.00    +0.000 C 
BRANCH  26  28
ATOM     27  C   UNL     1       2.981   3.466   9.306  0.00  0.00    +0.000 C 
ATOM     28  C   UNL     1       3.558   4.127  10.550  0.00  0.00    +0.000 C 
ENDBRANCH  26  28
ENDBRANCH  25  26
ENDBRANCH   1  25
TORSDOF 10
ENDMDL
MODEL 6
REMARK VINA RESULT:      -7.3      1.854      3.897
REMARK  Name = 
REMARK  12 active torsions:
REMARK  status: ('A' for Active; 'I' for Inactive)
REMARK    1  A    between atoms: C_1  and  C_2
REMARK    2  A    between atoms: C_2  and  C_3
REMARK    3  A    between atoms: C_3  and  C_4
REMARK    4  A    between atoms: C_4  and  C_5
REMARK    5  A    between atoms: C_11  and  C_13
REMARK    6  A    between atoms: C_13  and  C_14
REMARK    7  A    between atoms: C_14  and  C_15
REMARK    8  A    between atoms: C_15  and  C_16
REMARK    9  A    between atoms: C_15  and  C_19
REMARK   10  A    between atoms: C_16  and  C_17
REMARK   11  A    between atoms: C_17  and  C_18
REMARK   12  A    between atoms: C_19  and  O_21
REMARK                            x       y       z     vdW  Elec       q    Type
REMARK                         _______ _______ _______ _____ _____    ______ ____
ROOT
ATOM      1  C   UNL     1       1.043   9.408  20.194  0.00  0.00    +0.000 A 
ATOM      2  C   UNL     1       1.274  10.505  19.365  0.00  0.00    +0.000 A 
ATOM      3  C   UNL     1       1.790  10.281  18.096  0.00  0.00    +0.000 A 
ATOM      4  N   UNL     1       2.099   9.064  17.609  0.00  0.00    +0.000 NA
ATOM      5  C   UNL     1       1.981   8.027  18.454  0.00  0.00    +0.000 A 
ATOM      6  N   UNL     1       2.413   6.800  17.944  0.00  0.00    +0.000 N 
ATOM      7  C   UNL     1       3.139   5.884  18.675  0.00  0.00    +0.000 C 
ATOM      8  O   UNL     1       3.538   6.081  19.826  0.00  0.00    +0.000 OA
ATOM      9  C   UNL     1       1.441   8.145  19.737  0.00  0.00    +0.000 A 
ATOM     10  H   UNL     1       2.484   6.793  16.936  0.00  0.00    +0.000 HD
ENDROOT
BRANCH   7  11
ATOM     11  C   UNL     1       3.512   4.593  17.925  0.00  0.00    +0.000 C 
ATOM     12  C   UNL     1       4.079   3.555  18.911  0.00  0.00    +0.000 C 
ATOM     13  C   UNL     1       3.776   2.200  18.302  0.00  0.00    +0.000 C 
ATOM     14  C   UNL     1       2.391   2.363  17.713  0.00  0.00    +0.000 C 
ATOM     15  C   UNL     1       2.198   3.865  17.488  0.00  0.00    +0.000 C 
BRANCH  11  16
ATOM     16  C   UNL     1       4.413   4.906  16.681  0.00  0.00    +0.000 C 
BRANCH  16  17
ATOM     17  C   UNL     1       5.953   4.572  16.661  0.00  0.00    +0.000 C 
BRANCH  17  18
ATOM     18  C   UNL     1       6.728   5.869  16.969  0.00  0.00    +0.000 C 
ATOM     19  O   UNL     1       6.560   6.561  17.958  0.00  0.00    +0.000 OA
BRANCH  18  20
ATOM     20  O   UNL     1       7.633   6.222  16.017  0.00  0.00    +0.000 OA
ATOM     21  H   UNL     1       7.341   6.912  15.396  0.00  0.00    +0.000 HD
ENDBRANCH  18  20
ENDBRANCH  17  18
BRANCH  17  22
ATOM     22  C   UNL     1       6.522   3.983  15.344  0.00  0.00    +0.000 C 
BRANCH  22  23
ATOM     23  C   UNL     1       5.544   4.136  14.174  0.00  0.00    +0.000 C 
ATOM     24  C   UNL     1       6.048   3.591  12.850  0.00  0.00    +0.000 C 
ENDBRANCH  22  23
ENDBRANCH  17  22
ENDBRANCH  16  17
ENDBRANCH  11  16
ENDBRANCH   7  11
BRANCH   1  25
ATOM     25  C   UNL     1       0.408   9.570  21.557  0.00  0.00    +0.000 C 
BRANCH  25  26
ATOM     26  C   UNL     1      -0.328  10.908  21.714  0.00  0.00    +0.000 C 
BRANCH  26  28
ATOM     27  C   UNL     1      -1.884  12.286  23.139  0.00  0.00    +0.000 C 
ATOM     28  C   UNL     1      -1.186  10.942  22.981  0.00  0.00    +0.000 C 
ENDBRANCH  26  28
ENDBRANCH  25  26
ENDBRANCH   1  25
TORSDOF 10
ENDMDL
MODEL 7
REMARK VINA RESULT:      -7.2      1.712      3.773
REMARK  Name = 
REMARK  12 active torsions:
REMARK  status: ('A' for Active; 'I' for Inactive)
REMARK    1  A    between atoms: C_1  and  C_2
REMARK    2  A    between atoms: C_2  and  C_3
REMARK    3  A    between atoms: C_3  and  C_4
REMARK    4  A    between atoms: C_4  and  C_5
REMARK    5  A    between atoms: C_11  and  C_13
REMARK    6  A    between atoms: C_13  and  C_14
REMARK    7  A    between atoms: C_14  and  C_15
REMARK    8  A    between atoms: C_15  and  C_16
REMARK    9  A    between atoms: C_15  and  C_19
REMARK   10  A    between atoms: C_16  and  C_17
REMARK   11  A    between atoms: C_17  and  C_18
REMARK   12  A    between atoms: C_19  and  O_21
REMARK                            x       y       z     vdW  Elec       q    Type
REMARK                         _______ _______ _______ _____ _____    ______ ____
ROOT
ATOM      1  C   UNL     1       0.981   9.839  19.717  0.00  0.00    +0.000 A 
ATOM      2  C   UNL     1       1.466  10.841  18.876  0.00  0.00    +0.000 A 
ATOM      3  C   UNL     1       2.160  10.469  17.732  0.00  0.00    +0.000 A 
ATOM      4  N   UNL     1       2.412   9.194  17.382  0.00  0.00    +0.000 NA
ATOM      5  C   UNL     1       2.043   8.242  18.255  0.00  0.00    +0.000 A 
ATOM      6  N   UNL     1       2.418   6.943  17.903  0.00  0.00    +0.000 N 
ATOM      7  C   UNL     1       2.908   6.021  18.804  0.00  0.00    +0.000 C 
ATOM      8  O   UNL     1       3.127   6.269  19.993  0.00  0.00    +0.000 OA
ATOM      9  C   UNL     1       1.311   8.512  19.413  0.00  0.00    +0.000 A 
ATOM     10  H   UNL     1       2.657   6.850  16.925  0.00  0.00    +0.000 HD
ENDROOT
BRANCH   7  11
ATOM     11  C   UNL     1       3.260   4.646  18.210  0.00  0.00    +0.000 C 
ATOM     12  C   UNL     1       3.600   3.655  19.340  0.00  0.00    +0.000 C 
ATOM     13  C   UNL     1       3.260   2.281  18.798  0.00  0.00    +0.000 C 
ATOM     14  C   UNL     1       1.983   2.499  18.016  0.00  0.00    +0.000 C 
ATOM     15  C   UNL     1       1.954   3.987  17.655  0.00  0.00    +0.000 C 
BRANCH  11  16
ATOM     16  C   UNL     1       4.338   4.780  17.081  0.00  0.00    +0.000 C 
BRANCH  16  17
ATOM     17  C   UNL     1       5.852   4.421  17.326  0.00  0.00    +0.000 C 
BRANCH  17  18
ATOM     18  C   UNL     1       6.447   5.480  18.275  0.00  0.00    +0.000 C 
ATOM     19  O   UNL     1       6.862   5.252  19.399  0.00  0.00    +0.000 OA
BRANCH  18  20
ATOM     20  O   UNL     1       6.462   6.742  17.770  0.00  0.00    +0.000 OA
ATOM     21  H   UNL     1       5.598   7.188  17.729  0.00  0.00    +0.000 HD
ENDBRANCH  18  20
ENDBRANCH  17  18
BRANCH  17  22
ATOM     22  C   UNL     1       6.762   4.344  16.073  0.00  0.00    +0.000 C 
BRANCH  22  23
ATOM     23  C   UNL     1       6.039   4.811  14.805  0.00  0.00    +0.000 C 
ATOM     24  C   UNL     1       6.153   3.865  13.624  0.00  0.00    +0.000 C 
ENDBRANCH  22  23
ENDBRANCH  17  22
ENDBRANCH  16  17
ENDBRANCH  11  16
ENDBRANCH   7  11
BRANCH   1  25
ATOM     25  C   UNL     1       0.147  10.168  20.935  0.00  0.00    +0.000 C 
BRANCH  25  26
ATOM     26  C   UNL     1       0.208   9.073  22.009  0.00  0.00    +0.000 C 
BRANCH  26  28
ATOM     27  C   UNL     1      -1.206  10.810  23.166  0.00  0.00    +0.000 C 
ATOM     28  C   UNL     1      -0.368   9.551  23.344  0.00  0.00    +0.000 C 
ENDBRANCH  26  28
ENDBRANCH  25  26
ENDBRANCH   1  25
TORSDOF 10
ENDMDL
MODEL 8
REMARK VINA RESULT:      -7.1      1.203      1.516
REMARK  Name = 
REMARK  12 active torsions:
REMARK  status: ('A' for Active; 'I' for Inactive)
REMARK    1  A    between atoms: C_1  and  C_2
REMARK    2  A    between atoms: C_2  and  C_3
REMARK    3  A    between atoms: C_3  and  C_4
REMARK    4  A    between atoms: C_4  and  C_5
REMARK    5  A    between atoms: C_11  and  C_13
REMARK    6  A    between atoms: C_13  and  C_14
REMARK    7  A    between atoms: C_14  and  C_15
REMARK    8  A    between atoms: C_15  and  C_16
REMARK    9  A    between atoms: C_15  and  C_19
REMARK   10  A    between atoms: C_16  and  C_17
REMARK   11  A    between atoms: C_17  and  C_18
REMARK   12  A    between atoms: C_19  and  O_21
REMARK                            x       y       z     vdW  Elec       q    Type
REMARK                         _______ _______ _______ _____ _____    ______ ____
ROOT
ATOM      1  C   UNL     1       0.482  10.065  19.658  0.00  0.00    +0.000 A 
ATOM      2  C   UNL     1       0.897  11.322  19.220  0.00  0.00    +0.000 A 
ATOM      3  C   UNL     1       1.875  11.393  18.238  0.00  0.00    +0.000 A 
ATOM      4  N   UNL     1       2.468  10.319  17.682  0.00  0.00    +0.000 NA
ATOM      5  C   UNL     1       2.144   9.118  18.190  0.00  0.00    +0.000 A 
ATOM      6  N   UNL     1       2.860   8.042  17.659  0.00  0.00    +0.000 N 
ATOM      7  C   UNL     1       3.343   6.999  18.419  0.00  0.00    +0.000 C 
ATOM      8  O   UNL     1       3.253   6.943  19.649  0.00  0.00    +0.000 OA
ATOM      9  C   UNL     1       1.149   8.941  19.154  0.00  0.00    +0.000 A 
ATOM     10  H   UNL     1       3.309   8.260  16.780  0.00  0.00    +0.000 HD
ENDROOT
BRANCH   7  11
ATOM     11  C   UNL     1       4.102   5.913  17.637  0.00  0.00    +0.000 C 
ATOM     12  C   UNL     1       4.767   6.528  16.391  0.00  0.00    +0.000 C 
ATOM     13  C   UNL     1       5.972   5.656  16.096  0.00  0.00    +0.000 C 
ATOM     14  C   UNL     1       6.531   5.325  17.463  0.00  0.00    +0.000 C 
ATOM     15  C   UNL     1       5.374   5.502  18.450  0.00  0.00    +0.000 C 
BRANCH  11  16
ATOM     16  C   UNL     1       3.187   4.668  17.371  0.00  0.00    +0.000 C 
BRANCH  16  17
ATOM     17  C   UNL     1       2.846   3.627  18.503  0.00  0.00    +0.000 C 
BRANCH  17  18
ATOM     18  C   UNL     1       3.547   2.298  18.159  0.00  0.00    +0.000 C 
ATOM     19  O   UNL     1       3.299   1.225  18.681  0.00  0.00    +0.000 OA
BRANCH  18  20
ATOM     20  O   UNL     1       4.519   2.404  17.214  0.00  0.00    +0.000 OA
ATOM     21  H   UNL     1       4.216   2.681  16.331  0.00  0.00    +0.000 HD
ENDBRANCH  18  20
ENDBRANCH  17  18
BRANCH  17  22
ATOM     22  C   UNL     1       1.343   3.321  18.738  0.00  0.00    +0.000 C 
BRANCH  22  23
ATOM     23  C   UNL     1       0.928   3.552  20.195  0.00  0.00    +0.000 C 
ATOM     24  C   UNL     1       2.028   4.088  21.092  0.00  0.00    +0.000 C 
ENDBRANCH  22  23
ENDBRANCH  17  22
ENDBRANCH  16  17
ENDBRANCH  11  16
ENDBRANCH   7  11
BRANCH   1  25
ATOM     25  C   UNL     1      -0.636   9.911  20.665  0.00  0.00    +0.000 C 
BRANCH  25  26
ATOM     26  C   UNL     1      -0.248   9.017  21.851  0.00  0.00    +0.000 C 
BRANCH  26  28
ATOM     27  C   UNL     1      -1.162  11.053  23.021  0.00  0.00    +0.000 C 
ATOM     28  C   UNL     1      -0.403   9.745  23.188  0.00  0.00    +0.000 C 
ENDBRANCH  26  28
ENDBRANCH  25  26
ENDBRANCH   1  25
TORSDOF 10
ENDMDL
MODEL 9
REMARK VINA RESULT:      -7.1      1.720      4.056
REMARK  Name = 
REMARK  12 active torsions:
REMARK  status: ('A' for Active; 'I' for Inactive)
REMARK    1  A    between atoms: C_1  and  C_2
REMARK    2  A    between atoms: C_2  and  C_3
REMARK    3  A    between atoms: C_3  and  C_4
REMARK    4  A    between atoms: C_4  and  C_5
REMARK    5  A    between atoms: C_11  and  C_13
REMARK    6  A    between atoms: C_13  and  C_14
REMARK    7  A    between atoms: C_14  and  C_15
REMARK    8  A    between atoms: C_15  and  C_16
REMARK    9  A    between atoms: C_15  and  C_19
REMARK   10  A    between atoms: C_16  and  C_17
REMARK   11  A    between atoms: C_17  and  C_18
REMARK   12  A    between atoms: C_19  and  O_21
REMARK                            x       y       z     vdW  Elec       q    Type
REMARK                         _______ _______ _______ _____ _____    ______ ____
ROOT
ATOM      1  C   UNL     1       1.336   8.957  20.842  0.00  0.00    +0.000 A 
ATOM      2  C   UNL     1       1.265  10.044  19.970  0.00  0.00    +0.000 A 
ATOM      3  C   UNL     1       1.450   9.819  18.613  0.00  0.00    +0.000 A 
ATOM      4  N   UNL     1       1.710   8.612  18.075  0.00  0.00    +0.000 NA
ATOM      5  C   UNL     1       1.890   7.593  18.932  0.00  0.00    +0.000 A 
ATOM      6  N   UNL     1       2.262   6.384  18.339  0.00  0.00    +0.000 N 
ATOM      7  C   UNL     1       3.216   5.539  18.865  0.00  0.00    +0.000 C 
ATOM      8  O   UNL     1       3.884   5.796  19.872  0.00  0.00    +0.000 OA
ATOM      9  C   UNL     1       1.692   7.711  20.309  0.00  0.00    +0.000 A 
ATOM     10  H   UNL     1       2.072   6.353  17.347  0.00  0.00    +0.000 HD
ENDROOT
BRANCH   7  11
ATOM     11  C   UNL     1       3.475   4.256  18.057  0.00  0.00    +0.000 C 
ATOM     12  C   UNL     1       4.084   3.173  18.967  0.00  0.00    +0.000 C 
ATOM     13  C   UNL     1       3.679   1.846  18.356  0.00  0.00    +0.000 C 
ATOM     14  C   UNL     1       2.256   2.074  17.892  0.00  0.00    +0.000 C 
ATOM     15  C   UNL     1       2.103   3.587  17.719  0.00  0.00    +0.000 C 
BRANCH  11  16
ATOM     16  C   UNL     1       4.278   4.569  16.748  0.00  0.00    +0.000 C 
BRANCH  16  17
ATOM     17  C   UNL     1       5.773   5.068  16.785  0.00  0.00    +0.000 C 
BRANCH  17  18
ATOM     18  C   UNL     1       5.794   6.547  16.350  0.00  0.00    +0.000 C 
ATOM     19  O   UNL     1       5.082   7.028  15.486  0.00  0.00    +0.000 OA
BRANCH  18  20
ATOM     20  O   UNL     1       6.711   7.311  17.001  0.00  0.00    +0.000 OA
ATOM     21  H   UNL     1       7.274   7.866  16.434  0.00  0.00    +0.000 HD
ENDBRANCH  18  20
ENDBRANCH  17  18
BRANCH  17  22
ATOM     22  C   UNL     1       6.786   4.300  15.898  0.00  0.00    +0.000 C 
BRANCH  22  23
ATOM     23  C   UNL     1       6.132   3.732  14.633  0.00  0.00    +0.000 C 
ATOM     24  C   UNL     1       6.697   4.268  13.331  0.00  0.00    +0.000 C 
ENDBRANCH  22  23
ENDBRANCH  17  22
ENDBRANCH  16  17
ENDBRANCH  11  16
ENDBRANCH   7  11
BRANCH   1  25
ATOM     25  C   UNL     1       1.063   9.114  22.321  0.00  0.00    +0.000 C 
BRANCH  25  26
ATOM     26  C   UNL     1      -0.390   9.506  22.619  0.00  0.00    +0.000 C 
BRANCH  26  28
ATOM     27  C   UNL     1      -1.976  11.391  23.151  0.00  0.00    +0.000 C 
ATOM     28  C   UNL     1      -0.565  11.023  22.714  0.00  0.00    +0.000 C 
ENDBRANCH  26  28
ENDBRANCH  25  26
ENDBRANCH   1  25
TORSDOF 10
ENDMDL
