MODEL 1
REMARK VINA RESULT:      -7.8      0.000      0.000
REMARK  Name = 
REMARK  5 active torsions:
REMARK  status: ('A' for Active; 'I' for Inactive)
REMARK    1  A    between atoms: C_1  and  C_2
REMARK    2  A    between atoms: C_6  and  N_7
REMARK    3  A    between atoms: N_10  and  C_11
REMARK    4  A    between atoms: C_14  and  C_15
REMARK    5  A    between atoms: C_24  and  N_25
REMARK                            x       y       z     vdW  Elec       q    Type
REMARK                         _______ _______ _______ _____ _____    ______ ____
ROOT
ATOM      1  C   UNL     1       0.409  10.379  21.755  0.00  0.00    +0.000 A 
ATOM      2  C   UNL     1       0.145  11.509  20.970  0.00  0.00    +0.000 A 
ATOM      3  C   UNL     1      -0.891  12.390  21.311  0.00  0.00    +0.000 A 
ATOM      4  C   UNL     1      -1.661  12.167  22.458  0.00  0.00    +0.000 A 
ATOM      5  C   UNL     1      -1.372  11.054  23.261  0.00  0.00    +0.000 A 
ATOM      6  C   UNL     1      -0.357  10.153  22.899  0.00  0.00    +0.000 A 
ENDROOT
BRANCH   4   7
ATOM      7  C   UNL     1      -2.806  13.034  22.780  0.00  0.00    +0.000 A 
ATOM      8  C   UNL     1      -4.162  12.766  22.200  0.00  0.00    +0.000 A 
ATOM      9  N   UNL     1      -5.244  13.475  22.393  0.00  0.00    +0.000 NA
ATOM     10  C   UNL     1      -5.107  14.562  23.204  0.00  0.00    +0.000 A 
ATOM     11  C   UNL     1      -5.992  15.521  23.636  0.00  0.00    +0.000 A 
ATOM     12 BR   UNL     1      -7.815  15.675  23.261  0.00  0.00    +0.000 Br
ATOM     13  C   UNL     1      -5.260  16.403  24.436  0.00  0.00    +0.000 A 
ATOM     14  N   UNL     1      -3.974  16.055  24.533  0.00  0.00    +0.000 NA
ATOM     15  N   UNL     1      -3.884  14.898  23.798  0.00  0.00    +0.000 N 
ATOM     16  C   UNL     1      -2.716  14.109  23.591  0.00  0.00    +0.000 A 
BRANCH  16  17
ATOM     17  N   UNL     1      -1.553  14.530  24.239  0.00  0.00    +0.000 N 
ATOM     18  H   UNL     1      -0.852  13.786  24.287  0.00  0.00    +0.000 HD
ATOM     19  H   UNL     1      -1.709  15.014  25.118  0.00  0.00    +0.000 HD
ENDBRANCH  16  17
ENDBRANCH   4   7
BRANCH   1  23
ATOM     20  N   UNL     1       2.189   7.400  20.666  0.00  0.00    +0.000 N 
ATOM     21  C   UNL     1       1.086   8.175  20.973  0.00  0.00    +0.000 C 
ATOM     22  O   UNL     1      -0.085   7.810  20.873  0.00  0.00    +0.000 OA
ATOM     23  N   UNL     1       1.425   9.457  21.407  0.00  0.00    +0.000 N 
ATOM     24  H   UNL     1       3.076   7.686  21.055  0.00  0.00    +0.000 HD
ATOM     25  H   UNL     1       2.251   9.832  20.966  0.00  0.00    +0.000 HD
BRANCH  20  31
ATOM     26  C   UNL     1       1.538   2.535  21.402  0.00  0.00    +0.000 C 
ATOM     27  C   UNL     1       1.805   3.685  20.473  0.00  0.00    +0.000 A 
ATOM     28  C   UNL     1       1.945   3.466  19.099  0.00  0.00    +0.000 A 
ATOM     29  C   UNL     1       2.182   4.539  18.247  0.00  0.00    +0.000 A 
ATOM     30  C   UNL     1       2.272   5.833  18.758  0.00  0.00    +0.000 A 
ATOM     31  C   UNL     1       2.119   6.084  20.127  0.00  0.00    +0.000 A 
ATOM     32  C   UNL     1       1.906   4.997  20.980  0.00  0.00    +0.000 A 
ENDBRANCH  20  31
ENDBRANCH   1  23
TORSDOF 4
ENDMDL
MODEL 2
REMARK VINA RESULT:      -7.8      1.011      1.899
REMARK  Name = 
REMARK  5 active torsions:
REMARK  status: ('A' for Active; 'I' for Inactive)
REMARK    1  A    between atoms: C_1  and  C_2
REMARK    2  A    between atoms: C_6  and  N_7
REMARK    3  A    between atoms: N_10  and  C_11
REMARK    4  A    between atoms: C_14  and  C_15
REMARK    5  A    between atoms: C_24  and  N_25
REMARK                            x       y       z     vdW  Elec       q    Type
REMARK                         _______ _______ _______ _____ _____    ______ ____
ROOT
ATOM      1  C   UNL     1       0.365  10.484  21.855  0.00  0.00    +0.000 A 
ATOM      2  C   UNL     1      -0.440  10.272  22.982  0.00  0.00    +0.000 A 
ATOM      3  C   UNL     1      -1.398  11.221  23.365  0.00  0.00    +0.000 A 
ATOM      4  C   UNL     1      -1.583  12.385  22.611  0.00  0.00    +0.000 A 
ATOM      5  C   UNL     1      -0.799  12.578  21.463  0.00  0.00    +0.000 A 
ATOM      6  C   UNL     1       0.184  11.644  21.101  0.00  0.00    +0.000 A 
ENDROOT
BRANCH   4   7
ATOM      7  C   UNL     1      -2.522  13.429  23.050  0.00  0.00    +0.000 A 
ATOM      8  C   UNL     1      -2.043  14.622  23.820  0.00  0.00    +0.000 A 
ATOM      9  N   UNL     1      -2.782  15.597  24.281  0.00  0.00    +0.000 NA
ATOM     10  C   UNL     1      -4.118  15.505  24.027  0.00  0.00    +0.000 A 
ATOM     11  C   UNL     1      -5.185  16.314  24.337  0.00  0.00    +0.000 A 
ATOM     12 BR   UNL     1      -5.184  17.940  25.255  0.00  0.00    +0.000 Br
ATOM     13  C   UNL     1      -6.322  15.680  23.829  0.00  0.00    +0.000 A 
ATOM     14  N   UNL     1      -6.033  14.527  23.220  0.00  0.00    +0.000 NA
ATOM     15  N   UNL     1      -4.667  14.433  23.313  0.00  0.00    +0.000 N 
ATOM     16  C   UNL     1      -3.849  13.384  22.803  0.00  0.00    +0.000 A 
BRANCH  16  17
ATOM     17  N   UNL     1      -4.499  12.369  22.097  0.00  0.00    +0.000 N 
ATOM     18  H   UNL     1      -3.914  11.990  21.348  0.00  0.00    +0.000 HD
ATOM     19  H   UNL     1      -5.448  12.591  21.813  0.00  0.00    +0.000 HD
ENDBRANCH  16  17
ENDBRANCH   4   7
BRANCH   1  23
ATOM     20  N   UNL     1       2.090   7.505  20.681  0.00  0.00    +0.000 N 
ATOM     21  C   UNL     1       1.002   8.288  21.020  0.00  0.00    +0.000 C 
ATOM     22  O   UNL     1      -0.175   7.940  20.931  0.00  0.00    +0.000 OA
ATOM     23  N   UNL     1       1.364   9.557  21.474  0.00  0.00    +0.000 N 
ATOM     24  H   UNL     1       2.986   7.773  21.061  0.00  0.00    +0.000 HD
ATOM     25  H   UNL     1       2.187   9.930  21.027  0.00  0.00    +0.000 HD
BRANCH  20  31
ATOM     26  C   UNL     1       1.378   2.637  21.331  0.00  0.00    +0.000 C 
ATOM     27  C   UNL     1       1.650   3.800  20.421  0.00  0.00    +0.000 A 
ATOM     28  C   UNL     1       1.771   3.606  19.042  0.00  0.00    +0.000 A 
ATOM     29  C   UNL     1       2.013   4.692  18.207  0.00  0.00    +0.000 A 
ATOM     30  C   UNL     1       2.128   5.975  18.742  0.00  0.00    +0.000 A 
ATOM     31  C   UNL     1       1.994   6.201  20.117  0.00  0.00    +0.000 A 
ATOM     32  C   UNL     1       1.776   5.101  20.952  0.00  0.00    +0.000 A 
ENDBRANCH  20  31
ENDBRANCH   1  23
TORSDOF 4
ENDMDL
MODEL 3
REMARK VINA RESULT:      -7.6      1.236      2.385
REMARK  Name = 
REMARK  5 active torsions:
REMARK  status: ('A' for Active; 'I' for Inactive)
REMARK    1  A    between atoms: C_1  and  C_2
REMARK    2  A    between atoms: C_6  and  N_7
REMARK    3  A    between atoms: N_10  and  C_11
REMARK    4  A    between atoms: C_14  and  C_15
REMARK    5  A    between atoms: C_24  and  N_25
REMARK                            x       y       z     vdW  Elec       q    Type
REMARK                         _______ _______ _______ _____ _____    ______ ____
ROOT
ATOM      1  C   UNL     1       0.646   9.792  21.958  0.00  0.00    +0.000 A 
ATOM      2  C   UNL     1      -0.239   9.664  23.036  0.00  0.00    +0.000 A 
ATOM      3  C   UNL     1      -1.119  10.705  23.367  0.00  0.00    +0.000 A 
ATOM      4  C   UNL     1      -1.143  11.879  22.606  0.00  0.00    +0.000 A 
ATOM      5  C   UNL     1      -0.280  11.990  21.505  0.00  0.00    +0.000 A 
ATOM      6  C   UNL     1       0.624  10.961  21.197  0.00  0.00    +0.000 A 
ENDROOT
BRANCH   4   7
ATOM      7  C   UNL     1      -1.998  13.013  22.993  0.00  0.00    +0.000 A 
ATOM      8  C   UNL     1      -1.478  14.100  23.884  0.00  0.00    +0.000 A 
ATOM      9  N   UNL     1      -2.145  15.140  24.313  0.00  0.00    +0.000 NA
ATOM     10  C   UNL     1      -3.441  15.228  23.900  0.00  0.00    +0.000 A 
ATOM     11  C   UNL     1      -4.434  16.150  24.130  0.00  0.00    +0.000 A 
ATOM     12 BR   UNL     1      -4.350  17.721  25.136  0.00  0.00    +0.000 Br
ATOM     13  C   UNL     1      -5.568  15.688  23.457  0.00  0.00    +0.000 A 
ATOM     14  N   UNL     1      -5.346  14.536  22.818  0.00  0.00    +0.000 NA
ATOM     15  N   UNL     1      -4.022  14.266  23.064  0.00  0.00    +0.000 N 
ATOM     16  C   UNL     1      -3.280  13.146  22.592  0.00  0.00    +0.000 A 
BRANCH  16  17
ATOM     17  N   UNL     1      -3.955  12.254  21.756  0.00  0.00    +0.000 N 
ATOM     18  H   UNL     1      -3.410  12.028  20.919  0.00  0.00    +0.000 HD
ATOM     19  H   UNL     1      -4.924  12.497  21.571  0.00  0.00    +0.000 HD
ENDBRANCH  16  17
ENDBRANCH   4   7
BRANCH   1  23
ATOM     20  N   UNL     1       2.135   6.679  20.809  0.00  0.00    +0.000 N 
ATOM     21  C   UNL     1       1.113   7.571  21.076  0.00  0.00    +0.000 C 
ATOM     22  O   UNL     1      -0.079   7.370  20.850  0.00  0.00    +0.000 OA
ATOM     23  N   UNL     1       1.567   8.768  21.631  0.00  0.00    +0.000 N 
ATOM     24  H   UNL     1       3.010   6.822  21.292  0.00  0.00    +0.000 HD
ATOM     25  H   UNL     1       2.471   9.059  21.291  0.00  0.00    +0.000 HD
BRANCH  20  31
ATOM     26  C   UNL     1       3.059   3.699  16.949  0.00  0.00    +0.000 C 
ATOM     27  C   UNL     1       2.395   3.941  18.274  0.00  0.00    +0.000 A 
ATOM     28  C   UNL     1       1.641   2.933  18.883  0.00  0.00    +0.000 A 
ATOM     29  C   UNL     1       1.038   3.164  20.114  0.00  0.00    +0.000 A 
ATOM     30  C   UNL     1       1.190   4.397  20.748  0.00  0.00    +0.000 A 
ATOM     31  C   UNL     1       1.953   5.419  20.170  0.00  0.00    +0.000 A 
ATOM     32  C   UNL     1       2.535   5.187  18.920  0.00  0.00    +0.000 A 
ENDBRANCH  20  31
ENDBRANCH   1  23
TORSDOF 4
ENDMDL
MODEL 4
REMARK VINA RESULT:      -7.5      0.714      1.418
REMARK  Name = 
REMARK  5 active torsions:
REMARK  status: ('A' for Active; 'I' for Inactive)
REMARK    1  A    between atoms: C_1  and  C_2
REMARK    2  A    between atoms: C_6  and  N_7
REMARK    3  A    between atoms: N_10  and  C_11
REMARK    4  A    between atoms: C_14  and  C_15
REMARK    5  A    between atoms: C_24  and  N_25
REMARK                            x       y       z     vdW  Elec       q    Type
REMARK                         _______ _______ _______ _____ _____    ______ ____
ROOT
ATOM      1  C   UNL     1       0.578   9.781  21.769  0.00  0.00    +0.000 A 
ATOM      2  C   UNL     1       0.283  10.787  20.840  0.00  0.00    +0.000 A 
ATOM      3  C   UNL     1      -0.690  11.757  21.122  0.00  0.00    +0.000 A 
ATOM      4  C   UNL     1      -1.363  11.749  22.349  0.00  0.00    +0.000 A 
ATOM      5  C   UNL     1      -1.040  10.760  23.291  0.00  0.00    +0.000 A 
ATOM      6  C   UNL     1      -0.091   9.769  22.993  0.00  0.00    +0.000 A 
ENDROOT
BRANCH   4   7
ATOM      7  C   UNL     1      -2.446  12.706  22.623  0.00  0.00    +0.000 A 
ATOM      8  C   UNL     1      -3.835  12.464  22.116  0.00  0.00    +0.000 A 
ATOM      9  N   UNL     1      -4.869  13.248  22.275  0.00  0.00    +0.000 NA
ATOM     10  C   UNL     1      -4.644  14.396  22.973  0.00  0.00    +0.000 A 
ATOM     11  C   UNL     1      -5.459  15.441  23.340  0.00  0.00    +0.000 A 
ATOM     12 BR   UNL     1      -7.283  15.664  23.011  0.00  0.00    +0.000 Br
ATOM     13  C   UNL     1      -4.651  16.350  24.029  0.00  0.00    +0.000 A 
ATOM     14  N   UNL     1      -3.383  15.939  24.117  0.00  0.00    +0.000 NA
ATOM     15  N   UNL     1      -3.383  14.716  23.494  0.00  0.00    +0.000 N 
ATOM     16  C   UNL     1      -2.268  13.845  23.326  0.00  0.00    +0.000 A 
BRANCH  16  17
ATOM     17  N   UNL     1      -1.061  14.257  23.893  0.00  0.00    +0.000 N 
ATOM     18  H   UNL     1      -0.611  14.993  23.341  0.00  0.00    +0.000 HD
ATOM     19  H   UNL     1      -0.440  13.501  24.166  0.00  0.00    +0.000 HD
ENDBRANCH  16  17
ENDBRANCH   4   7
BRANCH   1  23
ATOM     20  N   UNL     1       2.155   6.648  20.804  0.00  0.00    +0.000 N 
ATOM     21  C   UNL     1       1.107   7.519  21.038  0.00  0.00    +0.000 C 
ATOM     22  O   UNL     1      -0.083   7.257  20.868  0.00  0.00    +0.000 OA
ATOM     23  N   UNL     1       1.529   8.771  21.488  0.00  0.00    +0.000 N 
ATOM     24  H   UNL     1       3.038   6.860  21.246  0.00  0.00    +0.000 HD
ATOM     25  H   UNL     1       2.410   9.068  21.098  0.00  0.00    +0.000 HD
BRANCH  20  31
ATOM     26  C   UNL     1       2.614   3.560  16.946  0.00  0.00    +0.000 C 
ATOM     27  C   UNL     1       2.220   3.806  18.374  0.00  0.00    +0.000 A 
ATOM     28  C   UNL     1       1.746   2.757  19.168  0.00  0.00    +0.000 A 
ATOM     29  C   UNL     1       1.393   2.993  20.492  0.00  0.00    +0.000 A 
ATOM     30  C   UNL     1       1.517   4.273  21.032  0.00  0.00    +0.000 A 
ATOM     31  C   UNL     1       2.004   5.338  20.266  0.00  0.00    +0.000 A 
ATOM     32  C   UNL     1       2.333   5.098  18.928  0.00  0.00    +0.000 A 
ENDBRANCH  20  31
ENDBRANCH   1  23
TORSDOF 4
ENDMDL
MODEL 5
REMARK VINA RESULT:      -7.5      4.475      6.842
REMARK  Name = 
REMARK  5 active torsions:
REMARK  status: ('A' for Active; 'I' for Inactive)
REMARK    1  A    between atoms: C_1  and  C_2
REMARK    2  A    between atoms: C_6  and  N_7
REMARK    3  A    between atoms: N_10  and  C_11
REMARK    4  A    between atoms: C_14  and  C_15
REMARK    5  A    between atoms: C_24  and  N_25
REMARK                            x       y       z     vdW  Elec       q    Type
REMARK                         _______ _______ _______ _____ _____    ______ ____
ROOT
ATOM      1  C   UNL     1       3.596   6.439  18.244  0.00  0.00    +0.000 A 
ATOM      2  C   UNL     1       3.389   7.677  17.621  0.00  0.00    +0.000 A 
ATOM      3  C   UNL     1       2.533   8.630  18.193  0.00  0.00    +0.000 A 
ATOM      4  C   UNL     1       1.895   8.368  19.410  0.00  0.00    +0.000 A 
ATOM      5  C   UNL     1       2.132   7.141  20.048  0.00  0.00    +0.000 A 
ATOM      6  C   UNL     1       2.961   6.174  19.457  0.00  0.00    +0.000 A 
ENDROOT
BRANCH   4   7
ATOM      7  C   UNL     1       0.928   9.322  19.977  0.00  0.00    +0.000 A 
ATOM      8  C   UNL     1      -0.010  10.085  19.092  0.00  0.00    +0.000 A 
ATOM      9  N   UNL     1      -0.892  10.971  19.474  0.00  0.00    +0.000 NA
ATOM     10  C   UNL     1      -0.951  11.214  20.815  0.00  0.00    +0.000 A 
ATOM     11  C   UNL     1      -1.729  12.050  21.579  0.00  0.00    +0.000 A 
ATOM     12 BR   UNL     1      -3.083  13.209  21.023  0.00  0.00    +0.000 Br
ATOM     13  C   UNL     1      -1.311  11.880  22.902  0.00  0.00    +0.000 A 
ATOM     14  N   UNL     1      -0.322  10.988  23.013  0.00  0.00    +0.000 NA
ATOM     15  N   UNL     1      -0.120  10.551  21.727  0.00  0.00    +0.000 N 
ATOM     16  C   UNL     1       0.827   9.577  21.298  0.00  0.00    +0.000 A 
BRANCH  16  17
ATOM     17  N   UNL     1       1.596   8.971  22.293  0.00  0.00    +0.000 N 
ATOM     18  H   UNL     1       2.515   8.686  21.944  0.00  0.00    +0.000 HD
ATOM     19  H   UNL     1       1.113   8.256  22.828  0.00  0.00    +0.000 HD
ENDBRANCH  16  17
ENDBRANCH   4   7
BRANCH   1  23
ATOM     20  N   UNL     1       5.624   4.516  15.915  0.00  0.00    +0.000 N 
ATOM     21  C   UNL     1       4.811   5.556  16.327  0.00  0.00    +0.000 C 
ATOM     22  O   UNL     1       4.456   6.499  15.621  0.00  0.00    +0.000 OA
ATOM     23  N   UNL     1       4.426   5.449  17.664  0.00  0.00    +0.000 N 
ATOM     24  H   UNL     1       5.608   3.672  16.469  0.00  0.00    +0.000 HD
ATOM     25  H   UNL     1       5.127   5.035  18.259  0.00  0.00    +0.000 HD
BRANCH  20  31
ATOM     26  C   UNL     1       5.697   2.449  11.404  0.00  0.00    +0.000 C 
ATOM     27  C   UNL     1       6.271   3.415  12.400  0.00  0.00    +0.000 A 
ATOM     28  C   UNL     1       7.347   4.236  12.050  0.00  0.00    +0.000 A 
ATOM     29  C   UNL     1       7.865   5.134  12.977  0.00  0.00    +0.000 A 
ATOM     30  C   UNL     1       7.308   5.224  14.252  0.00  0.00    +0.000 A 
ATOM     31  C   UNL     1       6.219   4.427  14.625  0.00  0.00    +0.000 A 
ATOM     32  C   UNL     1       5.721   3.508  13.695  0.00  0.00    +0.000 A 
ENDBRANCH  20  31
ENDBRANCH   1  23
TORSDOF 4
ENDMDL
MODEL 6
REMARK VINA RESULT:      -7.4     10.217     10.946
REMARK  Name = 
REMARK  5 active torsions:
REMARK  status: ('A' for Active; 'I' for Inactive)
REMARK    1  A    between atoms: C_1  and  C_2
REMARK    2  A    between atoms: C_6  and  N_7
REMARK    3  A    between atoms: N_10  and  C_11
REMARK    4  A    between atoms: C_14  and  C_15
REMARK    5  A    between atoms: C_24  and  N_25
REMARK                            x       y       z     vdW  Elec       q    Type
REMARK                         _______ _______ _______ _____ _____    ______ ____
ROOT
ATOM      1  C   UNL     1       7.420   6.629  18.071  0.00  0.00    +0.000 A 
ATOM      2  C   UNL     1       7.067   7.687  17.223  0.00  0.00    +0.000 A 
ATOM      3  C   UNL     1       7.611   8.966  17.413  0.00  0.00    +0.000 A 
ATOM      4  C   UNL     1       8.536   9.197  18.437  0.00  0.00    +0.000 A 
ATOM      5  C   UNL     1       8.913   8.127  19.262  0.00  0.00    +0.000 A 
ATOM      6  C   UNL     1       8.342   6.855  19.093  0.00  0.00    +0.000 A 
ENDROOT
BRANCH   4   7
ATOM      7  C   UNL     1       9.047  10.551  18.702  0.00  0.00    +0.000 A 
ATOM      8  C   UNL     1       9.336  11.499  17.578  0.00  0.00    +0.000 A 
ATOM      9  N   UNL     1       9.812  12.712  17.686  0.00  0.00    +0.000 NA
ATOM     10  C   UNL     1      10.065  13.142  18.955  0.00  0.00    +0.000 A 
ATOM     11  C   UNL     1      10.552  14.323  19.461  0.00  0.00    +0.000 A 
ATOM     12 BR   UNL     1      11.051  15.866  18.535  0.00  0.00    +0.000 Br
ATOM     13  C   UNL     1      10.616  14.164  20.848  0.00  0.00    +0.000 A 
ATOM     14  N   UNL     1      10.198  12.957  21.241  0.00  0.00    +0.000 NA
ATOM     15  N   UNL     1       9.826  12.335  20.075  0.00  0.00    +0.000 N 
ATOM     16  C   UNL     1       9.294  11.021  19.943  0.00  0.00    +0.000 A 
BRANCH  16  17
ATOM     17  N   UNL     1       9.086  10.308  21.126  0.00  0.00    +0.000 N 
ATOM     18  H   UNL     1       9.683  10.647  21.886  0.00  0.00    +0.000 HD
ATOM     19  H   UNL     1       9.082   9.298  21.018  0.00  0.00    +0.000 HD
ENDBRANCH  16  17
ENDBRANCH   4   7
BRANCH   1  23
ATOM     20  N   UNL     1       5.179   3.767  18.213  0.00  0.00    +0.000 N 
ATOM     21  C   UNL     1       5.592   5.065  18.450  0.00  0.00    +0.000 C 
ATOM     22  O   UNL     1       4.938   5.918  19.048  0.00  0.00    +0.000 OA
ATOM     23  N   UNL     1       6.854   5.340  17.920  0.00  0.00    +0.000 N 
ATOM     24  H   UNL     1       5.893   3.091  17.982  0.00  0.00    +0.000 HD
ATOM     25  H   UNL     1       7.051   4.852  17.060  0.00  0.00    +0.000 HD
BRANCH  20  31
ATOM     26  C   UNL     1       1.918   2.616  21.772  0.00  0.00    +0.000 C 
ATOM     27  C   UNL     1       2.286   2.678  20.317  0.00  0.00    +0.000 A 
ATOM     28  C   UNL     1       1.374   2.271  19.339  0.00  0.00    +0.000 A 
ATOM     29  C   UNL     1       1.722   2.341  17.994  0.00  0.00    +0.000 A 
ATOM     30  C   UNL     1       2.974   2.823  17.619  0.00  0.00    +0.000 A 
ATOM     31  C   UNL     1       3.902   3.254  18.576  0.00  0.00    +0.000 A 
ATOM     32  C   UNL     1       3.554   3.156  19.927  0.00  0.00    +0.000 A 
ENDBRANCH  20  31
ENDBRANCH   1  23
TORSDOF 4
ENDMDL
MODEL 7
REMARK VINA RESULT:      -7.4      1.115      1.890
REMARK  Name = 
REMARK  5 active torsions:
REMARK  status: ('A' for Active; 'I' for Inactive)
REMARK    1  A    between atoms: C_1  and  C_2
REMARK    2  A    between atoms: C_6  and  N_7
REMARK    3  A    between atoms: N_10  and  C_11
REMARK    4  A    between atoms: C_14  and  C_15
REMARK    5  A    between atoms: C_24  and  N_25
REMARK                            x       y       z     vdW  Elec       q    Type
REMARK                         _______ _______ _______ _____ _____    ______ ____
ROOT
ATOM      1  C   UNL     1       0.599   9.603  21.716  0.00  0.00    +0.000 A 
ATOM      2  C   UNL     1      -0.045   9.680  22.958  0.00  0.00    +0.000 A 
ATOM      3  C   UNL     1      -0.968  10.702  23.222  0.00  0.00    +0.000 A 
ATOM      4  C   UNL     1      -1.280  11.645  22.238  0.00  0.00    +0.000 A 
ATOM      5  C   UNL     1      -0.660  11.545  20.984  0.00  0.00    +0.000 A 
ATOM      6  C   UNL     1       0.290  10.543  20.732  0.00  0.00    +0.000 A 
ENDROOT
BRANCH   4   7
ATOM      7  C   UNL     1      -2.180  12.773  22.530  0.00  0.00    +0.000 A 
ATOM      8  C   UNL     1      -3.667  12.591  22.532  0.00  0.00    +0.000 A 
ATOM      9  N   UNL     1      -4.564  13.516  22.754  0.00  0.00    +0.000 NA
ATOM     10  C   UNL     1      -4.081  14.766  23.006  0.00  0.00    +0.000 A 
ATOM     11  C   UNL     1      -4.692  15.965  23.281  0.00  0.00    +0.000 A 
ATOM     12 BR   UNL     1      -6.517  16.331  23.440  0.00  0.00    +0.000 Br
ATOM     13  C   UNL     1      -3.670  16.908  23.424  0.00  0.00    +0.000 A 
ATOM     14  N   UNL     1      -2.457  16.372  23.257  0.00  0.00    +0.000 NA
ATOM     15  N   UNL     1      -2.707  15.041  23.030  0.00  0.00    +0.000 N 
ATOM     16  C   UNL     1      -1.741  14.020  22.802  0.00  0.00    +0.000 A 
BRANCH  16  17
ATOM     17  N   UNL     1      -0.400  14.403  22.859  0.00  0.00    +0.000 N 
ATOM     18  H   UNL     1      -0.292  15.421  22.830  0.00  0.00    +0.000 HD
ATOM     19  H   UNL     1       0.213  13.900  22.225  0.00  0.00    +0.000 HD
ENDBRANCH  16  17
ENDBRANCH   4   7
BRANCH   1  23
ATOM     20  N   UNL     1       2.211   6.472  20.807  0.00  0.00    +0.000 N 
ATOM     21  C   UNL     1       1.153   7.330  21.041  0.00  0.00    +0.000 C 
ATOM     22  O   UNL     1      -0.036   7.041  20.908  0.00  0.00    +0.000 OA
ATOM     23  N   UNL     1       1.562   8.602  21.442  0.00  0.00    +0.000 N 
ATOM     24  H   UNL     1       3.100   6.713  21.220  0.00  0.00    +0.000 HD
ATOM     25  H   UNL     1       2.427   8.904  21.021  0.00  0.00    +0.000 HD
BRANCH  20  31
ATOM     26  C   UNL     1       2.612   3.280  17.027  0.00  0.00    +0.000 C 
ATOM     27  C   UNL     1       2.259   3.560  18.460  0.00  0.00    +0.000 A 
ATOM     28  C   UNL     1       1.836   2.525  19.299  0.00  0.00    +0.000 A 
ATOM     29  C   UNL     1       1.521   2.793  20.627  0.00  0.00    +0.000 A 
ATOM     30  C   UNL     1       1.634   4.091  21.126  0.00  0.00    +0.000 A 
ATOM     31  C   UNL     1       2.071   5.143  20.313  0.00  0.00    +0.000 A 
ATOM     32  C   UNL     1       2.362   4.870  18.972  0.00  0.00    +0.000 A 
ENDBRANCH  20  31
ENDBRANCH   1  23
TORSDOF 4
ENDMDL
MODEL 8
REMARK VINA RESULT:      -7.3      1.403      2.030
REMARK  Name = 
REMARK  5 active torsions:
REMARK  status: ('A' for Active; 'I' for Inactive)
REMARK    1  A    between atoms: C_1  and  C_2
REMARK    2  A    between atoms: C_6  and  N_7
REMARK    3  A    between atoms: N_10  and  C_11
REMARK    4  A    between atoms: C_14  and  C_15
REMARK    5  A    between atoms: C_24  and  N_25
REMARK                            x       y       z     vdW  Elec       q    Type
REMARK                         _______ _______ _______ _____ _____    ______ ____
ROOT
ATOM      1  C   UNL     1       0.733   9.733  22.076  0.00  0.00    +0.000 A 
ATOM      2  C   UNL     1       0.910  10.891  21.309  0.00  0.00    +0.000 A 
ATOM      3  C   UNL     1       0.046  11.986  21.459  0.00  0.00    +0.000 A 
ATOM      4  C   UNL     1      -0.989  11.947  22.399  0.00  0.00    +0.000 A 
ATOM      5  C   UNL     1      -1.142  10.798  23.190  0.00  0.00    +0.000 A 
ATOM      6  C   UNL     1      -0.299   9.690  23.014  0.00  0.00    +0.000 A 
ENDROOT
BRANCH   4   7
ATOM      7  C   UNL     1      -1.955  13.052  22.506  0.00  0.00    +0.000 A 
ATOM      8  C   UNL     1      -1.940  13.977  23.685  0.00  0.00    +0.000 A 
ATOM      9  N   UNL     1      -2.756  14.975  23.901  0.00  0.00    +0.000 NA
ATOM     10  C   UNL     1      -3.711  15.181  22.950  0.00  0.00    +0.000 A 
ATOM     11  C   UNL     1      -4.720  16.105  22.825  0.00  0.00    +0.000 A 
ATOM     12 BR   UNL     1      -5.157  17.512  23.972  0.00  0.00    +0.000 Br
ATOM     13  C   UNL     1      -5.396  15.797  21.641  0.00  0.00    +0.000 A 
ATOM     14  N   UNL     1      -4.872  14.737  21.017  0.00  0.00    +0.000 NA
ATOM     15  N   UNL     1      -3.809  14.375  21.808  0.00  0.00    +0.000 N 
ATOM     16  C   UNL     1      -2.904  13.300  21.578  0.00  0.00    +0.000 A 
BRANCH  16  17
ATOM     17  N   UNL     1      -3.087  12.568  20.403  0.00  0.00    +0.000 N 
ATOM     18  H   UNL     1      -3.908  12.884  19.880  0.00  0.00    +0.000 HD
ATOM     19  H   UNL     1      -3.028  11.561  20.517  0.00  0.00    +0.000 HD
ENDBRANCH  16  17
ENDBRANCH   4   7
BRANCH   1  23
ATOM     20  N   UNL     1       2.322   6.730  20.776  0.00  0.00    +0.000 N 
ATOM     21  C   UNL     1       1.429   7.785  20.791  0.00  0.00    +0.000 C 
ATOM     22  O   UNL     1       0.593   8.017  19.918  0.00  0.00    +0.000 OA
ATOM     23  N   UNL     1       1.570   8.602  21.913  0.00  0.00    +0.000 N 
ATOM     24  H   UNL     1       2.746   6.473  21.655  0.00  0.00    +0.000 HD
ATOM     25  H   UNL     1       2.521   8.687  22.239  0.00  0.00    +0.000 HD
BRANCH  20  31
ATOM     26  C   UNL     1       0.902   2.457  18.689  0.00  0.00    +0.000 C 
ATOM     27  C   UNL     1       1.756   3.692  18.669  0.00  0.00    +0.000 A 
ATOM     28  C   UNL     1       2.626   3.934  17.601  0.00  0.00    +0.000 A 
ATOM     29  C   UNL     1       3.405   5.086  17.588  0.00  0.00    +0.000 A 
ATOM     30  C   UNL     1       3.316   6.004  18.634  0.00  0.00    +0.000 A 
ATOM     31  C   UNL     1       2.442   5.796  19.708  0.00  0.00    +0.000 A 
ATOM     32  C   UNL     1       1.680   4.623  19.725  0.00  0.00    +0.000 A 
ENDBRANCH  20  31
ENDBRANCH   1  23
TORSDOF 4
ENDMDL
MODEL 9
REMARK VINA RESULT:      -7.2      4.737     11.220
REMARK  Name = 
REMARK  5 active torsions:
REMARK  status: ('A' for Active; 'I' for Inactive)
REMARK    1  A    between atoms: C_1  and  C_2
REMARK    2  A    between atoms: C_6  and  N_7
REMARK    3  A    between atoms: N_10  and  C_11
REMARK    4  A    between atoms: C_14  and  C_15
REMARK    5  A    between atoms: C_24  and  N_25
REMARK                            x       y       z     vdW  Elec       q    Type
REMARK                         _______ _______ _______ _____ _____    ______ ____
ROOT
ATOM      1  C   UNL     1       0.090  10.042  20.294  0.00  0.00    +0.000 A 
ATOM      2  C   UNL     1       0.698   9.048  21.072  0.00  0.00    +0.000 A 
ATOM      3  C   UNL     1       1.574   8.121  20.489  0.00  0.00    +0.000 A 
ATOM      4  C   UNL     1       1.876   8.193  19.125  0.00  0.00    +0.000 A 
ATOM      5  C   UNL     1       1.293   9.212  18.356  0.00  0.00    +0.000 A 
ATOM      6  C   UNL     1       0.389  10.118  18.934  0.00  0.00    +0.000 A 
ENDROOT
BRANCH   4   7
ATOM      7  C   UNL     1       2.724   7.176  18.483  0.00  0.00    +0.000 A 
ATOM      8  C   UNL     1       3.758   7.563  17.469  0.00  0.00    +0.000 A 
ATOM      9  N   UNL     1       4.550   6.752  16.818  0.00  0.00    +0.000 NA
ATOM     10  C   UNL     1       4.409   5.426  17.102  0.00  0.00    +0.000 A 
ATOM     11  C   UNL     1       5.046   4.299  16.639  0.00  0.00    +0.000 A 
ATOM     12 BR   UNL     1       6.433   4.176  15.394  0.00  0.00    +0.000 Br
ATOM     13  C   UNL     1       4.449   3.213  17.284  0.00  0.00    +0.000 A 
ATOM     14  N   UNL     1       3.479   3.590  18.124  0.00  0.00    +0.000 NA
ATOM     15  N   UNL     1       3.476   4.960  18.037  0.00  0.00    +0.000 N 
ATOM     16  C   UNL     1       2.628   5.856  18.749  0.00  0.00    +0.000 A 
BRANCH  16  17
ATOM     17  N   UNL     1       1.741   5.285  19.664  0.00  0.00    +0.000 N 
ATOM     18  H   UNL     1       1.967   5.545  20.628  0.00  0.00    +0.000 HD
ATOM     19  H   UNL     1       1.571   4.293  19.528  0.00  0.00    +0.000 HD
ENDBRANCH  16  17
ENDBRANCH   4   7
BRANCH   1  23
ATOM     20  N   UNL     1      -1.378  12.913  21.978  0.00  0.00    +0.000 N 
ATOM     21  C   UNL     1      -0.359  12.115  21.490  0.00  0.00    +0.000 C 
ATOM     22  O   UNL     1       0.841  12.369  21.576  0.00  0.00    +0.000 OA
ATOM     23  N   UNL     1      -0.826  10.963  20.856  0.00  0.00    +0.000 N 
ATOM     24  H   UNL     1      -2.279  12.479  22.112  0.00  0.00    +0.000 HD
ATOM     25  H   UNL     1      -1.701  11.091  20.371  0.00  0.00    +0.000 HD
BRANCH  20  31
ATOM     26  C   UNL     1      -1.234  15.648  26.117  0.00  0.00    +0.000 C 
ATOM     27  C   UNL     1      -1.106  15.542  24.624  0.00  0.00    +0.000 A 
ATOM     28  C   UNL     1      -0.762  16.662  23.863  0.00  0.00    +0.000 A 
ATOM     29  C   UNL     1      -0.637  16.551  22.482  0.00  0.00    +0.000 A 
ATOM     30  C   UNL     1      -0.847  15.323  21.856  0.00  0.00    +0.000 A 
ATOM     31  C   UNL     1      -1.177  14.180  22.595  0.00  0.00    +0.000 A 
ATOM     32  C   UNL     1      -1.325  14.306  23.980  0.00  0.00    +0.000 A 
ENDBRANCH  20  31
ENDBRANCH   1  23
TORSDOF 4
ENDMDL
