MODEL 1
REMARK VINA RESULT:      -8.4      0.000      0.000
REMARK  Name = 
REMARK  6 active torsions:
REMARK  status: ('A' for Active; 'I' for Inactive)
REMARK    1  A    between atoms: C_1  and  C_2
REMARK    2  A    between atoms: C_4  and  C_5
REMARK    3  A    between atoms: C_7  and  N_8
REMARK    4  A    between atoms: C_9  and  C_11
REMARK    5  A    between atoms: N_16  and  C_17
REMARK    6  A    between atoms: C_17  and  C_18
REMARK                            x       y       z     vdW  Elec       q    Type
REMARK                         _______ _______ _______ _____ _____    ______ ____
ROOT
ATOM      1  C   UNL     1       5.957   4.413  18.332  0.00  0.00    +0.000 C 
ATOM      2  C   UNL     1       6.404   5.412  19.371  0.00  0.00    +0.000 C 
ATOM      3  C   UNL     1       5.041   5.568  18.732  0.00  0.00    +0.000 C 
ATOM      4  C   UNL     1       3.896   5.312  19.698  0.00  0.00    +0.000 C 
ATOM      5  C   UNL     1       2.526   5.506  19.049  0.00  0.00    +0.000 C 
ATOM      6  N   UNL     1       2.375   6.799  18.359  0.00  0.00    +0.000 NA
ATOM      7  C   UNL     1       3.384   6.854  17.281  0.00  0.00    +0.000 C 
ATOM      8  C   UNL     1       4.836   6.743  17.779  0.00  0.00    +0.000 C 
ENDROOT
BRANCH   1  10
ATOM      9  N   UNL     1       5.860   4.275  15.935  0.00  0.00    +0.000 N 
ATOM     10  C   UNL     1       6.689   4.384  17.031  0.00  0.00    +0.000 C 
ATOM     11  O   UNL     1       7.911   4.454  17.034  0.00  0.00    +0.000 OA
ATOM     12  H   UNL     1       4.869   4.193  16.107  0.00  0.00    +0.000 HD
BRANCH   9  19
ATOM     13  C   UNL     1       8.674   6.118  12.340  0.00  0.00    +0.000 C 
ATOM     14  C   UNL     1       7.653   5.119  12.802  0.00  0.00    +0.000 A 
ATOM     15  C   UNL     1       7.105   4.191  11.908  0.00  0.00    +0.000 A 
ATOM     16  C   UNL     1       6.148   3.269  12.342  0.00  0.00    +0.000 A 
ATOM     17  C   UNL     1       5.532   2.254  11.422  0.00  0.00    +0.000 C 
ATOM     18  C   UNL     1       5.746   3.285  13.681  0.00  0.00    +0.000 A 
ATOM     19  C   UNL     1       6.269   4.210  14.588  0.00  0.00    +0.000 A 
ATOM     20  C   UNL     1       7.234   5.116  14.141  0.00  0.00    +0.000 A 
ENDBRANCH   9  19
ENDBRANCH   1  10
BRANCH   6  21
ATOM     21  C   UNL     1       2.519   7.973  19.245  0.00  0.00    +0.000 C 
BRANCH  21  22
ATOM     22  C   UNL     1       1.350   8.932  19.249  0.00  0.00    +0.000 A 
ATOM     23  C   UNL     1       0.732   9.322  18.039  0.00  0.00    +0.000 A 
ATOM     24  C   UNL     1      -0.314  10.249  18.040  0.00  0.00    +0.000 A 
ATOM     25  C   UNL     1      -0.731  10.751  19.256  0.00  0.00    +0.000 A 
ATOM     26  C   UNL     1      -0.146  10.373  20.433  0.00  0.00    +0.000 A 
ATOM     27  C   UNL     1       0.893   9.471  20.467  0.00  0.00    +0.000 A 
ATOM     28  O   UNL     1      -0.701  10.983  21.513  0.00  0.00    +0.000 OA
ATOM     29  C   UNL     1      -1.694  11.812  20.873  0.00  0.00    +0.000 C 
ATOM     30  O   UNL     1      -1.729  11.661  19.438  0.00  0.00    +0.000 OA
ENDBRANCH  21  22
ENDBRANCH   6  21
TORSDOF 4
ENDMDL
MODEL 2
REMARK VINA RESULT:      -8.2      0.681      1.356
REMARK  Name = 
REMARK  6 active torsions:
REMARK  status: ('A' for Active; 'I' for Inactive)
REMARK    1  A    between atoms: C_1  and  C_2
REMARK    2  A    between atoms: C_4  and  C_5
REMARK    3  A    between atoms: C_7  and  N_8
REMARK    4  A    between atoms: C_9  and  C_11
REMARK    5  A    between atoms: N_16  and  C_17
REMARK    6  A    between atoms: C_17  and  C_18
REMARK                            x       y       z     vdW  Elec       q    Type
REMARK                         _______ _______ _______ _____ _____    ______ ____
ROOT
ATOM      1  C   UNL     1       5.546   4.401  18.217  0.00  0.00    +0.000 C 
ATOM      2  C   UNL     1       5.999   5.290  19.350  0.00  0.00    +0.000 C 
ATOM      3  C   UNL     1       4.708   5.610  18.627  0.00  0.00    +0.000 C 
ATOM      4  C   UNL     1       3.474   5.407  19.488  0.00  0.00    +0.000 C 
ATOM      5  C   UNL     1       2.182   5.767  18.757  0.00  0.00    +0.000 C 
ATOM      6  N   UNL     1       2.201   7.106  18.146  0.00  0.00    +0.000 NA
ATOM      7  C   UNL     1       3.291   7.131  17.149  0.00  0.00    +0.000 C 
ATOM      8  C   UNL     1       4.684   6.854  17.742  0.00  0.00    +0.000 C 
ENDROOT
BRANCH   1  10
ATOM      9  N   UNL     1       5.629   4.235  15.822  0.00  0.00    +0.000 N 
ATOM     10  C   UNL     1       6.372   4.381  16.973  0.00  0.00    +0.000 C 
ATOM     11  O   UNL     1       7.588   4.489  17.064  0.00  0.00    +0.000 OA
ATOM     12  H   UNL     1       4.631   4.124  15.923  0.00  0.00    +0.000 HD
BRANCH   9  19
ATOM     13  C   UNL     1       8.680   6.093  12.435  0.00  0.00    +0.000 C 
ATOM     14  C   UNL     1       7.639   5.085  12.825  0.00  0.00    +0.000 A 
ATOM     15  C   UNL     1       7.168   4.147  11.898  0.00  0.00    +0.000 A 
ATOM     16  C   UNL     1       6.192   3.216  12.265  0.00  0.00    +0.000 A 
ATOM     17  C   UNL     1       5.657   2.191  11.307  0.00  0.00    +0.000 C 
ATOM     18  C   UNL     1       5.692   3.234  13.570  0.00  0.00    +0.000 A 
ATOM     19  C   UNL     1       6.137   4.168  14.509  0.00  0.00    +0.000 A 
ATOM     20  C   UNL     1       7.122   5.084  14.130  0.00  0.00    +0.000 A 
ENDBRANCH   9  19
ENDBRANCH   1  10
BRANCH   6  21
ATOM     21  C   UNL     1       2.379   8.207  19.115  0.00  0.00    +0.000 C 
BRANCH  21  22
ATOM     22  C   UNL     1       1.221   9.172  19.226  0.00  0.00    +0.000 A 
ATOM     23  C   UNL     1       0.930   9.812  20.453  0.00  0.00    +0.000 A 
ATOM     24  C   UNL     1      -0.173  10.663  20.568  0.00  0.00    +0.000 A 
ATOM     25  C   UNL     1      -0.951  10.869  19.447  0.00  0.00    +0.000 A 
ATOM     26  C   UNL     1      -0.672  10.261  18.253  0.00  0.00    +0.000 A 
ATOM     27  C   UNL     1       0.399   9.409  18.108  0.00  0.00    +0.000 A 
ATOM     28  O   UNL     1      -1.557  10.594  17.278  0.00  0.00    +0.000 OA
ATOM     29  C   UNL     1      -2.444  11.469  18.006  0.00  0.00    +0.000 C 
ATOM     30  O   UNL     1      -2.058  11.659  19.384  0.00  0.00    +0.000 OA
ENDBRANCH  21  22
ENDBRANCH   6  21
TORSDOF 4
ENDMDL
MODEL 3
REMARK VINA RESULT:      -8.2      0.633      2.048
REMARK  Name = 
REMARK  6 active torsions:
REMARK  status: ('A' for Active; 'I' for Inactive)
REMARK    1  A    between atoms: C_1  and  C_2
REMARK    2  A    between atoms: C_4  and  C_5
REMARK    3  A    between atoms: C_7  and  N_8
REMARK    4  A    between atoms: C_9  and  C_11
REMARK    5  A    between atoms: N_16  and  C_17
REMARK    6  A    between atoms: C_17  and  C_18
REMARK                            x       y       z     vdW  Elec       q    Type
REMARK                         _______ _______ _______ _____ _____    ______ ____
ROOT
ATOM      1  C   UNL     1       5.704   4.371  18.254  0.00  0.00    +0.000 C 
ATOM      2  C   UNL     1       6.169   5.173  19.446  0.00  0.00    +0.000 C 
ATOM      3  C   UNL     1       4.827   5.486  18.820  0.00  0.00    +0.000 C 
ATOM      4  C   UNL     1       3.653   5.130  19.716  0.00  0.00    +0.000 C 
ATOM      5  C   UNL     1       2.306   5.483  19.086  0.00  0.00    +0.000 C 
ATOM      6  N   UNL     1       2.221   6.874  18.610  0.00  0.00    +0.000 NA
ATOM      7  C   UNL     1       3.254   7.057  17.569  0.00  0.00    +0.000 C 
ATOM      8  C   UNL     1       4.689   6.805  18.064  0.00  0.00    +0.000 C 
ENDROOT
BRANCH   1  10
ATOM      9  N   UNL     1       5.722   4.203  15.857  0.00  0.00    +0.000 N 
ATOM     10  C   UNL     1       6.463   4.519  16.976  0.00  0.00    +0.000 C 
ATOM     11  O   UNL     1       7.629   4.888  17.015  0.00  0.00    +0.000 OA
ATOM     12  H   UNL     1       4.777   3.879  16.001  0.00  0.00    +0.000 HD
BRANCH   9  19
ATOM     13  C   UNL     1       5.437   2.338  11.311  0.00  0.00    +0.000 C 
ATOM     14  C   UNL     1       6.048   3.314  12.273  0.00  0.00    +0.000 A 
ATOM     15  C   UNL     1       7.061   4.188  11.860  0.00  0.00    +0.000 A 
ATOM     16  C   UNL     1       7.632   5.089  12.763  0.00  0.00    +0.000 A 
ATOM     17  C   UNL     1       8.720   6.045  12.367  0.00  0.00    +0.000 C 
ATOM     18  C   UNL     1       7.178   5.106  14.085  0.00  0.00    +0.000 A 
ATOM     19  C   UNL     1       6.178   4.235  14.524  0.00  0.00    +0.000 A 
ATOM     20  C   UNL     1       5.608   3.349  13.605  0.00  0.00    +0.000 A 
ENDBRANCH   9  19
ENDBRANCH   1  10
BRANCH   6  21
ATOM     21  C   UNL     1       2.393   7.885  19.673  0.00  0.00    +0.000 C 
BRANCH  21  22
ATOM     22  C   UNL     1       1.275   8.895  19.797  0.00  0.00    +0.000 A 
ATOM     23  C   UNL     1       0.700   9.183  21.056  0.00  0.00    +0.000 A 
ATOM     24  C   UNL     1      -0.369  10.078  21.163  0.00  0.00    +0.000 A 
ATOM     25  C   UNL     1      -0.826  10.680  20.008  0.00  0.00    +0.000 A 
ATOM     26  C   UNL     1      -0.269  10.415  18.787  0.00  0.00    +0.000 A 
ATOM     27  C   UNL     1       0.776   9.531  18.645  0.00  0.00    +0.000 A 
ATOM     28  O   UNL     1      -0.863  11.108  17.780  0.00  0.00    +0.000 OA
ATOM     29  C   UNL     1      -1.880  11.826  18.511  0.00  0.00    +0.000 C 
ATOM     30  O   UNL     1      -1.855  11.569  19.931  0.00  0.00    +0.000 OA
ENDBRANCH  21  22
ENDBRANCH   6  21
TORSDOF 4
ENDMDL
MODEL 4
REMARK VINA RESULT:      -8.2      0.388      1.650
REMARK  Name = 
REMARK  6 active torsions:
REMARK  status: ('A' for Active; 'I' for Inactive)
REMARK    1  A    between atoms: C_1  and  C_2
REMARK    2  A    between atoms: C_4  and  C_5
REMARK    3  A    between atoms: C_7  and  N_8
REMARK    4  A    between atoms: C_9  and  C_11
REMARK    5  A    between atoms: N_16  and  C_17
REMARK    6  A    between atoms: C_17  and  C_18
REMARK                            x       y       z     vdW  Elec       q    Type
REMARK                         _______ _______ _______ _____ _____    ______ ____
ROOT
ATOM      1  C   UNL     1       5.770   4.400  18.289  0.00  0.00    +0.000 C 
ATOM      2  C   UNL     1       6.204   5.233  19.472  0.00  0.00    +0.000 C 
ATOM      3  C   UNL     1       4.831   5.453  18.875  0.00  0.00    +0.000 C 
ATOM      4  C   UNL     1       3.703   5.018  19.795  0.00  0.00    +0.000 C 
ATOM      5  C   UNL     1       2.322   5.278  19.195  0.00  0.00    +0.000 C 
ATOM      6  N   UNL     1       2.133   6.659  18.722  0.00  0.00    +0.000 NA
ATOM      7  C   UNL     1       3.128   6.912  17.659  0.00  0.00    +0.000 C 
ATOM      8  C   UNL     1       4.587   6.759  18.123  0.00  0.00    +0.000 C 
ENDROOT
BRANCH   1  10
ATOM      9  N   UNL     1       5.783   4.149  15.900  0.00  0.00    +0.000 N 
ATOM     10  C   UNL     1       6.489   4.598  16.995  0.00  0.00    +0.000 C 
ATOM     11  O   UNL     1       7.597   5.117  17.003  0.00  0.00    +0.000 OA
ATOM     12  H   UNL     1       4.890   3.710  16.070  0.00  0.00    +0.000 HD
BRANCH   9  19
ATOM     13  C   UNL     1       5.439   2.303  11.350  0.00  0.00    +0.000 C 
ATOM     14  C   UNL     1       6.058   3.279  12.307  0.00  0.00    +0.000 A 
ATOM     15  C   UNL     1       7.056   4.163  11.881  0.00  0.00    +0.000 A 
ATOM     16  C   UNL     1       7.635   5.065  12.779  0.00  0.00    +0.000 A 
ATOM     17  C   UNL     1       8.707   6.032  12.370  0.00  0.00    +0.000 C 
ATOM     18  C   UNL     1       7.203   5.072  14.109  0.00  0.00    +0.000 A 
ATOM     19  C   UNL     1       6.216   4.190  14.560  0.00  0.00    +0.000 A 
ATOM     20  C   UNL     1       5.640   3.304  13.646  0.00  0.00    +0.000 A 
ENDBRANCH   9  19
ENDBRANCH   1  10
BRANCH   6  21
ATOM     21  C   UNL     1       2.257   7.681  19.781  0.00  0.00    +0.000 C 
BRANCH  21  22
ATOM     22  C   UNL     1       1.253   8.809  19.720  0.00  0.00    +0.000 A 
ATOM     23  C   UNL     1       0.958   9.446  18.492  0.00  0.00    +0.000 A 
ATOM     24  C   UNL     1       0.069  10.523  18.445  0.00  0.00    +0.000 A 
ATOM     25  C   UNL     1      -0.520  10.929  19.626  0.00  0.00    +0.000 A 
ATOM     26  C   UNL     1      -0.247  10.313  20.817  0.00  0.00    +0.000 A 
ATOM     27  C   UNL     1       0.631   9.257  20.901  0.00  0.00    +0.000 A 
ATOM     28  O   UNL     1      -0.927  10.863  21.857  0.00  0.00    +0.000 OA
ATOM     29  C   UNL     1      -1.645  11.918  21.182  0.00  0.00    +0.000 C 
ATOM     30  O   UNL     1      -1.401  11.958  19.760  0.00  0.00    +0.000 OA
ENDBRANCH  21  22
ENDBRANCH   6  21
TORSDOF 4
ENDMDL
MODEL 5
REMARK VINA RESULT:      -8.0      3.284      6.380
REMARK  Name = 
REMARK  6 active torsions:
REMARK  status: ('A' for Active; 'I' for Inactive)
REMARK    1  A    between atoms: C_1  and  C_2
REMARK    2  A    between atoms: C_4  and  C_5
REMARK    3  A    between atoms: C_7  and  N_8
REMARK    4  A    between atoms: C_9  and  C_11
REMARK    5  A    between atoms: N_16  and  C_17
REMARK    6  A    between atoms: C_17  and  C_18
REMARK                            x       y       z     vdW  Elec       q    Type
REMARK                         _______ _______ _______ _____ _____    ______ ____
ROOT
ATOM      1  C   UNL     1       1.821   9.360  18.572  0.00  0.00    +0.000 C 
ATOM      2  C   UNL     1       0.450   9.621  17.996  0.00  0.00    +0.000 C 
ATOM      3  C   UNL     1       0.769  10.098  19.397  0.00  0.00    +0.000 C 
ATOM      4  C   UNL     1       0.836  11.611  19.512  0.00  0.00    +0.000 C 
ATOM      5  C   UNL     1       1.124  12.080  20.937  0.00  0.00    +0.000 C 
ATOM      6  N   UNL     1       0.220  11.500  21.945  0.00  0.00    +0.000 NA
ATOM      7  C   UNL     1       0.399  10.034  21.920  0.00  0.00    +0.000 C 
ATOM      8  C   UNL     1       0.078   9.389  20.560  0.00  0.00    +0.000 C 
ENDROOT
BRANCH   1  10
ATOM      9  N   UNL     1       2.487   7.220  17.706  0.00  0.00    +0.000 N 
ATOM     10  C   UNL     1       2.206   7.943  18.845  0.00  0.00    +0.000 C 
ATOM     11  O   UNL     1       2.239   7.548  20.003  0.00  0.00    +0.000 OA
ATOM     12  H   UNL     1       2.377   7.689  16.819  0.00  0.00    +0.000 HD
BRANCH   9  19
ATOM     13  C   UNL     1       5.835   3.865  16.379  0.00  0.00    +0.000 C 
ATOM     14  C   UNL     1       4.508   4.195  16.997  0.00  0.00    +0.000 A 
ATOM     15  C   UNL     1       3.665   3.180  17.463  0.00  0.00    +0.000 A 
ATOM     16  C   UNL     1       2.425   3.492  18.030  0.00  0.00    +0.000 A 
ATOM     17  C   UNL     1       1.487   2.440  18.545  0.00  0.00    +0.000 C 
ATOM     18  C   UNL     1       2.040   4.833  18.126  0.00  0.00    +0.000 A 
ATOM     19  C   UNL     1       2.860   5.862  17.656  0.00  0.00    +0.000 A 
ATOM     20  C   UNL     1       4.100   5.534  17.103  0.00  0.00    +0.000 A 
ENDBRANCH   9  19
ENDBRANCH   1  10
BRANCH   6  21
ATOM     21  C   UNL     1      -1.204  11.837  21.741  0.00  0.00    +0.000 C 
BRANCH  21  22
ATOM     22  C   UNL     1      -1.812  12.755  22.776  0.00  0.00    +0.000 A 
ATOM     23  C   UNL     1      -3.130  12.546  23.242  0.00  0.00    +0.000 A 
ATOM     24  C   UNL     1      -3.709  13.426  24.160  0.00  0.00    +0.000 A 
ATOM     25  C   UNL     1      -2.949  14.487  24.607  0.00  0.00    +0.000 A 
ATOM     26  C   UNL     1      -1.669  14.693  24.170  0.00  0.00    +0.000 A 
ATOM     27  C   UNL     1      -1.072  13.852  23.258  0.00  0.00    +0.000 A 
ATOM     28  O   UNL     1      -1.095  15.790  24.729  0.00  0.00    +0.000 OA
ATOM     29  C   UNL     1      -2.177  16.268  25.555  0.00  0.00    +0.000 C 
ATOM     30  O   UNL     1      -3.356  15.437  25.494  0.00  0.00    +0.000 OA
ENDBRANCH  21  22
ENDBRANCH   6  21
TORSDOF 4
ENDMDL
MODEL 6
REMARK VINA RESULT:      -8.0      1.426      1.636
REMARK  Name = 
REMARK  6 active torsions:
REMARK  status: ('A' for Active; 'I' for Inactive)
REMARK    1  A    between atoms: C_1  and  C_2
REMARK    2  A    between atoms: C_4  and  C_5
REMARK    3  A    between atoms: C_7  and  N_8
REMARK    4  A    between atoms: C_9  and  C_11
REMARK    5  A    between atoms: N_16  and  C_17
REMARK    6  A    between atoms: C_17  and  C_18
REMARK                            x       y       z     vdW  Elec       q    Type
REMARK                         _______ _______ _______ _____ _____    ______ ____
ROOT
ATOM      1  C   UNL     1       4.623   3.876  18.247  0.00  0.00    +0.000 C 
ATOM      2  C   UNL     1       5.526   4.857  18.955  0.00  0.00    +0.000 C 
ATOM      3  C   UNL     1       4.028   5.066  18.998  0.00  0.00    +0.000 C 
ATOM      4  C   UNL     1       3.434   4.855  20.380  0.00  0.00    +0.000 C 
ATOM      5  C   UNL     1       1.927   5.103  20.416  0.00  0.00    +0.000 C 
ATOM      6  N   UNL     1       1.526   6.400  19.847  0.00  0.00    +0.000 NA
ATOM      7  C   UNL     1       1.940   6.416  18.428  0.00  0.00    +0.000 C 
ATOM      8  C   UNL     1       3.455   6.248  18.219  0.00  0.00    +0.000 C 
ENDROOT
BRANCH   1  10
ATOM      9  N   UNL     1       5.941   4.085  16.248  0.00  0.00    +0.000 N 
ATOM     10  C   UNL     1       4.687   3.819  16.756  0.00  0.00    +0.000 C 
ATOM     11  O   UNL     1       3.671   3.555  16.126  0.00  0.00    +0.000 OA
ATOM     12  H   UNL     1       6.669   4.319  16.907  0.00  0.00    +0.000 HD
BRANCH   9  19
ATOM     13  C   UNL     1       8.769   6.031  12.721  0.00  0.00    +0.000 C 
ATOM     14  C   UNL     1       7.685   5.077  13.132  0.00  0.00    +0.000 A 
ATOM     15  C   UNL     1       7.029   4.287  12.181  0.00  0.00    +0.000 A 
ATOM     16  C   UNL     1       6.014   3.408  12.568  0.00  0.00    +0.000 A 
ATOM     17  C   UNL     1       5.282   2.539  11.586  0.00  0.00    +0.000 C 
ATOM     18  C   UNL     1       5.662   3.328  13.919  0.00  0.00    +0.000 A 
ATOM     19  C   UNL     1       6.294   4.116  14.885  0.00  0.00    +0.000 A 
ATOM     20  C   UNL     1       7.315   4.981  14.482  0.00  0.00    +0.000 A 
ENDBRANCH   9  19
ENDBRANCH   1  10
BRANCH   6  21
ATOM     21  C   UNL     1       2.095   7.568  20.551  0.00  0.00    +0.000 C 
BRANCH  21  22
ATOM     22  C   UNL     1       1.140   8.715  20.787  0.00  0.00    +0.000 A 
ATOM     23  C   UNL     1       0.732   9.545  19.718  0.00  0.00    +0.000 A 
ATOM     24  C   UNL     1      -0.109  10.638  19.945  0.00  0.00    +0.000 A 
ATOM     25  C   UNL     1      -0.540  10.864  21.237  0.00  0.00    +0.000 A 
ATOM     26  C   UNL     1      -0.159  10.060  22.276  0.00  0.00    +0.000 A 
ATOM     27  C   UNL     1       0.677   8.984  22.089  0.00  0.00    +0.000 A 
ATOM     28  O   UNL     1      -0.690  10.454  23.463  0.00  0.00    +0.000 OA
ATOM     29  C   UNL     1      -1.435  11.620  23.052  0.00  0.00    +0.000 C 
ATOM     30  O   UNL     1      -1.356  11.880  21.635  0.00  0.00    +0.000 OA
ENDBRANCH  21  22
ENDBRANCH   6  21
TORSDOF 4
ENDMDL
MODEL 7
REMARK VINA RESULT:      -8.0      2.210      9.445
REMARK  Name = 
REMARK  6 active torsions:
REMARK  status: ('A' for Active; 'I' for Inactive)
REMARK    1  A    between atoms: C_1  and  C_2
REMARK    2  A    between atoms: C_4  and  C_5
REMARK    3  A    between atoms: C_7  and  N_8
REMARK    4  A    between atoms: C_9  and  C_11
REMARK    5  A    between atoms: N_16  and  C_17
REMARK    6  A    between atoms: C_17  and  C_18
REMARK                            x       y       z     vdW  Elec       q    Type
REMARK                         _______ _______ _______ _____ _____    ______ ____
ROOT
ATOM      1  C   UNL     1       2.540   4.533  20.679  0.00  0.00    +0.000 C 
ATOM      2  C   UNL     1       2.197   3.247  19.967  0.00  0.00    +0.000 C 
ATOM      3  C   UNL     1       3.298   4.127  19.417  0.00  0.00    +0.000 C 
ATOM      4  C   UNL     1       4.679   3.506  19.543  0.00  0.00    +0.000 C 
ATOM      5  C   UNL     1       5.776   4.390  18.953  0.00  0.00    +0.000 C 
ATOM      6  N   UNL     1       5.505   4.831  17.574  0.00  0.00    +0.000 NA
ATOM      7  C   UNL     1       4.261   5.630  17.594  0.00  0.00    +0.000 C 
ATOM      8  C   UNL     1       3.032   4.855  18.102  0.00  0.00    +0.000 C 
ENDROOT
BRANCH   1  10
ATOM      9  N   UNL     1       2.056   6.882  20.820  0.00  0.00    +0.000 N 
ATOM     10  C   UNL     1       1.517   5.621  20.686  0.00  0.00    +0.000 C 
ATOM     11  O   UNL     1       0.334   5.326  20.578  0.00  0.00    +0.000 OA
ATOM     12  H   UNL     1       3.057   6.951  20.933  0.00  0.00    +0.000 HD
BRANCH   9  19
ATOM     13  C   UNL     1       0.733  11.047  18.554  0.00  0.00    +0.000 C 
ATOM     14  C   UNL     1       0.680  10.158  19.762  0.00  0.00    +0.000 A 
ATOM     15  C   UNL     1      -0.026  10.547  20.906  0.00  0.00    +0.000 A 
ATOM     16  C   UNL     1      -0.064   9.718  22.032  0.00  0.00    +0.000 A 
ATOM     17  C   UNL     1      -0.808  10.091  23.281  0.00  0.00    +0.000 C 
ATOM     18  C   UNL     1       0.613   8.495  21.999  0.00  0.00    +0.000 A 
ATOM     19  C   UNL     1       1.335   8.092  20.873  0.00  0.00    +0.000 A 
ATOM     20  C   UNL     1       1.353   8.926  19.752  0.00  0.00    +0.000 A 
ENDBRANCH   9  19
ENDBRANCH   1  10
BRANCH   6  21
ATOM     21  C   UNL     1       5.378   3.725  16.602  0.00  0.00    +0.000 C 
BRANCH  21  22
ATOM     22  C   UNL     1       5.898   4.016  15.213  0.00  0.00    +0.000 A 
ATOM     23  C   UNL     1       5.323   3.391  14.083  0.00  0.00    +0.000 A 
ATOM     24  C   UNL     1       5.838   3.620  12.804  0.00  0.00    +0.000 A 
ATOM     25  C   UNL     1       6.907   4.486  12.682  0.00  0.00    +0.000 A 
ATOM     26  C   UNL     1       7.463   5.103  13.769  0.00  0.00    +0.000 A 
ATOM     27  C   UNL     1       6.988   4.891  15.043  0.00  0.00    +0.000 A 
ATOM     28  O   UNL     1       8.502   5.912  13.436  0.00  0.00    +0.000 OA
ATOM     29  C   UNL     1       8.551   5.713  12.007  0.00  0.00    +0.000 C 
ATOM     30  O   UNL     1       7.531   4.817  11.518  0.00  0.00    +0.000 OA
ENDBRANCH  21  22
ENDBRANCH   6  21
TORSDOF 4
ENDMDL
MODEL 8
REMARK VINA RESULT:      -7.9      2.189      9.452
REMARK  Name = 
REMARK  6 active torsions:
REMARK  status: ('A' for Active; 'I' for Inactive)
REMARK    1  A    between atoms: C_1  and  C_2
REMARK    2  A    between atoms: C_4  and  C_5
REMARK    3  A    between atoms: C_7  and  N_8
REMARK    4  A    between atoms: C_9  and  C_11
REMARK    5  A    between atoms: N_16  and  C_17
REMARK    6  A    between atoms: C_17  and  C_18
REMARK                            x       y       z     vdW  Elec       q    Type
REMARK                         _______ _______ _______ _____ _____    ______ ____
ROOT
ATOM      1  C   UNL     1       2.616   4.578  20.622  0.00  0.00    +0.000 C 
ATOM      2  C   UNL     1       2.289   3.281  19.921  0.00  0.00    +0.000 C 
ATOM      3  C   UNL     1       3.392   4.161  19.374  0.00  0.00    +0.000 C 
ATOM      4  C   UNL     1       4.774   3.550  19.523  0.00  0.00    +0.000 C 
ATOM      5  C   UNL     1       5.873   4.433  18.936  0.00  0.00    +0.000 C 
ATOM      6  N   UNL     1       5.616   4.855  17.549  0.00  0.00    +0.000 NA
ATOM      7  C   UNL     1       4.368   5.646  17.544  0.00  0.00    +0.000 C 
ATOM      8  C   UNL     1       3.137   4.871  18.046  0.00  0.00    +0.000 C 
ENDROOT
BRANCH   1  10
ATOM      9  N   UNL     1       2.117   6.926  20.719  0.00  0.00    +0.000 N 
ATOM     10  C   UNL     1       1.587   5.660  20.602  0.00  0.00    +0.000 C 
ATOM     11  O   UNL     1       0.406   5.356  20.491  0.00  0.00    +0.000 OA
ATOM     12  H   UNL     1       3.117   7.003  20.838  0.00  0.00    +0.000 HD
BRANCH   9  19
ATOM     13  C   UNL     1      -0.633  10.075  23.317  0.00  0.00    +0.000 C 
ATOM     14  C   UNL     1       0.022   9.693  22.022  0.00  0.00    +0.000 A 
ATOM     15  C   UNL     1      -0.128  10.490  20.882  0.00  0.00    +0.000 A 
ATOM     16  C   UNL     1       0.477  10.124  19.676  0.00  0.00    +0.000 A 
ATOM     17  C   UNL     1       0.346  10.946  18.427  0.00  0.00    +0.000 C 
ATOM     18  C   UNL     1       1.235   8.950  19.624  0.00  0.00    +0.000 A 
ATOM     19  C   UNL     1       1.389   8.132  20.747  0.00  0.00    +0.000 A 
ATOM     20  C   UNL     1       0.788   8.519  21.947  0.00  0.00    +0.000 A 
ENDBRANCH   9  19
ENDBRANCH   1  10
BRANCH   6  21
ATOM     21  C   UNL     1       5.508   3.737  16.589  0.00  0.00    +0.000 C 
BRANCH  21  22
ATOM     22  C   UNL     1       5.974   4.037  15.184  0.00  0.00    +0.000 A 
ATOM     23  C   UNL     1       5.357   3.420  14.071  0.00  0.00    +0.000 A 
ATOM     24  C   UNL     1       5.824   3.658  12.775  0.00  0.00    +0.000 A 
ATOM     25  C   UNL     1       6.887   4.523  12.620  0.00  0.00    +0.000 A 
ATOM     26  C   UNL     1       7.485   5.133  13.689  0.00  0.00    +0.000 A 
ATOM     27  C   UNL     1       7.058   4.912  14.979  0.00  0.00    +0.000 A 
ATOM     28  O   UNL     1       8.512   5.943  13.322  0.00  0.00    +0.000 OA
ATOM     29  C   UNL     1       8.507   5.754  11.891  0.00  0.00    +0.000 C 
ATOM     30  O   UNL     1       7.467   4.862  11.435  0.00  0.00    +0.000 OA
ENDBRANCH  21  22
ENDBRANCH   6  21
TORSDOF 4
ENDMDL
MODEL 9
REMARK VINA RESULT:      -7.9      1.403      2.267
REMARK  Name = 
REMARK  6 active torsions:
REMARK  status: ('A' for Active; 'I' for Inactive)
REMARK    1  A    between atoms: C_1  and  C_2
REMARK    2  A    between atoms: C_4  and  C_5
REMARK    3  A    between atoms: C_7  and  N_8
REMARK    4  A    between atoms: C_9  and  C_11
REMARK    5  A    between atoms: N_16  and  C_17
REMARK    6  A    between atoms: C_17  and  C_18
REMARK                            x       y       z     vdW  Elec       q    Type
REMARK                         _______ _______ _______ _____ _____    ______ ____
ROOT
ATOM      1  C   UNL     1       4.678   3.901  18.235  0.00  0.00    +0.000 C 
ATOM      2  C   UNL     1       5.567   4.879  18.963  0.00  0.00    +0.000 C 
ATOM      3  C   UNL     1       4.068   5.083  18.986  0.00  0.00    +0.000 C 
ATOM      4  C   UNL     1       3.456   4.860  20.358  0.00  0.00    +0.000 C 
ATOM      5  C   UNL     1       1.947   5.102  20.375  0.00  0.00    +0.000 C 
ATOM      6  N   UNL     1       1.550   6.402  19.809  0.00  0.00    +0.000 NA
ATOM      7  C   UNL     1       1.984   6.431  18.397  0.00  0.00    +0.000 C 
ATOM      8  C   UNL     1       3.502   6.269  18.208  0.00  0.00    +0.000 C 
ENDROOT
BRANCH   1  10
ATOM      9  N   UNL     1       5.998   4.217  16.253  0.00  0.00    +0.000 N 
ATOM     10  C   UNL     1       4.763   3.855  16.745  0.00  0.00    +0.000 C 
ATOM     11  O   UNL     1       3.777   3.517  16.102  0.00  0.00    +0.000 OA
ATOM     12  H   UNL     1       6.699   4.504  16.920  0.00  0.00    +0.000 HD
BRANCH   9  19
ATOM     13  C   UNL     1       5.336   2.531  11.676  0.00  0.00    +0.000 C 
ATOM     14  C   UNL     1       6.048   3.449  12.627  0.00  0.00    +0.000 A 
ATOM     15  C   UNL     1       7.064   4.299  12.175  0.00  0.00    +0.000 A 
ATOM     16  C   UNL     1       7.729   5.145  13.067  0.00  0.00    +0.000 A 
ATOM     17  C   UNL     1       8.824   6.075  12.631  0.00  0.00    +0.000 C 
ATOM     18  C   UNL     1       7.366   5.130  14.417  0.00  0.00    +0.000 A 
ATOM     19  C   UNL     1       6.364   4.281  14.893  0.00  0.00    +0.000 A 
ATOM     20  C   UNL     1       5.700   3.451  13.987  0.00  0.00    +0.000 A 
ENDBRANCH   9  19
ENDBRANCH   1  10
BRANCH   6  21
ATOM     21  C   UNL     1       2.105   7.567  20.530  0.00  0.00    +0.000 C 
BRANCH  21  22
ATOM     22  C   UNL     1       1.140   8.705  20.769  0.00  0.00    +0.000 A 
ATOM     23  C   UNL     1       0.701   9.515  19.696  0.00  0.00    +0.000 A 
ATOM     24  C   UNL     1      -0.150  10.600  19.925  0.00  0.00    +0.000 A 
ATOM     25  C   UNL     1      -0.558  10.840  21.222  0.00  0.00    +0.000 A 
ATOM     26  C   UNL     1      -0.146  10.056  22.265  0.00  0.00    +0.000 A 
ATOM     27  C   UNL     1       0.700   8.987  22.076  0.00  0.00    +0.000 A 
ATOM     28  O   UNL     1      -0.658  10.460  23.456  0.00  0.00    +0.000 OA
ATOM     29  C   UNL     1      -1.426  11.610  23.044  0.00  0.00    +0.000 C 
ATOM     30  O   UNL     1      -1.378  11.851  21.621  0.00  0.00    +0.000 OA
ENDBRANCH  21  22
ENDBRANCH   6  21
TORSDOF 4
ENDMDL
