MODEL 1
REMARK VINA RESULT:      -6.7      0.000      0.000
REMARK  Name = 
REMARK  0 active torsions:
REMARK  status: ('A' for Active; 'I' for Inactive)
REMARK                            x       y       z     vdW  Elec       q    Type
REMARK                         _______ _______ _______ _____ _____    ______ ____
ROOT
ATOM      1 BR   UNL     1       7.260   4.830  13.280  0.00  0.00    +0.000 Br
ATOM      2  C   UNL     1       6.151   4.884  14.814  0.00  0.00    +0.000 A 
ATOM      3  C   UNL     1       5.648   6.107  15.249  0.00  0.00    +0.000 A 
ATOM      4  C   UNL     1       4.825   6.169  16.379  0.00  0.00    +0.000 A 
ATOM      5  C   UNL     1       4.508   4.984  17.075  0.00  0.00    +0.000 A 
ATOM      6  C   UNL     1       5.031   3.776  16.612  0.00  0.00    +0.000 A 
ATOM      7  C   UNL     1       5.858   3.692  15.483  0.00  0.00    +0.000 A 
ATOM      8  N   UNL     1       4.578   2.790  17.457  0.00  0.00    +0.000 N 
ATOM      9  C   UNL     1       3.779   3.316  18.446  0.00  0.00    +0.000 A 
ATOM     10  C   UNL     1       3.113   2.683  19.503  0.00  0.00    +0.000 A 
ATOM     11  C   UNL     1       2.363   3.491  20.363  0.00  0.00    +0.000 A 
ATOM     12 BR   UNL     1       1.440   2.691  21.809  0.00  0.00    +0.000 Br
ATOM     13  C   UNL     1       2.278   4.869  20.179  0.00  0.00    +0.000 A 
ATOM     14  C   UNL     1       2.952   5.481  19.116  0.00  0.00    +0.000 A 
ATOM     15  C   UNL     1       3.717   4.693  18.231  0.00  0.00    +0.000 A 
ATOM     16  H   UNL     1       4.800   1.810  17.362  0.00  0.00    +0.000 HD
ENDROOT
TORSDOF 0
ENDMDL
MODEL 2
REMARK VINA RESULT:      -6.7      0.121      5.644
REMARK  Name = 
REMARK  0 active torsions:
REMARK  status: ('A' for Active; 'I' for Inactive)
REMARK                            x       y       z     vdW  Elec       q    Type
REMARK                         _______ _______ _______ _____ _____    ______ ____
ROOT
ATOM      1 BR   UNL     1       1.493   2.653  21.922  0.00  0.00    +0.000 Br
ATOM      2  C   UNL     1       2.403   3.469  20.476  0.00  0.00    +0.000 A 
ATOM      3  C   UNL     1       2.320   4.849  20.311  0.00  0.00    +0.000 A 
ATOM      4  C   UNL     1       2.987   5.474  19.250  0.00  0.00    +0.000 A 
ATOM      5  C   UNL     1       3.744   4.695  18.350  0.00  0.00    +0.000 A 
ATOM      6  C   UNL     1       3.805   3.315  18.545  0.00  0.00    +0.000 A 
ATOM      7  C   UNL     1       3.144   2.670  19.600  0.00  0.00    +0.000 A 
ATOM      8  N   UNL     1       4.594   2.800  17.544  0.00  0.00    +0.000 N 
ATOM      9  C   UNL     1       5.048   3.796  16.712  0.00  0.00    +0.000 A 
ATOM     10  C   UNL     1       5.871   3.725  15.580  0.00  0.00    +0.000 A 
ATOM     11  C   UNL     1       6.168   4.926  14.927  0.00  0.00    +0.000 A 
ATOM     12 BR   UNL     1       7.276   4.891  13.393  0.00  0.00    +0.000 Br
ATOM     13  C   UNL     1       5.668   6.144  15.381  0.00  0.00    +0.000 A 
ATOM     14  C   UNL     1       4.848   6.193  16.513  0.00  0.00    +0.000 A 
ATOM     15  C   UNL     1       4.530   4.998  17.193  0.00  0.00    +0.000 A 
ATOM     16  H   UNL     1       4.813   1.820  17.435  0.00  0.00    +0.000 HD
ENDROOT
TORSDOF 0
ENDMDL
MODEL 3
REMARK VINA RESULT:      -6.4      3.972      5.585
REMARK  Name = 
REMARK  0 active torsions:
REMARK  status: ('A' for Active; 'I' for Inactive)
REMARK                            x       y       z     vdW  Elec       q    Type
REMARK                         _______ _______ _______ _____ _____    ______ ____
ROOT
ATOM      1 BR   UNL     1       4.126   2.053  19.631  0.00  0.00    +0.000 Br
ATOM      2  C   UNL     1       3.571   3.825  19.265  0.00  0.00    +0.000 A 
ATOM      3  C   UNL     1       3.817   4.371  18.008  0.00  0.00    +0.000 A 
ATOM      4  C   UNL     1       3.412   5.679  17.715  0.00  0.00    +0.000 A 
ATOM      5  C   UNL     1       2.752   6.440  18.703  0.00  0.00    +0.000 A 
ATOM      6  C   UNL     1       2.523   5.863  19.951  0.00  0.00    +0.000 A 
ATOM      7  C   UNL     1       2.921   4.555  20.266  0.00  0.00    +0.000 A 
ATOM      8  N   UNL     1       1.876   6.803  20.719  0.00  0.00    +0.000 N 
ATOM      9  C   UNL     1       1.676   7.964  20.011  0.00  0.00    +0.000 A 
ATOM     10  C   UNL     1       1.063   9.164  20.395  0.00  0.00    +0.000 A 
ATOM     11  C   UNL     1       1.005  10.187  19.443  0.00  0.00    +0.000 A 
ATOM     12 BR   UNL     1       0.187  11.831  19.906  0.00  0.00    +0.000 Br
ATOM     13  C   UNL     1       1.534  10.024  18.165  0.00  0.00    +0.000 A 
ATOM     14  C   UNL     1       2.142   8.818  17.802  0.00  0.00    +0.000 A 
ATOM     15  C   UNL     1       2.217   7.766  18.740  0.00  0.00    +0.000 A 
ATOM     16  H   UNL     1       1.585   6.658  21.675  0.00  0.00    +0.000 HD
ENDROOT
TORSDOF 0
ENDMDL
MODEL 4
REMARK VINA RESULT:      -6.4      4.011      5.761
REMARK  Name = 
REMARK  0 active torsions:
REMARK  status: ('A' for Active; 'I' for Inactive)
REMARK                            x       y       z     vdW  Elec       q    Type
REMARK                         _______ _______ _______ _____ _____    ______ ____
ROOT
ATOM      1 BR   UNL     1       0.095  11.855  19.984  0.00  0.00    +0.000 Br
ATOM      2  C   UNL     1       0.941  10.229  19.511  0.00  0.00    +0.000 A 
ATOM      3  C   UNL     1       1.508  10.098  18.246  0.00  0.00    +0.000 A 
ATOM      4  C   UNL     1       2.140   8.904  17.877  0.00  0.00    +0.000 A 
ATOM      5  C   UNL     1       2.199   7.836  18.795  0.00  0.00    +0.000 A 
ATOM      6  C   UNL     1       1.619   8.001  20.053  0.00  0.00    +0.000 A 
ATOM      7  C   UNL     1       0.981   9.187  20.443  0.00  0.00    +0.000 A 
ATOM      8  N   UNL     1       1.812   6.827  20.744  0.00  0.00    +0.000 N 
ATOM      9  C   UNL     1       2.497   5.912  19.980  0.00  0.00    +0.000 A 
ATOM     10  C   UNL     1       2.906   4.606  20.281  0.00  0.00    +0.000 A 
ATOM     11  C   UNL     1       3.597   3.906  19.288  0.00  0.00    +0.000 A 
ATOM     12 BR   UNL     1       4.175   2.138  19.640  0.00  0.00    +0.000 Br
ATOM     13  C   UNL     1       3.872   4.479  18.049  0.00  0.00    +0.000 A 
ATOM     14  C   UNL     1       3.455   5.785  17.768  0.00  0.00    +0.000 A 
ATOM     15  C   UNL     1       2.754   6.518  18.750  0.00  0.00    +0.000 A 
ATOM     16  H   UNL     1       1.494   6.661  21.687  0.00  0.00    +0.000 HD
ENDROOT
TORSDOF 0
ENDMDL
MODEL 5
REMARK VINA RESULT:      -6.2      2.388      3.248
REMARK  Name = 
REMARK  0 active torsions:
REMARK  status: ('A' for Active; 'I' for Inactive)
REMARK                            x       y       z     vdW  Elec       q    Type
REMARK                         _______ _______ _______ _____ _____    ______ ____
ROOT
ATOM      1 BR   UNL     1       6.706   4.438  14.177  0.00  0.00    +0.000 Br
ATOM      2  C   UNL     1       5.561   4.777  15.646  0.00  0.00    +0.000 A 
ATOM      3  C   UNL     1       5.194   3.725  16.481  0.00  0.00    +0.000 A 
ATOM      4  C   UNL     1       4.350   3.955  17.575  0.00  0.00    +0.000 A 
ATOM      5  C   UNL     1       3.876   5.259  17.826  0.00  0.00    +0.000 A 
ATOM      6  C   UNL     1       4.263   6.288  16.968  0.00  0.00    +0.000 A 
ATOM      7  C   UNL     1       5.106   6.081  15.867  0.00  0.00    +0.000 A 
ATOM      8  N   UNL     1       3.669   7.441  17.427  0.00  0.00    +0.000 N 
ATOM      9  C   UNL     1       2.917   7.194  18.551  0.00  0.00    +0.000 A 
ATOM     10  C   UNL     1       2.154   8.066  19.339  0.00  0.00    +0.000 A 
ATOM     11  C   UNL     1       1.487   7.518  20.439  0.00  0.00    +0.000 A 
ATOM     12 BR   UNL     1       0.442   8.649  21.540  0.00  0.00    +0.000 Br
ATOM     13  C   UNL     1       1.575   6.162  20.743  0.00  0.00    +0.000 A 
ATOM     14  C   UNL     1       2.343   5.308  19.943  0.00  0.00    +0.000 A 
ATOM     15  C   UNL     1       3.027   5.831  18.825  0.00  0.00    +0.000 A 
ATOM     16  H   UNL     1       3.774   8.349  16.997  0.00  0.00    +0.000 HD
ENDROOT
TORSDOF 0
ENDMDL
MODEL 6
REMARK VINA RESULT:      -6.2      2.377      6.042
REMARK  Name = 
REMARK  0 active torsions:
REMARK  status: ('A' for Active; 'I' for Inactive)
REMARK                            x       y       z     vdW  Elec       q    Type
REMARK                         _______ _______ _______ _____ _____    ______ ____
ROOT
ATOM      1 BR   UNL     1       0.493   8.622  21.578  0.00  0.00    +0.000 Br
ATOM      2  C   UNL     1       1.533   7.505  20.458  0.00  0.00    +0.000 A 
ATOM      3  C   UNL     1       1.614   6.143  20.738  0.00  0.00    +0.000 A 
ATOM      4  C   UNL     1       2.376   5.299  19.921  0.00  0.00    +0.000 A 
ATOM      5  C   UNL     1       3.061   5.837  18.812  0.00  0.00    +0.000 A 
ATOM      6  C   UNL     1       2.959   7.205  18.561  0.00  0.00    +0.000 A 
ATOM      7  C   UNL     1       2.202   8.069  19.367  0.00  0.00    +0.000 A 
ATOM      8  N   UNL     1       3.711   7.468  17.440  0.00  0.00    +0.000 N 
ATOM      9  C   UNL     1       4.292   6.319  16.956  0.00  0.00    +0.000 A 
ATOM     10  C   UNL     1       5.125   6.125  15.847  0.00  0.00    +0.000 A 
ATOM     11  C   UNL     1       5.568   4.822  15.599  0.00  0.00    +0.000 A 
ATOM     12 BR   UNL     1       6.696   4.499  14.113  0.00  0.00    +0.000 Br
ATOM     13  C   UNL     1       5.198   3.758  16.418  0.00  0.00    +0.000 A 
ATOM     14  C   UNL     1       4.365   3.974  17.521  0.00  0.00    +0.000 A 
ATOM     15  C   UNL     1       3.902   5.278  17.798  0.00  0.00    +0.000 A 
ATOM     16  H   UNL     1       3.821   8.382  17.027  0.00  0.00    +0.000 HD
ENDROOT
TORSDOF 0
ENDMDL
MODEL 7
REMARK VINA RESULT:      -6.1      4.636      7.082
REMARK  Name = 
REMARK  0 active torsions:
REMARK  status: ('A' for Active; 'I' for Inactive)
REMARK                            x       y       z     vdW  Elec       q    Type
REMARK                         _______ _______ _______ _____ _____    ______ ____
ROOT
ATOM      1 BR   UNL     1      -1.171  11.372  22.682  0.00  0.00    +0.000 Br
ATOM      2  C   UNL     1      -0.123  10.339  21.491  0.00  0.00    +0.000 A 
ATOM      3  C   UNL     1       0.243  10.879  20.261  0.00  0.00    +0.000 A 
ATOM      4  C   UNL     1       1.020  10.133  19.366  0.00  0.00    +0.000 A 
ATOM      5  C   UNL     1       1.429   8.830  19.720  0.00  0.00    +0.000 A 
ATOM      6  C   UNL     1       1.042   8.320  20.959  0.00  0.00    +0.000 A 
ATOM      7  C   UNL     1       0.264   9.050  21.869  0.00  0.00    +0.000 A 
ATOM      8  N   UNL     1       1.562   7.050  21.053  0.00  0.00    +0.000 N 
ATOM      9  C   UNL     1       2.273   6.723  19.922  0.00  0.00    +0.000 A 
ATOM     10  C   UNL     1       2.964   5.549  19.595  0.00  0.00    +0.000 A 
ATOM     11  C   UNL     1       3.603   5.507  18.352  0.00  0.00    +0.000 A 
ATOM     12 BR   UNL     1       4.552   3.946  17.856  0.00  0.00    +0.000 Br
ATOM     13  C   UNL     1       3.557   6.586  17.472  0.00  0.00    +0.000 A 
ATOM     14  C   UNL     1       2.862   7.749  17.819  0.00  0.00    +0.000 A 
ATOM     15  C   UNL     1       2.206   7.823  19.066  0.00  0.00    +0.000 A 
ATOM     16  H   UNL     1       1.440   6.440  21.848  0.00  0.00    +0.000 HD
ENDROOT
TORSDOF 0
ENDMDL
MODEL 8
REMARK VINA RESULT:      -6.1      1.515      1.810
REMARK  Name = 
REMARK  0 active torsions:
REMARK  status: ('A' for Active; 'I' for Inactive)
REMARK                            x       y       z     vdW  Elec       q    Type
REMARK                         _______ _______ _______ _____ _____    ______ ____
ROOT
ATOM      1 BR   UNL     1       8.371   5.409  13.212  0.00  0.00    +0.000 Br
ATOM      2  C   UNL     1       6.976   4.859  14.367  0.00  0.00    +0.000 A 
ATOM      3  C   UNL     1       5.754   4.469  13.823  0.00  0.00    +0.000 A 
ATOM      4  C   UNL     1       4.710   4.057  14.659  0.00  0.00    +0.000 A 
ATOM      5  C   UNL     1       4.903   4.038  16.056  0.00  0.00    +0.000 A 
ATOM      6  C   UNL     1       6.139   4.436  16.566  0.00  0.00    +0.000 A 
ATOM      7  C   UNL     1       7.198   4.854  15.747  0.00  0.00    +0.000 A 
ATOM      8  N   UNL     1       6.064   4.329  17.936  0.00  0.00    +0.000 N 
ATOM      9  C   UNL     1       4.827   3.872  18.327  0.00  0.00    +0.000 A 
ATOM     10  C   UNL     1       4.321   3.616  19.609  0.00  0.00    +0.000 A 
ATOM     11  C   UNL     1       3.006   3.150  19.696  0.00  0.00    +0.000 A 
ATOM     12 BR   UNL     1       2.269   2.786  21.402  0.00  0.00    +0.000 Br
ATOM     13  C   UNL     1       2.227   2.948  18.560  0.00  0.00    +0.000 A 
ATOM     14  C   UNL     1       2.752   3.210  17.290  0.00  0.00    +0.000 A 
ATOM     15  C   UNL     1       4.076   3.681  17.168  0.00  0.00    +0.000 A 
ATOM     16  H   UNL     1       6.818   4.553  18.569  0.00  0.00    +0.000 HD
ENDROOT
TORSDOF 0
ENDMDL
MODEL 9
REMARK VINA RESULT:      -6.0      4.478      5.655
REMARK  Name = 
REMARK  0 active torsions:
REMARK  status: ('A' for Active; 'I' for Inactive)
REMARK                            x       y       z     vdW  Elec       q    Type
REMARK                         _______ _______ _______ _____ _____    ______ ____
ROOT
ATOM      1 BR   UNL     1       4.546   3.632  17.973  0.00  0.00    +0.000 Br
ATOM      2  C   UNL     1       3.639   5.225  18.449  0.00  0.00    +0.000 A 
ATOM      3  C   UNL     1       3.627   6.295  17.558  0.00  0.00    +0.000 A 
ATOM      4  C   UNL     1       2.960   7.481  17.890  0.00  0.00    +0.000 A 
ATOM      5  C   UNL     1       2.301   7.584  19.132  0.00  0.00    +0.000 A 
ATOM      6  C   UNL     1       2.335   6.493  20.001  0.00  0.00    +0.000 A 
ATOM      7  C   UNL     1       2.997   5.297  19.689  0.00  0.00    +0.000 A 
ATOM      8  N   UNL     1       1.629   6.850  21.126  0.00  0.00    +0.000 N 
ATOM      9  C   UNL     1       1.137   8.130  21.013  0.00  0.00    +0.000 A 
ATOM     10  C   UNL     1       0.370   8.886  21.909  0.00  0.00    +0.000 A 
ATOM     11  C   UNL     1       0.013  10.179  21.513  0.00  0.00    +0.000 A 
ATOM     12 BR   UNL     1      -1.024  11.247  22.683  0.00  0.00    +0.000 Br
ATOM     13  C   UNL     1       0.401  10.697  20.280  0.00  0.00    +0.000 A 
ATOM     14  C   UNL     1       1.167   9.924  19.401  0.00  0.00    +0.000 A 
ATOM     15  C   UNL     1       1.544   8.616  19.771  0.00  0.00    +0.000 A 
ATOM     16  H   UNL     1       1.488   6.252  21.926  0.00  0.00    +0.000 HD
ENDROOT
TORSDOF 0
ENDMDL
