MODEL 1
REMARK VINA RESULT:      -6.8      0.000      0.000
REMARK  Name = 
REMARK  6 active torsions:
REMARK  status: ('A' for Active; 'I' for Inactive)
REMARK    1  A    between atoms: C_1  and  C_2
REMARK    2  A    between atoms: C_2  and  N_3
REMARK    3  A    between atoms: N_16  and  C_17
REMARK    4  A    between atoms: C_20  and  C_21
REMARK    5  A    between atoms: N_25  and  C_26
REMARK    6  A    between atoms: C_26  and  C_27
REMARK                            x       y       z     vdW  Elec       q    Type
REMARK                         _______ _______ _______ _____ _____    ______ ____
ROOT
ATOM      1  N   UNL     1      -3.069  10.495  17.298  0.00  0.00    +0.000 N 
ATOM      2  C   UNL     1      -4.279  11.143  17.702  0.00  0.00    +0.000 A 
ATOM      3  O   UNL     1      -5.357  11.041  17.141  0.00  0.00    +0.000 OA
ATOM      4  C   UNL     1      -3.989  11.928  18.970  0.00  0.00    +0.000 A 
ATOM      5  C   UNL     1      -4.804  12.444  19.933  0.00  0.00    +0.000 C 
ATOM      6  S   UNL     1      -6.562  12.550  19.676  0.00  0.00    +0.000 S 
ATOM      7  C   UNL     1      -6.718  13.458  21.222  0.00  0.00    +0.000 A 
ATOM      8  C   UNL     1      -7.910  14.002  21.697  0.00  0.00    +0.000 A 
ATOM      9  C   UNL     1      -7.917  14.635  22.936  0.00  0.00    +0.000 A 
ATOM     10  C   UNL     1      -6.739  14.721  23.674  0.00  0.00    +0.000 A 
ATOM     11  C   UNL     1      -5.527  14.214  23.175  0.00  0.00    +0.000 A 
ATOM     12 CL   UNL     1      -4.171  14.536  24.202  0.00  0.00    +0.000 Cl
ATOM     13  C   UNL     1      -5.491  13.560  21.927  0.00  0.00    +0.000 A 
ATOM     14  N   UNL     1      -4.411  12.986  21.205  0.00  0.00    +0.000 N 
ATOM     15  C   UNL     1      -3.137  12.733  21.857  0.00  0.00    +0.000 C 
ATOM     16  S   UNL     1      -2.266  12.151  19.049  0.00  0.00    +0.000 S 
ATOM     17  C   UNL     1      -1.965  10.762  18.066  0.00  0.00    +0.000 A 
ATOM     18  C   UNL     1      -0.791  10.096  18.146  0.00  0.00    +0.000 C 
ENDROOT
BRANCH  18  19
ATOM     19  C   UNL     1       0.110  10.354  19.228  0.00  0.00    +0.000 A 
ATOM     20  S   UNL     1      -0.261   9.763  20.817  0.00  0.00    +0.000 S 
ATOM     21  C   UNL     1       0.879  10.816  21.543  0.00  0.00    +0.000 A 
ATOM     22  C   UNL     1       1.588  11.481  20.571  0.00  0.00    +0.000 A 
ATOM     23  N   UNL     1       1.151  11.178  19.287  0.00  0.00    +0.000 N 
BRANCH  23  24
ATOM     24  C   UNL     1       1.723  11.888  18.142  0.00  0.00    +0.000 C 
BRANCH  24  25
ATOM     25  C   UNL     1       1.864  13.364  18.415  0.00  0.00    +0.000 A 
ATOM     26  C   UNL     1       3.100  13.999  18.226  0.00  0.00    +0.000 A 
ATOM     27  C   UNL     1       3.196  15.391  18.282  0.00  0.00    +0.000 A 
ATOM     28  C   UNL     1       2.068  16.160  18.551  0.00  0.00    +0.000 A 
ATOM     29  C   UNL     1       0.850  15.538  18.811  0.00  0.00    +0.000 A 
ATOM     30  C   UNL     1       0.746  14.148  18.753  0.00  0.00    +0.000 A 
ENDBRANCH  24  25
ENDBRANCH  23  24
ENDBRANCH  18  19
BRANCH   1  32
ATOM     31  C   UNL     1      -3.060  10.492  14.834  0.00  0.00    +0.000 C 
ATOM     32  C   UNL     1      -3.048   9.648  16.101  0.00  0.00    +0.000 C 
ENDBRANCH   1  32
TORSDOF 4
ENDMDL
MODEL 2
REMARK VINA RESULT:      -6.6      3.283      7.903
REMARK  Name = 
REMARK  6 active torsions:
REMARK  status: ('A' for Active; 'I' for Inactive)
REMARK    1  A    between atoms: C_1  and  C_2
REMARK    2  A    between atoms: C_2  and  N_3
REMARK    3  A    between atoms: N_16  and  C_17
REMARK    4  A    between atoms: C_20  and  C_21
REMARK    5  A    between atoms: N_25  and  C_26
REMARK    6  A    between atoms: C_26  and  C_27
REMARK                            x       y       z     vdW  Elec       q    Type
REMARK                         _______ _______ _______ _____ _____    ______ ____
ROOT
ATOM      1  N   UNL     1      -0.541  11.242  22.390  0.00  0.00    +0.000 N 
ATOM      2  C   UNL     1       0.571  11.685  21.605  0.00  0.00    +0.000 A 
ATOM      3  O   UNL     1       1.530  11.002  21.289  0.00  0.00    +0.000 OA
ATOM      4  C   UNL     1       0.312  13.127  21.199  0.00  0.00    +0.000 A 
ATOM      5  C   UNL     1       0.847  13.912  20.222  0.00  0.00    +0.000 C 
ATOM      6  S   UNL     1       2.317  13.409  19.354  0.00  0.00    +0.000 S 
ATOM      7  C   UNL     1       2.357  15.006  18.527  0.00  0.00    +0.000 A 
ATOM      8  C   UNL     1       3.372  15.420  17.665  0.00  0.00    +0.000 A 
ATOM      9  C   UNL     1       3.263  16.658  17.039  0.00  0.00    +0.000 A 
ATOM     10  C   UNL     1       2.154  17.462  17.288  0.00  0.00    +0.000 A 
ATOM     11  C   UNL     1       1.154  17.066  18.192  0.00  0.00    +0.000 A 
ATOM     12 CL   UNL     1      -0.067  18.269  18.439  0.00  0.00    +0.000 Cl
ATOM     13  C   UNL     1       1.232  15.814  18.834  0.00  0.00    +0.000 A 
ATOM     14  N   UNL     1       0.377  15.198  19.786  0.00  0.00    +0.000 N 
ATOM     15  C   UNL     1      -0.958  15.719  20.027  0.00  0.00    +0.000 C 
ATOM     16  S   UNL     1      -0.884  13.758  22.291  0.00  0.00    +0.000 S 
ATOM     17  C   UNL     1      -1.507  12.182  22.639  0.00  0.00    +0.000 A 
ATOM     18  C   UNL     1      -2.780  12.017  23.060  0.00  0.00    +0.000 C 
ENDROOT
BRANCH  18  19
ATOM     19  C   UNL     1      -3.717  13.096  22.964  0.00  0.00    +0.000 A 
ATOM     20  S   UNL     1      -4.414  13.763  24.406  0.00  0.00    +0.000 S 
ATOM     21  C   UNL     1      -5.665  14.530  23.521  0.00  0.00    +0.000 A 
ATOM     22  C   UNL     1      -5.451  14.371  22.173  0.00  0.00    +0.000 A 
ATOM     23  N   UNL     1      -4.337  13.587  21.895  0.00  0.00    +0.000 N 
BRANCH  23  24
ATOM     24  C   UNL     1      -4.035  13.224  20.511  0.00  0.00    +0.000 C 
BRANCH  24  25
ATOM     25  C   UNL     1      -5.117  12.361  19.912  0.00  0.00    +0.000 A 
ATOM     26  C   UNL     1      -5.016  11.929  18.581  0.00  0.00    +0.000 A 
ATOM     27  C   UNL     1      -5.902  10.974  18.079  0.00  0.00    +0.000 A 
ATOM     28  C   UNL     1      -6.910  10.459  18.889  0.00  0.00    +0.000 A 
ATOM     29  C   UNL     1      -7.065  10.932  20.190  0.00  0.00    +0.000 A 
ATOM     30  C   UNL     1      -6.180  11.884  20.700  0.00  0.00    +0.000 A 
ENDBRANCH  24  25
ENDBRANCH  23  24
ENDBRANCH  18  19
BRANCH   1  32
ATOM     31  C   UNL     1      -0.646   8.856  21.784  0.00  0.00    +0.000 C 
ATOM     32  C   UNL     1      -0.577   9.874  22.915  0.00  0.00    +0.000 C 
ENDBRANCH   1  32
TORSDOF 4
ENDMDL
MODEL 3
REMARK VINA RESULT:      -6.6      6.778     10.299
REMARK  Name = 
REMARK  6 active torsions:
REMARK  status: ('A' for Active; 'I' for Inactive)
REMARK    1  A    between atoms: C_1  and  C_2
REMARK    2  A    between atoms: C_2  and  N_3
REMARK    3  A    between atoms: N_16  and  C_17
REMARK    4  A    between atoms: C_20  and  C_21
REMARK    5  A    between atoms: N_25  and  C_26
REMARK    6  A    between atoms: C_26  and  C_27
REMARK                            x       y       z     vdW  Elec       q    Type
REMARK                         _______ _______ _______ _____ _____    ______ ____
ROOT
ATOM      1  N   UNL     1       7.274  14.252  22.670  0.00  0.00    +0.000 N 
ATOM      2  C   UNL     1       5.849  14.145  22.578  0.00  0.00    +0.000 A 
ATOM      3  O   UNL     1       5.116  13.707  23.447  0.00  0.00    +0.000 OA
ATOM      4  C   UNL     1       5.423  14.721  21.237  0.00  0.00    +0.000 A 
ATOM      5  C   UNL     1       4.220  15.160  20.771  0.00  0.00    +0.000 C 
ATOM      6  S   UNL     1       2.718  14.815  21.663  0.00  0.00    +0.000 S 
ATOM      7  C   UNL     1       1.769  15.523  20.308  0.00  0.00    +0.000 A 
ATOM      8  C   UNL     1       0.377  15.536  20.246  0.00  0.00    +0.000 A 
ATOM      9  C   UNL     1      -0.246  16.164  19.172  0.00  0.00    +0.000 A 
ATOM     10  C   UNL     1       0.527  16.760  18.178  0.00  0.00    +0.000 A 
ATOM     11  C   UNL     1       1.931  16.707  18.216  0.00  0.00    +0.000 A 
ATOM     12 CL   UNL     1       2.684  17.405  16.822  0.00  0.00    +0.000 Cl
ATOM     13  C   UNL     1       2.590  16.085  19.296  0.00  0.00    +0.000 A 
ATOM     14  N   UNL     1       3.971  15.886  19.556  0.00  0.00    +0.000 N 
ATOM     15  C   UNL     1       4.978  16.615  18.804  0.00  0.00    +0.000 C 
ATOM     16  S   UNL     1       6.829  14.727  20.214  0.00  0.00    +0.000 S 
ATOM     17  C   UNL     1       7.905  14.762  21.566  0.00  0.00    +0.000 A 
ATOM     18  C   UNL     1       9.153  15.268  21.446  0.00  0.00    +0.000 C 
ENDROOT
BRANCH  18  19
ATOM     19  C   UNL     1       9.513  16.030  20.288  0.00  0.00    +0.000 A 
ATOM     20  S   UNL     1       8.642  17.481  19.906  0.00  0.00    +0.000 S 
ATOM     21  C   UNL     1       9.242  17.494  18.302  0.00  0.00    +0.000 A 
ATOM     22  C   UNL     1      10.170  16.492  18.141  0.00  0.00    +0.000 A 
ATOM     23  N   UNL     1      10.318  15.709  19.279  0.00  0.00    +0.000 N 
BRANCH  23  24
ATOM     24  C   UNL     1      11.181  14.528  19.239  0.00  0.00    +0.000 C 
BRANCH  24  25
ATOM     25  C   UNL     1      10.377  13.253  19.181  0.00  0.00    +0.000 A 
ATOM     26  C   UNL     1       9.565  12.984  18.070  0.00  0.00    +0.000 A 
ATOM     27  C   UNL     1       8.977  11.728  17.912  0.00  0.00    +0.000 A 
ATOM     28  C   UNL     1       9.172  10.737  18.870  0.00  0.00    +0.000 A 
ATOM     29  C   UNL     1       9.918  11.015  20.013  0.00  0.00    +0.000 A 
ATOM     30  C   UNL     1      10.512  12.268  20.176  0.00  0.00    +0.000 A 
ENDBRANCH  24  25
ENDBRANCH  23  24
ENDBRANCH  18  19
BRANCH   1  32
ATOM     31  C   UNL     1       8.402  12.331  23.723  0.00  0.00    +0.000 C 
ATOM     32  C   UNL     1       7.973  13.784  23.871  0.00  0.00    +0.000 C 
ENDBRANCH   1  32
TORSDOF 4
ENDMDL
MODEL 4
REMARK VINA RESULT:      -6.5      3.222      7.956
REMARK  Name = 
REMARK  6 active torsions:
REMARK  status: ('A' for Active; 'I' for Inactive)
REMARK    1  A    between atoms: C_1  and  C_2
REMARK    2  A    between atoms: C_2  and  N_3
REMARK    3  A    between atoms: N_16  and  C_17
REMARK    4  A    between atoms: C_20  and  C_21
REMARK    5  A    between atoms: N_25  and  C_26
REMARK    6  A    between atoms: C_26  and  C_27
REMARK                            x       y       z     vdW  Elec       q    Type
REMARK                         _______ _______ _______ _____ _____    ______ ____
ROOT
ATOM      1  N   UNL     1      -0.549  11.184  21.865  0.00  0.00    +0.000 N 
ATOM      2  C   UNL     1       0.533  11.626  21.038  0.00  0.00    +0.000 A 
ATOM      3  O   UNL     1       1.399  10.910  20.567  0.00  0.00    +0.000 OA
ATOM      4  C   UNL     1       0.372  13.121  20.815  0.00  0.00    +0.000 A 
ATOM      5  C   UNL     1       0.896  13.969  19.886  0.00  0.00    +0.000 C 
ATOM      6  S   UNL     1       2.242  13.454  18.842  0.00  0.00    +0.000 S 
ATOM      7  C   UNL     1       2.359  15.128  18.193  0.00  0.00    +0.000 A 
ATOM      8  C   UNL     1       3.335  15.557  17.295  0.00  0.00    +0.000 A 
ATOM      9  C   UNL     1       3.288  16.864  16.819  0.00  0.00    +0.000 A 
ATOM     10  C   UNL     1       2.278  17.719  17.251  0.00  0.00    +0.000 A 
ATOM     11  C   UNL     1       1.321  17.302  18.192  0.00  0.00    +0.000 A 
ATOM     12 CL   UNL     1       0.235  18.561  18.674  0.00  0.00    +0.000 Cl
ATOM     13  C   UNL     1       1.338  15.981  18.685  0.00  0.00    +0.000 A 
ATOM     14  N   UNL     1       0.509  15.330  19.636  0.00  0.00    +0.000 N 
ATOM     15  C   UNL     1      -0.751  15.924  20.048  0.00  0.00    +0.000 C 
ATOM     16  S   UNL     1      -0.675  13.714  22.071  0.00  0.00    +0.000 S 
ATOM     17  C   UNL     1      -1.405  12.163  22.299  0.00  0.00    +0.000 A 
ATOM     18  C   UNL     1      -2.651  12.052  22.810  0.00  0.00    +0.000 C 
ENDROOT
BRANCH  18  19
ATOM     19  C   UNL     1      -3.493  13.206  22.915  0.00  0.00    +0.000 A 
ATOM     20  S   UNL     1      -3.945  13.804  24.480  0.00  0.00    +0.000 S 
ATOM     21  C   UNL     1      -5.223  14.737  23.823  0.00  0.00    +0.000 A 
ATOM     22  C   UNL     1      -5.191  14.674  22.449  0.00  0.00    +0.000 A 
ATOM     23  N   UNL     1      -4.194  13.831  21.974  0.00  0.00    +0.000 N 
BRANCH  23  24
ATOM     24  C   UNL     1      -4.098  13.561  20.539  0.00  0.00    +0.000 C 
BRANCH  24  25
ATOM     25  C   UNL     1      -5.020  12.443  20.120  0.00  0.00    +0.000 A 
ATOM     26  C   UNL     1      -6.159  12.149  20.882  0.00  0.00    +0.000 A 
ATOM     27  C   UNL     1      -7.120  11.257  20.402  0.00  0.00    +0.000 A 
ATOM     28  C   UNL     1      -6.943  10.633  19.170  0.00  0.00    +0.000 A 
ATOM     29  C   UNL     1      -5.782  10.863  18.436  0.00  0.00    +0.000 A 
ATOM     30  C   UNL     1      -4.819  11.756  18.909  0.00  0.00    +0.000 A 
ENDBRANCH  24  25
ENDBRANCH  23  24
ENDBRANCH  18  19
BRANCH   1  32
ATOM     31  C   UNL     1       0.077   9.488  23.539  0.00  0.00    +0.000 C 
ATOM     32  C   UNL     1      -0.665   9.771  22.239  0.00  0.00    +0.000 C 
ENDBRANCH   1  32
TORSDOF 4
ENDMDL
MODEL 5
REMARK VINA RESULT:      -6.3      3.663      6.018
REMARK  Name = 
REMARK  6 active torsions:
REMARK  status: ('A' for Active; 'I' for Inactive)
REMARK    1  A    between atoms: C_1  and  C_2
REMARK    2  A    between atoms: C_2  and  N_3
REMARK    3  A    between atoms: N_16  and  C_17
REMARK    4  A    between atoms: C_20  and  C_21
REMARK    5  A    between atoms: N_25  and  C_26
REMARK    6  A    between atoms: C_26  and  C_27
REMARK                            x       y       z     vdW  Elec       q    Type
REMARK                         _______ _______ _______ _____ _____    ______ ____
ROOT
ATOM      1  N   UNL     1       2.019  14.558  21.562  0.00  0.00    +0.000 N 
ATOM      2  C   UNL     1       1.338  15.380  22.516  0.00  0.00    +0.000 A 
ATOM      3  O   UNL     1       1.838  16.300  23.140  0.00  0.00    +0.000 OA
ATOM      4  C   UNL     1      -0.114  14.935  22.565  0.00  0.00    +0.000 A 
ATOM      5  C   UNL     1      -1.243  15.543  23.027  0.00  0.00    +0.000 C 
ATOM      6  S   UNL     1      -1.139  17.007  24.035  0.00  0.00    +0.000 S 
ATOM      7  C   UNL     1      -2.917  16.935  24.297  0.00  0.00    +0.000 A 
ATOM      8  C   UNL     1      -3.625  17.798  25.132  0.00  0.00    +0.000 A 
ATOM      9  C   UNL     1      -5.009  17.679  25.209  0.00  0.00    +0.000 A 
ATOM     10  C   UNL     1      -5.661  16.702  24.462  0.00  0.00    +0.000 A 
ATOM     11  C   UNL     1      -4.944  15.801  23.655  0.00  0.00    +0.000 A 
ATOM     12 CL   UNL     1      -5.943  14.598  22.912  0.00  0.00    +0.000 Cl
ATOM     13  C   UNL     1      -3.542  15.903  23.550  0.00  0.00    +0.000 A 
ATOM     14  N   UNL     1      -2.602  15.119  22.830  0.00  0.00    +0.000 N 
ATOM     15  C   UNL     1      -3.043  14.201  21.794  0.00  0.00    +0.000 C 
ATOM     16  S   UNL     1      -0.178  13.328  21.903  0.00  0.00    +0.000 S 
ATOM     17  C   UNL     1       1.268  13.568  20.985  0.00  0.00    +0.000 A 
ATOM     18  C   UNL     1       1.505  12.850  19.865  0.00  0.00    +0.000 C 
ENDROOT
BRANCH  18  19
ATOM     19  C   UNL     1       0.455  12.083  19.265  0.00  0.00    +0.000 A 
ATOM     20  S   UNL     1      -0.692  12.862  18.221  0.00  0.00    +0.000 S 
ATOM     21  C   UNL     1      -1.786  11.549  18.340  0.00  0.00    +0.000 A 
ATOM     22  C   UNL     1      -1.210  10.521  19.048  0.00  0.00    +0.000 A 
ATOM     23  N   UNL     1       0.054  10.843  19.527  0.00  0.00    +0.000 N 
BRANCH  23  24
ATOM     24  C   UNL     1       0.759   9.902  20.399  0.00  0.00    +0.000 C 
BRANCH  24  25
ATOM     25  C   UNL     1       1.427   8.805  19.610  0.00  0.00    +0.000 A 
ATOM     26  C   UNL     1       1.836   9.038  18.289  0.00  0.00    +0.000 A 
ATOM     27  C   UNL     1       2.629   8.105  17.619  0.00  0.00    +0.000 A 
ATOM     28  C   UNL     1       3.001   6.921  18.249  0.00  0.00    +0.000 A 
ATOM     29  C   UNL     1       2.543   6.645  19.535  0.00  0.00    +0.000 A 
ATOM     30  C   UNL     1       1.753   7.576  20.212  0.00  0.00    +0.000 A 
ENDBRANCH  24  25
ENDBRANCH  23  24
ENDBRANCH  18  19
BRANCH   1  32
ATOM     31  C   UNL     1       3.646  15.813  20.201  0.00  0.00    +0.000 C 
ATOM     32  C   UNL     1       3.445  14.768  21.290  0.00  0.00    +0.000 C 
ENDBRANCH   1  32
TORSDOF 4
ENDMDL
MODEL 6
REMARK VINA RESULT:      -6.2      8.272     12.261
REMARK  Name = 
REMARK  6 active torsions:
REMARK  status: ('A' for Active; 'I' for Inactive)
REMARK    1  A    between atoms: C_1  and  C_2
REMARK    2  A    between atoms: C_2  and  N_3
REMARK    3  A    between atoms: N_16  and  C_17
REMARK    4  A    between atoms: C_20  and  C_21
REMARK    5  A    between atoms: N_25  and  C_26
REMARK    6  A    between atoms: C_26  and  C_27
REMARK                            x       y       z     vdW  Elec       q    Type
REMARK                         _______ _______ _______ _____ _____    ______ ____
ROOT
ATOM      1  N   UNL     1       6.732  12.574  24.235  0.00  0.00    +0.000 N 
ATOM      2  C   UNL     1       7.773  12.042  23.409  0.00  0.00    +0.000 A 
ATOM      3  O   UNL     1       8.255  10.927  23.510  0.00  0.00    +0.000 OA
ATOM      4  C   UNL     1       8.123  13.089  22.365  0.00  0.00    +0.000 A 
ATOM      5  C   UNL     1       8.778  13.010  21.173  0.00  0.00    +0.000 C 
ATOM      6  S   UNL     1       9.695  11.548  20.735  0.00  0.00    +0.000 S 
ATOM      7  C   UNL     1      10.306  12.389  19.266  0.00  0.00    +0.000 A 
ATOM      8  C   UNL     1      11.235  11.848  18.379  0.00  0.00    +0.000 A 
ATOM      9  C   UNL     1      11.587  12.572  17.245  0.00  0.00    +0.000 A 
ATOM     10  C   UNL     1      11.017  13.823  17.020  0.00  0.00    +0.000 A 
ATOM     11  C   UNL     1      10.116  14.389  17.937  0.00  0.00    +0.000 A 
ATOM     12 CL   UNL     1       9.626  15.996  17.517  0.00  0.00    +0.000 Cl
ATOM     13  C   UNL     1       9.732  13.675  19.090  0.00  0.00    +0.000 A 
ATOM     14  N   UNL     1       8.868  14.026  20.160  0.00  0.00    +0.000 N 
ATOM     15  C   UNL     1       7.971  15.163  20.044  0.00  0.00    +0.000 C 
ATOM     16  S   UNL     1       7.542  14.616  22.960  0.00  0.00    +0.000 S 
ATOM     17  C   UNL     1       6.349  13.860  23.956  0.00  0.00    +0.000 A 
ATOM     18  C   UNL     1       5.229  14.522  24.322  0.00  0.00    +0.000 C 
ENDROOT
BRANCH  18  19
ATOM     19  C   UNL     1       4.874  15.749  23.675  0.00  0.00    +0.000 A 
ATOM     20  S   UNL     1       5.376  17.262  24.362  0.00  0.00    +0.000 S 
ATOM     21  C   UNL     1       4.242  18.136  23.422  0.00  0.00    +0.000 A 
ATOM     22  C   UNL     1       3.616  17.291  22.537  0.00  0.00    +0.000 A 
ATOM     23  N   UNL     1       4.013  15.968  22.686  0.00  0.00    +0.000 N 
BRANCH  23  24
ATOM     24  C   UNL     1       3.357  14.922  21.899  0.00  0.00    +0.000 C 
BRANCH  24  25
ATOM     25  C   UNL     1       3.493  15.172  20.418  0.00  0.00    +0.000 A 
ATOM     26  C   UNL     1       4.420  16.114  19.946  0.00  0.00    +0.000 A 
ATOM     27  C   UNL     1       4.696  16.210  18.581  0.00  0.00    +0.000 A 
ATOM     28  C   UNL     1       4.035  15.388  17.673  0.00  0.00    +0.000 A 
ATOM     29  C   UNL     1       3.062  14.499  18.122  0.00  0.00    +0.000 A 
ATOM     30  C   UNL     1       2.783  14.395  19.486  0.00  0.00    +0.000 A 
ENDBRANCH  24  25
ENDBRANCH  23  24
ENDBRANCH  18  19
BRANCH   1  32
ATOM     31  C   UNL     1       6.956  11.997  26.620  0.00  0.00    +0.000 C 
ATOM     32  C   UNL     1       6.177  11.774  25.331  0.00  0.00    +0.000 C 
ENDBRANCH   1  32
TORSDOF 4
ENDMDL
MODEL 7
REMARK VINA RESULT:      -6.1      8.885     11.569
REMARK  Name = 
REMARK  6 active torsions:
REMARK  status: ('A' for Active; 'I' for Inactive)
REMARK    1  A    between atoms: C_1  and  C_2
REMARK    2  A    between atoms: C_2  and  N_3
REMARK    3  A    between atoms: N_16  and  C_17
REMARK    4  A    between atoms: C_20  and  C_21
REMARK    5  A    between atoms: N_25  and  C_26
REMARK    6  A    between atoms: C_26  and  C_27
REMARK                            x       y       z     vdW  Elec       q    Type
REMARK                         _______ _______ _______ _____ _____    ______ ____
ROOT
ATOM      1  N   UNL     1       5.773  15.009  18.992  0.00  0.00    +0.000 N 
ATOM      2  C   UNL     1       5.306  14.938  20.343  0.00  0.00    +0.000 A 
ATOM      3  O   UNL     1       4.199  14.563  20.689  0.00  0.00    +0.000 OA
ATOM      4  C   UNL     1       6.446  15.361  21.255  0.00  0.00    +0.000 A 
ATOM      5  C   UNL     1       6.667  15.178  22.587  0.00  0.00    +0.000 C 
ATOM      6  S   UNL     1       5.364  14.606  23.656  0.00  0.00    +0.000 S 
ATOM      7  C   UNL     1       6.435  14.864  25.077  0.00  0.00    +0.000 A 
ATOM      8  C   UNL     1       6.039  14.691  26.403  0.00  0.00    +0.000 A 
ATOM      9  C   UNL     1       6.977  14.866  27.416  0.00  0.00    +0.000 A 
ATOM     10  C   UNL     1       8.285  15.218  27.093  0.00  0.00    +0.000 A 
ATOM     11  C   UNL     1       8.673  15.439  25.760  0.00  0.00    +0.000 A 
ATOM     12 CL   UNL     1      10.309  15.983  25.602  0.00  0.00    +0.000 Cl
ATOM     13  C   UNL     1       7.748  15.260  24.712  0.00  0.00    +0.000 A 
ATOM     14  N   UNL     1       7.883  15.433  23.309  0.00  0.00    +0.000 N 
ATOM     15  C   UNL     1       9.197  15.560  22.703  0.00  0.00    +0.000 C 
ATOM     16  S   UNL     1       7.576  16.253  20.280  0.00  0.00    +0.000 S 
ATOM     17  C   UNL     1       7.051  15.476  18.827  0.00  0.00    +0.000 A 
ATOM     18  C   UNL     1       7.873  15.375  17.759  0.00  0.00    +0.000 C 
ENDROOT
BRANCH  18  19
ATOM     19  C   UNL     1       9.271  15.656  17.897  0.00  0.00    +0.000 A 
ATOM     20  S   UNL     1       9.797  17.284  18.190  0.00  0.00    +0.000 S 
ATOM     21  C   UNL     1      11.408  16.909  17.742  0.00  0.00    +0.000 A 
ATOM     22  C   UNL     1      11.529  15.559  17.511  0.00  0.00    +0.000 A 
ATOM     23  N   UNL     1      10.321  14.884  17.633  0.00  0.00    +0.000 N 
BRANCH  23  24
ATOM     24  C   UNL     1      10.251  13.459  17.307  0.00  0.00    +0.000 C 
BRANCH  24  25
ATOM     25  C   UNL     1      10.126  12.609  18.547  0.00  0.00    +0.000 A 
ATOM     26  C   UNL     1      10.356  13.173  19.811  0.00  0.00    +0.000 A 
ATOM     27  C   UNL     1      10.051  12.456  20.970  0.00  0.00    +0.000 A 
ATOM     28  C   UNL     1       9.539  11.165  20.881  0.00  0.00    +0.000 A 
ATOM     29  C   UNL     1       9.373  10.569  19.634  0.00  0.00    +0.000 A 
ATOM     30  C   UNL     1       9.673  11.281  18.471  0.00  0.00    +0.000 A 
ENDBRANCH  24  25
ENDBRANCH  23  24
ENDBRANCH  18  19
BRANCH   1  32
ATOM     31  C   UNL     1       3.897  15.761  17.582  0.00  0.00    +0.000 C 
ATOM     32  C   UNL     1       4.886  14.643  17.883  0.00  0.00    +0.000 C 
ENDBRANCH   1  32
TORSDOF 4
ENDMDL
MODEL 8
REMARK VINA RESULT:      -6.1      3.156      5.409
REMARK  Name = 
REMARK  6 active torsions:
REMARK  status: ('A' for Active; 'I' for Inactive)
REMARK    1  A    between atoms: C_1  and  C_2
REMARK    2  A    between atoms: C_2  and  N_3
REMARK    3  A    between atoms: N_16  and  C_17
REMARK    4  A    between atoms: C_20  and  C_21
REMARK    5  A    between atoms: N_25  and  C_26
REMARK    6  A    between atoms: C_26  and  C_27
REMARK                            x       y       z     vdW  Elec       q    Type
REMARK                         _______ _______ _______ _____ _____    ______ ____
ROOT
ATOM      1  N   UNL     1       0.583  14.317  21.739  0.00  0.00    +0.000 N 
ATOM      2  C   UNL     1      -0.455  14.924  22.516  0.00  0.00    +0.000 A 
ATOM      3  O   UNL     1      -0.319  15.894  23.241  0.00  0.00    +0.000 OA
ATOM      4  C   UNL     1      -1.749  14.180  22.231  0.00  0.00    +0.000 A 
ATOM      5  C   UNL     1      -3.057  14.510  22.427  0.00  0.00    +0.000 C 
ATOM      6  S   UNL     1      -3.500  15.907  23.437  0.00  0.00    +0.000 S 
ATOM      7  C   UNL     1      -5.233  15.446  23.287  0.00  0.00    +0.000 A 
ATOM      8  C   UNL     1      -6.279  16.094  23.942  0.00  0.00    +0.000 A 
ATOM      9  C   UNL     1      -7.585  15.681  23.702  0.00  0.00    +0.000 A 
ATOM     10  C   UNL     1      -7.826  14.630  22.821  0.00  0.00    +0.000 A 
ATOM     11  C   UNL     1      -6.770  13.946  22.196  0.00  0.00    +0.000 A 
ATOM     12 CL   UNL     1      -7.292  12.600  21.240  0.00  0.00    +0.000 Cl
ATOM     13  C   UNL     1      -5.436  14.347  22.413  0.00  0.00    +0.000 A 
ATOM     14  N   UNL     1      -4.213  13.820  21.923  0.00  0.00    +0.000 N 
ATOM     15  C   UNL     1      -4.202  12.886  20.810  0.00  0.00    +0.000 C 
ATOM     16  S   UNL     1      -1.313  12.634  21.565  0.00  0.00    +0.000 S 
ATOM     17  C   UNL     1       0.212  13.222  21.002  0.00  0.00    +0.000 A 
ATOM     18  C   UNL     1       0.843  12.632  19.962  0.00  0.00    +0.000 C 
ENDROOT
BRANCH  18  19
ATOM     19  C   UNL     1       0.144  11.694  19.135  0.00  0.00    +0.000 A 
ATOM     20  S   UNL     1      -0.938  12.268  17.907  0.00  0.00    +0.000 S 
ATOM     21  C   UNL     1      -1.682  10.731  17.756  0.00  0.00    +0.000 A 
ATOM     22  C   UNL     1      -1.017   9.811  18.532  0.00  0.00    +0.000 A 
ATOM     23  N   UNL     1       0.016  10.377  19.269  0.00  0.00    +0.000 N 
BRANCH  23  24
ATOM     24  C   UNL     1       0.751   9.558  20.234  0.00  0.00    +0.000 C 
BRANCH  24  25
ATOM     25  C   UNL     1       1.668   8.577  19.548  0.00  0.00    +0.000 A 
ATOM     26  C   UNL     1       1.922   7.327  20.131  0.00  0.00    +0.000 A 
ATOM     27  C   UNL     1       2.602   6.339  19.416  0.00  0.00    +0.000 A 
ATOM     28  C   UNL     1       3.057   6.595  18.126  0.00  0.00    +0.000 A 
ATOM     29  C   UNL     1       2.873   7.856  17.563  0.00  0.00    +0.000 A 
ATOM     30  C   UNL     1       2.190   8.847  18.270  0.00  0.00    +0.000 A 
ENDBRANCH  24  25
ENDBRANCH  23  24
ENDBRANCH  18  19
BRANCH   1  32
ATOM     31  C   UNL     1       2.152  15.968  20.800  0.00  0.00    +0.000 C 
ATOM     32  C   UNL     1       1.952  14.837  21.800  0.00  0.00    +0.000 C 
ENDBRANCH   1  32
TORSDOF 4
ENDMDL
MODEL 9
REMARK VINA RESULT:      -6.1      2.895      5.007
REMARK  Name = 
REMARK  6 active torsions:
REMARK  status: ('A' for Active; 'I' for Inactive)
REMARK    1  A    between atoms: C_1  and  C_2
REMARK    2  A    between atoms: C_2  and  N_3
REMARK    3  A    between atoms: N_16  and  C_17
REMARK    4  A    between atoms: C_20  and  C_21
REMARK    5  A    between atoms: N_25  and  C_26
REMARK    6  A    between atoms: C_26  and  C_27
REMARK                            x       y       z     vdW  Elec       q    Type
REMARK                         _______ _______ _______ _____ _____    ______ ____
ROOT
ATOM      1  N   UNL     1      -0.232  15.206  19.520  0.00  0.00    +0.000 N 
ATOM      2  C   UNL     1      -1.147  15.944  20.337  0.00  0.00    +0.000 A 
ATOM      3  O   UNL     1      -1.058  17.131  20.602  0.00  0.00    +0.000 OA
ATOM      4  C   UNL     1      -2.262  15.002  20.760  0.00  0.00    +0.000 A 
ATOM      5  C   UNL     1      -3.515  15.227  21.245  0.00  0.00    +0.000 C 
ATOM      6  S   UNL     1      -3.995  16.847  21.806  0.00  0.00    +0.000 S 
ATOM      7  C   UNL     1      -5.553  16.165  22.395  0.00  0.00    +0.000 A 
ATOM      8  C   UNL     1      -6.516  16.891  23.093  0.00  0.00    +0.000 A 
ATOM      9  C   UNL     1      -7.708  16.268  23.446  0.00  0.00    +0.000 A 
ATOM     10  C   UNL     1      -7.916  14.934  23.106  0.00  0.00    +0.000 A 
ATOM     11  C   UNL     1      -6.927  14.187  22.443  0.00  0.00    +0.000 A 
ATOM     12 CL   UNL     1      -7.351  12.522  22.227  0.00  0.00    +0.000 Cl
ATOM     13  C   UNL     1      -5.713  14.794  22.064  0.00  0.00    +0.000 A 
ATOM     14  N   UNL     1      -4.569  14.264  21.413  0.00  0.00    +0.000 N 
ATOM     15  C   UNL     1      -4.628  12.975  20.745  0.00  0.00    +0.000 C 
ATOM     16  S   UNL     1      -1.665  13.382  20.556  0.00  0.00    +0.000 S 
ATOM     17  C   UNL     1      -0.515  13.875  19.362  0.00  0.00    +0.000 A 
ATOM     18  C   UNL     1      -0.054  13.000  18.441  0.00  0.00    +0.000 C 
ENDROOT
BRANCH  18  19
ATOM     19  C   UNL     1      -0.704  11.737  18.258  0.00  0.00    +0.000 A 
ATOM     20  S   UNL     1      -2.205  11.659  17.390  0.00  0.00    +0.000 S 
ATOM     21  C   UNL     1      -2.550  10.097  18.004  0.00  0.00    +0.000 A 
ATOM     22  C   UNL     1      -1.480   9.632  18.732  0.00  0.00    +0.000 A 
ATOM     23  N   UNL     1      -0.454  10.564  18.831  0.00  0.00    +0.000 N 
BRANCH  23  24
ATOM     24  C   UNL     1       0.710  10.273  19.669  0.00  0.00    +0.000 C 
BRANCH  24  25
ATOM     25  C   UNL     1       1.428   9.027  19.212  0.00  0.00    +0.000 A 
ATOM     26  C   UNL     1       2.017   8.982  17.940  0.00  0.00    +0.000 A 
ATOM     27  C   UNL     1       2.849   7.920  17.583  0.00  0.00    +0.000 A 
ATOM     28  C   UNL     1       3.083   6.881  18.480  0.00  0.00    +0.000 A 
ATOM     29  C   UNL     1       2.447   6.879  19.720  0.00  0.00    +0.000 A 
ATOM     30  C   UNL     1       1.616   7.940  20.084  0.00  0.00    +0.000 A 
ENDBRANCH  24  25
ENDBRANCH  23  24
ENDBRANCH  18  19
BRANCH   1  32
ATOM     31  C   UNL     1       2.194  15.557  19.769  0.00  0.00    +0.000 C 
ATOM     32  C   UNL     1       0.948  15.865  18.951  0.00  0.00    +0.000 C 
ENDBRANCH   1  32
TORSDOF 4
ENDMDL
