MODEL 1
REMARK VINA RESULT:      -5.3      0.000      0.000
REMARK  Name = 
REMARK  14 active torsions:
REMARK  status: ('A' for Active; 'I' for Inactive)
REMARK    1  A    between atoms: C_2  and  C_3
REMARK    2  A    between atoms: C_3  and  N_4
REMARK    3  A    between atoms: N_4  and  C_5
REMARK    4  A    between atoms: C_5  and  O_7
REMARK    5  A    between atoms: O_7  and  C_8
REMARK    6  A    between atoms: C_8  and  C_9
REMARK    7  A    between atoms: C_9  and  C_10
REMARK    8  A    between atoms: C_10  and  C_11
REMARK    9  A    between atoms: C_11  and  C_12
REMARK   10  A    between atoms: C_12  and  C_13
REMARK   11  A    between atoms: C_13  and  C_14
REMARK   12  A    between atoms: C_14  and  C_15
REMARK   13  A    between atoms: C_15  and  C_16
REMARK   14  A    between atoms: C_16  and  C_17
REMARK                            x       y       z     vdW  Elec       q    Type
REMARK                         _______ _______ _______ _____ _____    ______ ____
ROOT
ATOM      1  C   UNL     1       5.401   4.325  18.221  0.00  0.00    +0.000 C 
ENDROOT
BRANCH   1   2
ATOM      2  O   UNL     1       6.635   4.341  17.478  0.00  0.00    +0.000 OA
BRANCH   2   3
ATOM      3  C   UNL     1       7.037   5.464  16.829  0.00  0.00    +0.000 C 
ATOM      4  S   UNL     1       7.320   6.936  17.547  0.00  0.00    +0.000 S 
BRANCH   3   5
ATOM      5  N   UNL     1       7.212   5.301  15.490  0.00  0.00    +0.000 N 
ATOM      6  H   UNL     1       8.172   5.295  15.169  0.00  0.00    +0.000 HD
BRANCH   5   7
ATOM      7  C   UNL     1       6.159   5.273  14.507  0.00  0.00    +0.000 C 
BRANCH   7   9
ATOM      8  C   UNL     1       6.239   3.526  12.706  0.00  0.00    +0.000 C 
ATOM      9  C   UNL     1       6.097   3.871  13.990  0.00  0.00    +0.000 C 
ENDBRANCH   7   9
ENDBRANCH   5   7
ENDBRANCH   3   5
ENDBRANCH   2   3
ENDBRANCH   1   2
BRANCH   1  10
ATOM     10  C   UNL     1       4.219   4.357  17.256  0.00  0.00    +0.000 C 
BRANCH  10  11
ATOM     11  C   UNL     1       3.283   3.163  17.457  0.00  0.00    +0.000 C 
BRANCH  11  12
ATOM     12  C   UNL     1       1.821   3.591  17.601  0.00  0.00    +0.000 C 
BRANCH  12  13
ATOM     13  C   UNL     1       1.028   2.646  18.503  0.00  0.00    +0.000 C 
BRANCH  13  14
ATOM     14  C   UNL     1       1.742   2.486  19.845  0.00  0.00    +0.000 C 
BRANCH  14  15
ATOM     15  C   UNL     1       1.264   3.520  20.863  0.00  0.00    +0.000 C 
BRANCH  15  16
ATOM     16  C   UNL     1       2.279   4.653  21.007  0.00  0.00    +0.000 C 
BRANCH  16  17
ATOM     17  C   UNL     1       1.677   5.989  20.584  0.00  0.00    +0.000 C 
ATOM     18  C   UNL     1       2.564   6.702  19.577  0.00  0.00    +0.000 C 
ENDBRANCH  16  17
ENDBRANCH  15  16
ENDBRANCH  14  15
ENDBRANCH  13  14
ENDBRANCH  12  13
ENDBRANCH  11  12
ENDBRANCH  10  11
ENDBRANCH   1  10
TORSDOF 13
ENDMDL
MODEL 2
REMARK VINA RESULT:      -5.1      1.003      2.471
REMARK  Name = 
REMARK  14 active torsions:
REMARK  status: ('A' for Active; 'I' for Inactive)
REMARK    1  A    between atoms: C_2  and  C_3
REMARK    2  A    between atoms: C_3  and  N_4
REMARK    3  A    between atoms: N_4  and  C_5
REMARK    4  A    between atoms: C_5  and  O_7
REMARK    5  A    between atoms: O_7  and  C_8
REMARK    6  A    between atoms: C_8  and  C_9
REMARK    7  A    between atoms: C_9  and  C_10
REMARK    8  A    between atoms: C_10  and  C_11
REMARK    9  A    between atoms: C_11  and  C_12
REMARK   10  A    between atoms: C_12  and  C_13
REMARK   11  A    between atoms: C_13  and  C_14
REMARK   12  A    between atoms: C_14  and  C_15
REMARK   13  A    between atoms: C_15  and  C_16
REMARK   14  A    between atoms: C_16  and  C_17
REMARK                            x       y       z     vdW  Elec       q    Type
REMARK                         _______ _______ _______ _____ _____    ______ ____
ROOT
ATOM      1  C   UNL     1       4.961   5.769  18.618  0.00  0.00    +0.000 C 
ENDROOT
BRANCH   1   2
ATOM      2  O   UNL     1       6.159   5.266  17.996  0.00  0.00    +0.000 OA
BRANCH   2   3
ATOM      3  C   UNL     1       6.914   6.066  17.201  0.00  0.00    +0.000 C 
ATOM      4  S   UNL     1       7.454   7.586  17.606  0.00  0.00    +0.000 S 
BRANCH   3   5
ATOM      5  N   UNL     1       7.227   5.518  15.996  0.00  0.00    +0.000 N 
ATOM      6  H   UNL     1       7.709   6.128  15.347  0.00  0.00    +0.000 HD
BRANCH   5   7
ATOM      7  C   UNL     1       6.816   4.216  15.538  0.00  0.00    +0.000 C 
BRANCH   7   9
ATOM      8  C   UNL     1       5.993   3.729  13.216  0.00  0.00    +0.000 C 
ATOM      9  C   UNL     1       5.938   4.440  14.347  0.00  0.00    +0.000 C 
ENDBRANCH   7   9
ENDBRANCH   5   7
ENDBRANCH   3   5
ENDBRANCH   2   3
ENDBRANCH   1   2
BRANCH   1  10
ATOM     10  C   UNL     1       3.898   6.024  17.552  0.00  0.00    +0.000 C 
BRANCH  10  11
ATOM     11  C   UNL     1       2.509   6.224  18.165  0.00  0.00    +0.000 C 
BRANCH  11  12
ATOM     12  C   UNL     1       2.579   6.807  19.578  0.00  0.00    +0.000 C 
BRANCH  12  13
ATOM     13  C   UNL     1       1.622   6.106  20.541  0.00  0.00    +0.000 C 
BRANCH  13  14
ATOM     14  C   UNL     1       2.024   4.639  20.697  0.00  0.00    +0.000 C 
BRANCH  14  15
ATOM     15  C   UNL     1       0.930   3.699  20.197  0.00  0.00    +0.000 C 
BRANCH  15  16
ATOM     16  C   UNL     1       1.490   2.304  19.926  0.00  0.00    +0.000 C 
BRANCH  16  17
ATOM     17  C   UNL     1       2.812   2.380  19.167  0.00  0.00    +0.000 C 
ATOM     18  C   UNL     1       2.584   2.546  17.674  0.00  0.00    +0.000 C 
ENDBRANCH  16  17
ENDBRANCH  15  16
ENDBRANCH  14  15
ENDBRANCH  13  14
ENDBRANCH  12  13
ENDBRANCH  11  12
ENDBRANCH  10  11
ENDBRANCH   1  10
TORSDOF 13
ENDMDL
MODEL 3
REMARK VINA RESULT:      -5.1      1.761      2.813
REMARK  Name = 
REMARK  14 active torsions:
REMARK  status: ('A' for Active; 'I' for Inactive)
REMARK    1  A    between atoms: C_2  and  C_3
REMARK    2  A    between atoms: C_3  and  N_4
REMARK    3  A    between atoms: N_4  and  C_5
REMARK    4  A    between atoms: C_5  and  O_7
REMARK    5  A    between atoms: O_7  and  C_8
REMARK    6  A    between atoms: C_8  and  C_9
REMARK    7  A    between atoms: C_9  and  C_10
REMARK    8  A    between atoms: C_10  and  C_11
REMARK    9  A    between atoms: C_11  and  C_12
REMARK   10  A    between atoms: C_12  and  C_13
REMARK   11  A    between atoms: C_13  and  C_14
REMARK   12  A    between atoms: C_14  and  C_15
REMARK   13  A    between atoms: C_15  and  C_16
REMARK   14  A    between atoms: C_16  and  C_17
REMARK                            x       y       z     vdW  Elec       q    Type
REMARK                         _______ _______ _______ _____ _____    ______ ____
ROOT
ATOM      1  C   UNL     1       4.418   4.271  16.162  0.00  0.00    +0.000 C 
ENDROOT
BRANCH   1   2
ATOM      2  O   UNL     1       5.472   5.193  16.497  0.00  0.00    +0.000 OA
BRANCH   2   3
ATOM      3  C   UNL     1       6.729   5.010  16.019  0.00  0.00    +0.000 C 
ATOM      4  S   UNL     1       7.119   4.740  14.425  0.00  0.00    +0.000 S 
BRANCH   3   5
ATOM      5  N   UNL     1       7.701   5.072  16.969  0.00  0.00    +0.000 N 
ATOM      6  H   UNL     1       8.615   4.740  16.686  0.00  0.00    +0.000 HD
BRANCH   5   7
ATOM      7  C   UNL     1       7.500   5.439  18.348  0.00  0.00    +0.000 C 
BRANCH   7   9
ATOM      8  C   UNL     1       7.729   7.867  17.754  0.00  0.00    +0.000 C 
ATOM      9  C   UNL     1       8.064   6.815  18.508  0.00  0.00    +0.000 C 
ENDBRANCH   7   9
ENDBRANCH   5   7
ENDBRANCH   3   5
ENDBRANCH   2   3
ENDBRANCH   1   2
BRANCH   1  10
ATOM     10  C   UNL     1       4.091   3.401  17.373  0.00  0.00    +0.000 C 
BRANCH  10  11
ATOM     11  C   UNL     1       2.617   2.990  17.402  0.00  0.00    +0.000 C 
BRANCH  11  12
ATOM     12  C   UNL     1       2.289   2.098  18.601  0.00  0.00    +0.000 C 
BRANCH  12  13
ATOM     13  C   UNL     1       0.937   2.443  19.224  0.00  0.00    +0.000 C 
BRANCH  13  14
ATOM     14  C   UNL     1       1.145   3.106  20.586  0.00  0.00    +0.000 C 
BRANCH  14  15
ATOM     15  C   UNL     1       1.050   4.627  20.491  0.00  0.00    +0.000 C 
BRANCH  15  16
ATOM     16  C   UNL     1       2.437   5.253  20.348  0.00  0.00    +0.000 C 
BRANCH  16  17
ATOM     17  C   UNL     1       2.347   6.669  19.786  0.00  0.00    +0.000 C 
ATOM     18  C   UNL     1       2.662   6.696  18.300  0.00  0.00    +0.000 C 
ENDBRANCH  16  17
ENDBRANCH  15  16
ENDBRANCH  14  15
ENDBRANCH  13  14
ENDBRANCH  12  13
ENDBRANCH  11  12
ENDBRANCH  10  11
ENDBRANCH   1  10
TORSDOF 13
ENDMDL
MODEL 4
REMARK VINA RESULT:      -5.0      1.867      3.485
REMARK  Name = 
REMARK  14 active torsions:
REMARK  status: ('A' for Active; 'I' for Inactive)
REMARK    1  A    between atoms: C_2  and  C_3
REMARK    2  A    between atoms: C_3  and  N_4
REMARK    3  A    between atoms: N_4  and  C_5
REMARK    4  A    between atoms: C_5  and  O_7
REMARK    5  A    between atoms: O_7  and  C_8
REMARK    6  A    between atoms: C_8  and  C_9
REMARK    7  A    between atoms: C_9  and  C_10
REMARK    8  A    between atoms: C_10  and  C_11
REMARK    9  A    between atoms: C_11  and  C_12
REMARK   10  A    between atoms: C_12  and  C_13
REMARK   11  A    between atoms: C_13  and  C_14
REMARK   12  A    between atoms: C_14  and  C_15
REMARK   13  A    between atoms: C_15  and  C_16
REMARK   14  A    between atoms: C_16  and  C_17
REMARK                            x       y       z     vdW  Elec       q    Type
REMARK                         _______ _______ _______ _____ _____    ______ ____
ROOT
ATOM      1  C   UNL     1       4.431   5.308  17.073  0.00  0.00    +0.000 C 
ENDROOT
BRANCH   1   2
ATOM      2  O   UNL     1       5.379   4.242  16.877  0.00  0.00    +0.000 OA
BRANCH   2   3
ATOM      3  C   UNL     1       6.438   4.403  16.042  0.00  0.00    +0.000 C 
ATOM      4  S   UNL     1       6.419   4.116  14.404  0.00  0.00    +0.000 S 
BRANCH   3   5
ATOM      5  N   UNL     1       7.569   4.844  16.654  0.00  0.00    +0.000 N 
ATOM      6  H   UNL     1       8.309   5.160  16.039  0.00  0.00    +0.000 HD
BRANCH   5   7
ATOM      7  C   UNL     1       7.836   4.772  18.068  0.00  0.00    +0.000 C 
BRANCH   7   9
ATOM      8  C   UNL     1       7.757   7.276  17.903  0.00  0.00    +0.000 C 
ATOM      9  C   UNL     1       7.625   6.150  18.612  0.00  0.00    +0.000 C 
ENDBRANCH   7   9
ENDBRANCH   5   7
ENDBRANCH   3   5
ENDBRANCH   2   3
ENDBRANCH   1   2
BRANCH   1  10
ATOM     10  C   UNL     1       3.053   4.721  17.369  0.00  0.00    +0.000 C 
BRANCH  10  11
ATOM     11  C   UNL     1       2.157   5.713  18.116  0.00  0.00    +0.000 C 
BRANCH  11  12
ATOM     12  C   UNL     1       2.764   6.149  19.451  0.00  0.00    +0.000 C 
BRANCH  12  13
ATOM     13  C   UNL     1       1.810   5.916  20.623  0.00  0.00    +0.000 C 
BRANCH  13  14
ATOM     14  C   UNL     1       1.316   4.469  20.612  0.00  0.00    +0.000 C 
BRANCH  14  15
ATOM     15  C   UNL     1       2.077   3.608  21.617  0.00  0.00    +0.000 C 
BRANCH  15  16
ATOM     16  C   UNL     1       2.837   2.487  20.909  0.00  0.00    +0.000 C 
BRANCH  16  17
ATOM     17  C   UNL     1       2.165   2.114  19.591  0.00  0.00    +0.000 C 
ATOM     18  C   UNL     1       3.179   1.613  18.575  0.00  0.00    +0.000 C 
ENDBRANCH  16  17
ENDBRANCH  15  16
ENDBRANCH  14  15
ENDBRANCH  13  14
ENDBRANCH  12  13
ENDBRANCH  11  12
ENDBRANCH  10  11
ENDBRANCH   1  10
TORSDOF 13
ENDMDL
MODEL 5
REMARK VINA RESULT:      -5.0      2.488      4.078
REMARK  Name = 
REMARK  14 active torsions:
REMARK  status: ('A' for Active; 'I' for Inactive)
REMARK    1  A    between atoms: C_2  and  C_3
REMARK    2  A    between atoms: C_3  and  N_4
REMARK    3  A    between atoms: N_4  and  C_5
REMARK    4  A    between atoms: C_5  and  O_7
REMARK    5  A    between atoms: O_7  and  C_8
REMARK    6  A    between atoms: C_8  and  C_9
REMARK    7  A    between atoms: C_9  and  C_10
REMARK    8  A    between atoms: C_10  and  C_11
REMARK    9  A    between atoms: C_11  and  C_12
REMARK   10  A    between atoms: C_12  and  C_13
REMARK   11  A    between atoms: C_13  and  C_14
REMARK   12  A    between atoms: C_14  and  C_15
REMARK   13  A    between atoms: C_15  and  C_16
REMARK   14  A    between atoms: C_16  and  C_17
REMARK                            x       y       z     vdW  Elec       q    Type
REMARK                         _______ _______ _______ _____ _____    ______ ____
ROOT
ATOM      1  C   UNL     1       7.102   4.693  15.851  0.00  0.00    +0.000 C 
ENDROOT
BRANCH   1   2
ATOM      2  O   UNL     1       7.189   6.121  16.024  0.00  0.00    +0.000 OA
BRANCH   2   3
ATOM      3  C   UNL     1       7.580   6.651  17.211  0.00  0.00    +0.000 C 
ATOM      4  S   UNL     1       7.486   5.882  18.682  0.00  0.00    +0.000 S 
BRANCH   3   5
ATOM      5  N   UNL     1       8.087   7.910  17.119  0.00  0.00    +0.000 N 
ATOM      6  H   UNL     1       8.936   8.004  16.576  0.00  0.00    +0.000 HD
BRANCH   5   7
ATOM      7  C   UNL     1       7.594   9.063  17.827  0.00  0.00    +0.000 C 
BRANCH   7   9
ATOM      8  C   UNL     1       9.394  10.751  18.291  0.00  0.00    +0.000 C 
ATOM      9  C   UNL     1       8.751   9.618  18.595  0.00  0.00    +0.000 C 
ENDBRANCH   7   9
ENDBRANCH   5   7
ENDBRANCH   3   5
ENDBRANCH   2   3
ENDBRANCH   1   2
BRANCH   1  10
ATOM     10  C   UNL     1       5.720   4.324  15.316  0.00  0.00    +0.000 C 
BRANCH  10  11
ATOM     11  C   UNL     1       4.744   3.977  16.443  0.00  0.00    +0.000 C 
BRANCH  11  12
ATOM     12  C   UNL     1       4.120   5.225  17.073  0.00  0.00    +0.000 C 
BRANCH  12  13
ATOM     13  C   UNL     1       2.969   4.882  18.018  0.00  0.00    +0.000 C 
BRANCH  13  14
ATOM     14  C   UNL     1       2.250   3.625  17.526  0.00  0.00    +0.000 C 
BRANCH  14  15
ATOM     15  C   UNL     1       2.046   2.616  18.654  0.00  0.00    +0.000 C 
BRANCH  15  16
ATOM     16  C   UNL     1       0.803   2.960  19.475  0.00  0.00    +0.000 C 
BRANCH  16  17
ATOM     17  C   UNL     1       1.184   3.583  20.815  0.00  0.00    +0.000 C 
ATOM     18  C   UNL     1       2.375   2.873  21.437  0.00  0.00    +0.000 C 
ENDBRANCH  16  17
ENDBRANCH  15  16
ENDBRANCH  14  15
ENDBRANCH  13  14
ENDBRANCH  12  13
ENDBRANCH  11  12
ENDBRANCH  10  11
ENDBRANCH   1  10
TORSDOF 13
ENDMDL
MODEL 6
REMARK VINA RESULT:      -5.0      2.781      4.376
REMARK  Name = 
REMARK  14 active torsions:
REMARK  status: ('A' for Active; 'I' for Inactive)
REMARK    1  A    between atoms: C_2  and  C_3
REMARK    2  A    between atoms: C_3  and  N_4
REMARK    3  A    between atoms: N_4  and  C_5
REMARK    4  A    between atoms: C_5  and  O_7
REMARK    5  A    between atoms: O_7  and  C_8
REMARK    6  A    between atoms: C_8  and  C_9
REMARK    7  A    between atoms: C_9  and  C_10
REMARK    8  A    between atoms: C_10  and  C_11
REMARK    9  A    between atoms: C_11  and  C_12
REMARK   10  A    between atoms: C_12  and  C_13
REMARK   11  A    between atoms: C_13  and  C_14
REMARK   12  A    between atoms: C_14  and  C_15
REMARK   13  A    between atoms: C_15  and  C_16
REMARK   14  A    between atoms: C_16  and  C_17
REMARK                            x       y       z     vdW  Elec       q    Type
REMARK                         _______ _______ _______ _____ _____    ______ ____
ROOT
ATOM      1  C   UNL     1       5.858   6.164  16.237  0.00  0.00    +0.000 C 
ENDROOT
BRANCH   1   2
ATOM      2  O   UNL     1       6.974   6.980  16.639  0.00  0.00    +0.000 OA
BRANCH   2   3
ATOM      3  C   UNL     1       7.587   6.776  17.833  0.00  0.00    +0.000 C 
ATOM      4  S   UNL     1       7.615   5.334  18.661  0.00  0.00    +0.000 S 
BRANCH   3   5
ATOM      5  N   UNL     1       8.215   7.874  18.332  0.00  0.00    +0.000 N 
ATOM      6  H   UNL     1       8.749   7.728  19.180  0.00  0.00    +0.000 HD
BRANCH   5   7
ATOM      7  C   UNL     1       8.073   9.218  17.832  0.00  0.00    +0.000 C 
BRANCH   7   9
ATOM      8  C   UNL     1       9.672  11.134  18.106  0.00  0.00    +0.000 C 
ATOM      9  C   UNL     1       9.044  10.061  18.597  0.00  0.00    +0.000 C 
ENDBRANCH   7   9
ENDBRANCH   5   7
ENDBRANCH   3   5
ENDBRANCH   2   3
ENDBRANCH   1   2
BRANCH   1  10
ATOM     10  C   UNL     1       4.586   6.661  16.919  0.00  0.00    +0.000 C 
BRANCH  10  11
ATOM     11  C   UNL     1       3.846   5.532  17.643  0.00  0.00    +0.000 C 
BRANCH  11  12
ATOM     12  C   UNL     1       2.506   5.995  18.218  0.00  0.00    +0.000 C 
BRANCH  12  13
ATOM     13  C   UNL     1       2.623   6.427  19.679  0.00  0.00    +0.000 C 
BRANCH  13  14
ATOM     14  C   UNL     1       1.816   5.479  20.568  0.00  0.00    +0.000 C 
BRANCH  14  15
ATOM     15  C   UNL     1       2.109   4.017  20.242  0.00  0.00    +0.000 C 
BRANCH  15  16
ATOM     16  C   UNL     1       0.813   3.216  20.119  0.00  0.00    +0.000 C 
BRANCH  16  17
ATOM     17  C   UNL     1       0.819   2.350  18.862  0.00  0.00    +0.000 C 
ATOM     18  C   UNL     1       2.193   2.325  18.214  0.00  0.00    +0.000 C 
ENDBRANCH  16  17
ENDBRANCH  15  16
ENDBRANCH  14  15
ENDBRANCH  13  14
ENDBRANCH  12  13
ENDBRANCH  11  12
ENDBRANCH  10  11
ENDBRANCH   1  10
TORSDOF 13
ENDMDL
MODEL 7
REMARK VINA RESULT:      -4.9      1.606      2.824
REMARK  Name = 
REMARK  14 active torsions:
REMARK  status: ('A' for Active; 'I' for Inactive)
REMARK    1  A    between atoms: C_2  and  C_3
REMARK    2  A    between atoms: C_3  and  N_4
REMARK    3  A    between atoms: N_4  and  C_5
REMARK    4  A    between atoms: C_5  and  O_7
REMARK    5  A    between atoms: O_7  and  C_8
REMARK    6  A    between atoms: C_8  and  C_9
REMARK    7  A    between atoms: C_9  and  C_10
REMARK    8  A    between atoms: C_10  and  C_11
REMARK    9  A    between atoms: C_11  and  C_12
REMARK   10  A    between atoms: C_12  and  C_13
REMARK   11  A    between atoms: C_13  and  C_14
REMARK   12  A    between atoms: C_14  and  C_15
REMARK   13  A    between atoms: C_15  and  C_16
REMARK   14  A    between atoms: C_16  and  C_17
REMARK                            x       y       z     vdW  Elec       q    Type
REMARK                         _______ _______ _______ _____ _____    ______ ____
ROOT
ATOM      1  C   UNL     1       7.499   5.139  17.451  0.00  0.00    +0.000 C 
ENDROOT
BRANCH   1   2
ATOM      2  O   UNL     1       7.456   4.369  16.235  0.00  0.00    +0.000 OA
BRANCH   2   3
ATOM      3  C   UNL     1       6.455   4.551  15.336  0.00  0.00    +0.000 C 
ATOM      4  S   UNL     1       5.389   5.827  15.334  0.00  0.00    +0.000 S 
BRANCH   3   5
ATOM      5  N   UNL     1       6.378   3.583  14.384  0.00  0.00    +0.000 N 
ATOM      6  H   UNL     1       6.331   2.632  14.725  0.00  0.00    +0.000 HD
BRANCH   5   7
ATOM      7  C   UNL     1       6.491   3.798  12.963  0.00  0.00    +0.000 C 
BRANCH   7   9
ATOM      8  C   UNL     1       5.035   2.556  11.338  0.00  0.00    +0.000 C 
ATOM      9  C   UNL     1       5.178   3.397  12.367  0.00  0.00    +0.000 C 
ENDBRANCH   7   9
ENDBRANCH   5   7
ENDBRANCH   3   5
ENDBRANCH   2   3
ENDBRANCH   1   2
BRANCH   1  10
ATOM     10  C   UNL     1       6.653   4.456  18.522  0.00  0.00    +0.000 C 
BRANCH  10  11
ATOM     11  C   UNL     1       5.648   5.420  19.159  0.00  0.00    +0.000 C 
BRANCH  11  12
ATOM     12  C   UNL     1       4.261   4.792  19.312  0.00  0.00    +0.000 C 
BRANCH  12  13
ATOM     13  C   UNL     1       3.186   5.576  18.560  0.00  0.00    +0.000 C 
BRANCH  13  14
ATOM     14  C   UNL     1       2.293   4.615  17.775  0.00  0.00    +0.000 C 
BRANCH  14  15
ATOM     15  C   UNL     1       2.362   3.197  18.339  0.00  0.00    +0.000 C 
BRANCH  15  16
ATOM     16  C   UNL     1       1.034   2.802  18.984  0.00  0.00    +0.000 C 
BRANCH  16  17
ATOM     17  C   UNL     1       0.846   3.500  20.328  0.00  0.00    +0.000 C 
ATOM     18  C   UNL     1       1.643   2.813  21.425  0.00  0.00    +0.000 C 
ENDBRANCH  16  17
ENDBRANCH  15  16
ENDBRANCH  14  15
ENDBRANCH  13  14
ENDBRANCH  12  13
ENDBRANCH  11  12
ENDBRANCH  10  11
ENDBRANCH   1  10
TORSDOF 13
ENDMDL
MODEL 8
REMARK VINA RESULT:      -4.9      3.210      5.841
REMARK  Name = 
REMARK  14 active torsions:
REMARK  status: ('A' for Active; 'I' for Inactive)
REMARK    1  A    between atoms: C_2  and  C_3
REMARK    2  A    between atoms: C_3  and  N_4
REMARK    3  A    between atoms: N_4  and  C_5
REMARK    4  A    between atoms: C_5  and  O_7
REMARK    5  A    between atoms: O_7  and  C_8
REMARK    6  A    between atoms: C_8  and  C_9
REMARK    7  A    between atoms: C_9  and  C_10
REMARK    8  A    between atoms: C_10  and  C_11
REMARK    9  A    between atoms: C_11  and  C_12
REMARK   10  A    between atoms: C_12  and  C_13
REMARK   11  A    between atoms: C_13  and  C_14
REMARK   12  A    between atoms: C_14  and  C_15
REMARK   13  A    between atoms: C_15  and  C_16
REMARK   14  A    between atoms: C_16  and  C_17
REMARK                            x       y       z     vdW  Elec       q    Type
REMARK                         _______ _______ _______ _____ _____    ______ ____
ROOT
ATOM      1  C   UNL     1       4.080   5.042  19.400  0.00  0.00    +0.000 C 
ENDROOT
BRANCH   1   2
ATOM      2  O   UNL     1       2.901   5.184  20.215  0.00  0.00    +0.000 OA
BRANCH   2   3
ATOM      3  C   UNL     1       2.053   4.138  20.392  0.00  0.00    +0.000 C 
ATOM      4  S   UNL     1       1.989   3.176  21.747  0.00  0.00    +0.000 S 
BRANCH   3   5
ATOM      5  N   UNL     1       1.210   3.921  19.348  0.00  0.00    +0.000 N 
ATOM      6  H   UNL     1       0.286   4.325  19.436  0.00  0.00    +0.000 HD
BRANCH   5   7
ATOM      7  C   UNL     1       1.482   3.069  18.218  0.00  0.00    +0.000 C 
BRANCH   7   9
ATOM      8  C   UNL     1       3.396   1.455  18.393  0.00  0.00    +0.000 C 
ATOM      9  C   UNL     1       2.174   1.857  18.755  0.00  0.00    +0.000 C 
ENDBRANCH   7   9
ENDBRANCH   5   7
ENDBRANCH   3   5
ENDBRANCH   2   3
ENDBRANCH   1   2
BRANCH   1  10
ATOM     10  C   UNL     1       3.940   5.894  18.141  0.00  0.00    +0.000 C 
BRANCH  10  11
ATOM     11  C   UNL     1       3.994   5.046  16.867  0.00  0.00    +0.000 C 
BRANCH  11  12
ATOM     12  C   UNL     1       5.089   3.978  16.929  0.00  0.00    +0.000 C 
BRANCH  12  13
ATOM     13  C   UNL     1       6.107   4.129  15.799  0.00  0.00    +0.000 C 
BRANCH  13  14
ATOM     14  C   UNL     1       7.274   5.000  16.263  0.00  0.00    +0.000 C 
BRANCH  14  15
ATOM     15  C   UNL     1       7.559   4.812  17.752  0.00  0.00    +0.000 C 
BRANCH  15  16
ATOM     16  C   UNL     1       7.690   6.161  18.457  0.00  0.00    +0.000 C 
BRANCH  16  17
ATOM     17  C   UNL     1       7.387   7.313  17.502  0.00  0.00    +0.000 C 
ATOM     18  C   UNL     1       8.158   8.565  17.885  0.00  0.00    +0.000 C 
ENDBRANCH  16  17
ENDBRANCH  15  16
ENDBRANCH  14  15
ENDBRANCH  13  14
ENDBRANCH  12  13
ENDBRANCH  11  12
ENDBRANCH  10  11
ENDBRANCH   1  10
TORSDOF 13
ENDMDL
MODEL 9
REMARK VINA RESULT:      -4.9      2.067      3.576
REMARK  Name = 
REMARK  14 active torsions:
REMARK  status: ('A' for Active; 'I' for Inactive)
REMARK    1  A    between atoms: C_2  and  C_3
REMARK    2  A    between atoms: C_3  and  N_4
REMARK    3  A    between atoms: N_4  and  C_5
REMARK    4  A    between atoms: C_5  and  O_7
REMARK    5  A    between atoms: O_7  and  C_8
REMARK    6  A    between atoms: C_8  and  C_9
REMARK    7  A    between atoms: C_9  and  C_10
REMARK    8  A    between atoms: C_10  and  C_11
REMARK    9  A    between atoms: C_11  and  C_12
REMARK   10  A    between atoms: C_12  and  C_13
REMARK   11  A    between atoms: C_13  and  C_14
REMARK   12  A    between atoms: C_14  and  C_15
REMARK   13  A    between atoms: C_15  and  C_16
REMARK   14  A    between atoms: C_16  and  C_17
REMARK                            x       y       z     vdW  Elec       q    Type
REMARK                         _______ _______ _______ _____ _____    ______ ____
ROOT
ATOM      1  C   UNL     1       5.293   7.308  16.652  0.00  0.00    +0.000 C 
ENDROOT
BRANCH   1   2
ATOM      2  O   UNL     1       5.384   6.373  15.560  0.00  0.00    +0.000 OA
BRANCH   2   3
ATOM      3  C   UNL     1       6.244   5.325  15.617  0.00  0.00    +0.000 C 
ATOM      4  S   UNL     1       6.113   3.927  14.726  0.00  0.00    +0.000 S 
BRANCH   3   5
ATOM      5  N   UNL     1       7.278   5.499  16.483  0.00  0.00    +0.000 N 
ATOM      6  H   UNL     1       7.900   6.271  16.278  0.00  0.00    +0.000 HD
BRANCH   5   7
ATOM      7  C   UNL     1       7.621   4.610  17.564  0.00  0.00    +0.000 C 
BRANCH   7   9
ATOM      8  C   UNL     1       8.121   6.780  18.723  0.00  0.00    +0.000 C 
ATOM      9  C   UNL     1       7.855   5.471  18.765  0.00  0.00    +0.000 C 
ENDBRANCH   7   9
ENDBRANCH   5   7
ENDBRANCH   3   5
ENDBRANCH   2   3
ENDBRANCH   1   2
BRANCH   1  10
ATOM     10  C   UNL     1       4.581   6.653  17.833  0.00  0.00    +0.000 C 
BRANCH  10  11
ATOM     11  C   UNL     1       3.064   6.850  17.766  0.00  0.00    +0.000 C 
BRANCH  11  12
ATOM     12  C   UNL     1       2.302   5.531  17.923  0.00  0.00    +0.000 C 
BRANCH  12  13
ATOM     13  C   UNL     1       3.194   4.316  17.671  0.00  0.00    +0.000 C 
BRANCH  13  14
ATOM     14  C   UNL     1       2.331   3.094  17.355  0.00  0.00    +0.000 C 
BRANCH  14  15
ATOM     15  C   UNL     1       2.145   2.205  18.582  0.00  0.00    +0.000 C 
BRANCH  15  16
ATOM     16  C   UNL     1       0.799   2.475  19.253  0.00  0.00    +0.000 C 
BRANCH  16  17
ATOM     17  C   UNL     1       0.960   3.403  20.454  0.00  0.00    +0.000 C 
ATOM     18  C   UNL     1       1.695   2.713  21.592  0.00  0.00    +0.000 C 
ENDBRANCH  16  17
ENDBRANCH  15  16
ENDBRANCH  14  15
ENDBRANCH  13  14
ENDBRANCH  12  13
ENDBRANCH  11  12
ENDBRANCH  10  11
ENDBRANCH   1  10
TORSDOF 13
ENDMDL
