MODEL 1
REMARK VINA RESULT:      -8.5      0.000      0.000
REMARK  Name = 
REMARK  7 active torsions:
REMARK  status: ('A' for Active; 'I' for Inactive)
REMARK    1  A    between atoms: C_1  and  C_2
REMARK    2  A    between atoms: C_2  and  C_3
REMARK    3  A    between atoms: C_3  and  N_4
REMARK    4  A    between atoms: N_7  and  C_8
REMARK    5  A    between atoms: C_8  and  C_9
REMARK    6  A    between atoms: C_9  and  C_10
REMARK    7  A    between atoms: C_16  and  C_17
REMARK                            x       y       z     vdW  Elec       q    Type
REMARK                         _______ _______ _______ _____ _____    ______ ____
ROOT
ATOM      1  C   UNL     1       1.916   4.835  20.616  0.00  0.00    +0.000 C 
ATOM      2  O   UNL     1       2.149   4.623  21.807  0.00  0.00    +0.000 OA
ATOM      3  N   UNL     1       2.167   3.891  19.618  0.00  0.00    +0.000 N 
ATOM      4  C   UNL     1       2.626   2.557  20.017  0.00  0.00    +0.000 C 
ATOM      5  C   UNL     1       3.597   1.933  19.016  0.00  0.00    +0.000 C 
ATOM      6  C   UNL     1       3.127   2.078  17.561  0.00  0.00    +0.000 C 
ATOM      7  C   UNL     1       2.771   3.542  17.213  0.00  0.00    +0.000 C 
ATOM      8  C   UNL     1       1.712   4.001  18.229  0.00  0.00    +0.000 C 
ENDROOT
BRANCH   7   9
ATOM      9  C   UNL     1       4.016   4.399  17.172  0.00  0.00    +0.000 A 
ATOM     10  N   UNL     1       4.347   5.279  18.104  0.00  0.00    +0.000 NA
ATOM     11  N   UNL     1       5.460   5.963  17.701  0.00  0.00    +0.000 NA
ATOM     12  C   UNL     1       5.838   5.462  16.551  0.00  0.00    +0.000 A 
ATOM     13  C   UNL     1       6.895   5.799  15.666  0.00  0.00    +0.000 A 
ATOM     14  C   UNL     1       7.106   5.050  14.569  0.00  0.00    +0.000 A 
ATOM     15  C   UNL     1       6.284   3.884  14.283  0.00  0.00    +0.000 A 
ATOM     16  C   UNL     1       5.252   3.589  15.094  0.00  0.00    +0.000 A 
ATOM     17  N   UNL     1       5.010   4.396  16.206  0.00  0.00    +0.000 N 
ENDBRANCH   7   9
BRANCH   1  18
ATOM     18  C   UNL     1       1.264   6.131  20.177  0.00  0.00    +0.000 C 
BRANCH  18  19
ATOM     19  C   UNL     1       2.219   7.317  20.174  0.00  0.00    +0.000 C 
BRANCH  19  23
ATOM     20  N   UNL     1       0.253  10.275  19.285  0.00  0.00    +0.000 N 
ATOM     21  C   UNL     1       1.162   9.256  18.924  0.00  0.00    +0.000 A 
ATOM     22  O   UNL     1       1.570   9.008  17.801  0.00  0.00    +0.000 OA
ATOM     23  N   UNL     1       1.471   8.557  20.113  0.00  0.00    +0.000 N 
ATOM     24  C   UNL     1       0.767   9.140  21.175  0.00  0.00    +0.000 A 
ATOM     25  C   UNL     1       0.735   8.805  22.512  0.00  0.00    +0.000 A 
ATOM     26  C   UNL     1      -0.046   9.606  23.353  0.00  0.00    +0.000 A 
ATOM     27  C   UNL     1      -0.778  10.696  22.843  0.00  0.00    +0.000 A 
ATOM     28  C   UNL     1      -0.753  11.007  21.479  0.00  0.00    +0.000 A 
ATOM     29  C   UNL     1       0.031  10.215  20.667  0.00  0.00    +0.000 A 
BRANCH  20  30
ATOM     30  C   UNL     1      -0.322  11.233  18.374  0.00  0.00    +0.000 C 
BRANCH  30  32
ATOM     31  C   UNL     1      -1.932   9.875  16.987  0.00  0.00    +0.000 C 
ATOM     32  C   UNL     1      -1.788  10.927  18.075  0.00  0.00    +0.000 C 
ENDBRANCH  30  32
ENDBRANCH  20  30
ENDBRANCH  19  23
ENDBRANCH  18  19
ENDBRANCH   1  18
TORSDOF 6
ENDMDL
MODEL 2
REMARK VINA RESULT:      -8.3      1.542      2.043
REMARK  Name = 
REMARK  7 active torsions:
REMARK  status: ('A' for Active; 'I' for Inactive)
REMARK    1  A    between atoms: C_1  and  C_2
REMARK    2  A    between atoms: C_2  and  C_3
REMARK    3  A    between atoms: C_3  and  N_4
REMARK    4  A    between atoms: N_7  and  C_8
REMARK    5  A    between atoms: C_8  and  C_9
REMARK    6  A    between atoms: C_9  and  C_10
REMARK    7  A    between atoms: C_16  and  C_17
REMARK                            x       y       z     vdW  Elec       q    Type
REMARK                         _______ _______ _______ _____ _____    ______ ____
ROOT
ATOM      1  C   UNL     1       1.443   3.822  20.515  0.00  0.00    +0.000 C 
ATOM      2  O   UNL     1       1.188   3.136  21.506  0.00  0.00    +0.000 OA
ATOM      3  N   UNL     1       2.017   3.292  19.358  0.00  0.00    +0.000 N 
ATOM      4  C   UNL     1       2.226   1.843  19.281  0.00  0.00    +0.000 C 
ATOM      5  C   UNL     1       3.479   1.459  18.496  0.00  0.00    +0.000 C 
ATOM      6  C   UNL     1       3.614   2.231  17.175  0.00  0.00    +0.000 C 
ATOM      7  C   UNL     1       3.487   3.758  17.384  0.00  0.00    +0.000 C 
ATOM      8  C   UNL     1       2.139   4.005  18.083  0.00  0.00    +0.000 C 
ENDROOT
BRANCH   7   9
ATOM      9  C   UNL     1       4.688   4.298  18.127  0.00  0.00    +0.000 A 
ATOM     10  N   UNL     1       5.017   3.955  19.362  0.00  0.00    +0.000 NA
ATOM     11  N   UNL     1       6.080   4.713  19.771  0.00  0.00    +0.000 NA
ATOM     12  C   UNL     1       6.431   5.476  18.765  0.00  0.00    +0.000 A 
ATOM     13  C   UNL     1       7.433   6.473  18.631  0.00  0.00    +0.000 A 
ATOM     14  C   UNL     1       7.632   7.056  17.434  0.00  0.00    +0.000 A 
ATOM     15  C   UNL     1       6.853   6.668  16.268  0.00  0.00    +0.000 A 
ATOM     16  C   UNL     1       5.871   5.758  16.403  0.00  0.00    +0.000 A 
ATOM     17  N   UNL     1       5.639   5.189  17.656  0.00  0.00    +0.000 N 
ENDBRANCH   7   9
BRANCH   1  18
ATOM     18  C   UNL     1       1.070   5.290  20.478  0.00  0.00    +0.000 C 
BRANCH  18  19
ATOM     19  C   UNL     1       2.262   6.221  20.660  0.00  0.00    +0.000 C 
BRANCH  19  23
ATOM     20  N   UNL     1       1.446   9.350  18.941  0.00  0.00    +0.000 N 
ATOM     21  C   UNL     1       2.122   8.110  18.971  0.00  0.00    +0.000 A 
ATOM     22  O   UNL     1       2.740   7.596  18.053  0.00  0.00    +0.000 OA
ATOM     23  N   UNL     1       1.906   7.568  20.258  0.00  0.00    +0.000 N 
ATOM     24  C   UNL     1       1.117   8.460  20.997  0.00  0.00    +0.000 A 
ATOM     25  C   UNL     1       0.639   8.368  22.287  0.00  0.00    +0.000 A 
ATOM     26  C   UNL     1      -0.105   9.449  22.771  0.00  0.00    +0.000 A 
ATOM     27  C   UNL     1      -0.363  10.573  21.963  0.00  0.00    +0.000 A 
ATOM     28  C   UNL     1       0.109  10.640  20.648  0.00  0.00    +0.000 A 
ATOM     29  C   UNL     1       0.850   9.571  20.191  0.00  0.00    +0.000 A 
BRANCH  20  30
ATOM     30  C   UNL     1       1.407  10.246  17.813  0.00  0.00    +0.000 C 
BRANCH  30  32
ATOM     31  C   UNL     1       2.051  12.624  18.351  0.00  0.00    +0.000 C 
ATOM     32  C   UNL     1       2.538  11.271  17.858  0.00  0.00    +0.000 C 
ENDBRANCH  30  32
ENDBRANCH  20  30
ENDBRANCH  19  23
ENDBRANCH  18  19
ENDBRANCH   1  18
TORSDOF 6
ENDMDL
MODEL 3
REMARK VINA RESULT:      -8.2      1.211      1.588
REMARK  Name = 
REMARK  7 active torsions:
REMARK  status: ('A' for Active; 'I' for Inactive)
REMARK    1  A    between atoms: C_1  and  C_2
REMARK    2  A    between atoms: C_2  and  C_3
REMARK    3  A    between atoms: C_3  and  N_4
REMARK    4  A    between atoms: N_7  and  C_8
REMARK    5  A    between atoms: C_8  and  C_9
REMARK    6  A    between atoms: C_9  and  C_10
REMARK    7  A    between atoms: C_16  and  C_17
REMARK                            x       y       z     vdW  Elec       q    Type
REMARK                         _______ _______ _______ _____ _____    ______ ____
ROOT
ATOM      1  C   UNL     1       1.638   5.092  19.772  0.00  0.00    +0.000 C 
ATOM      2  O   UNL     1       1.117   4.872  20.867  0.00  0.00    +0.000 OA
ATOM      3  N   UNL     1       2.283   4.100  19.030  0.00  0.00    +0.000 N 
ATOM      4  C   UNL     1       2.245   2.721  19.527  0.00  0.00    +0.000 C 
ATOM      5  C   UNL     1       3.519   1.937  19.213  0.00  0.00    +0.000 C 
ATOM      6  C   UNL     1       3.989   2.120  17.763  0.00  0.00    +0.000 C 
ATOM      7  C   UNL     1       4.098   3.613  17.376  0.00  0.00    +0.000 C 
ATOM      8  C   UNL     1       2.722   4.248  17.641  0.00  0.00    +0.000 C 
ENDROOT
BRANCH   7   9
ATOM      9  C   UNL     1       5.245   4.272  18.107  0.00  0.00    +0.000 A 
ATOM     10  N   UNL     1       5.655   3.928  19.318  0.00  0.00    +0.000 NA
ATOM     11  N   UNL     1       6.627   4.798  19.728  0.00  0.00    +0.000 NA
ATOM     12  C   UNL     1       6.846   5.637  18.746  0.00  0.00    +0.000 A 
ATOM     13  C   UNL     1       7.710   6.757  18.625  0.00  0.00    +0.000 A 
ATOM     14  C   UNL     1       7.794   7.405  17.449  0.00  0.00    +0.000 A 
ATOM     15  C   UNL     1       7.033   6.966  16.290  0.00  0.00    +0.000 A 
ATOM     16  C   UNL     1       6.178   5.934  16.413  0.00  0.00    +0.000 A 
ATOM     17  N   UNL     1       6.061   5.294  17.647  0.00  0.00    +0.000 N 
ENDBRANCH   7   9
BRANCH   1  18
ATOM     18  C   UNL     1       1.536   6.461  19.131  0.00  0.00    +0.000 C 
BRANCH  18  19
ATOM     19  C   UNL     1       2.271   7.547  19.906  0.00  0.00    +0.000 C 
BRANCH  19  23
ATOM     20  N   UNL     1       0.177  10.478  19.248  0.00  0.00    +0.000 N 
ATOM     21  C   UNL     1       1.117   9.521  18.805  0.00  0.00    +0.000 A 
ATOM     22  O   UNL     1       1.513   9.364  17.662  0.00  0.00    +0.000 OA
ATOM     23  N   UNL     1       1.475   8.758  19.940  0.00  0.00    +0.000 N 
ATOM     24  C   UNL     1       0.769   9.242  21.050  0.00  0.00    +0.000 A 
ATOM     25  C   UNL     1       0.775   8.819  22.362  0.00  0.00    +0.000 A 
ATOM     26  C   UNL     1      -0.019   9.531  23.266  0.00  0.00    +0.000 A 
ATOM     27  C   UNL     1      -0.802  10.623  22.843  0.00  0.00    +0.000 A 
ATOM     28  C   UNL     1      -0.814  11.024  21.502  0.00  0.00    +0.000 A 
ATOM     29  C   UNL     1      -0.016  10.318  20.627  0.00  0.00    +0.000 A 
BRANCH  20  30
ATOM     30  C   UNL     1      -0.451  11.470  18.412  0.00  0.00    +0.000 C 
BRANCH  30  32
ATOM     31  C   UNL     1      -1.965   9.991  17.042  0.00  0.00    +0.000 C 
ATOM     32  C   UNL     1      -1.895  11.103  18.076  0.00  0.00    +0.000 C 
ENDBRANCH  30  32
ENDBRANCH  20  30
ENDBRANCH  19  23
ENDBRANCH  18  19
ENDBRANCH   1  18
TORSDOF 6
ENDMDL
MODEL 4
REMARK VINA RESULT:      -8.1      0.613      1.059
REMARK  Name = 
REMARK  7 active torsions:
REMARK  status: ('A' for Active; 'I' for Inactive)
REMARK    1  A    between atoms: C_1  and  C_2
REMARK    2  A    between atoms: C_2  and  C_3
REMARK    3  A    between atoms: C_3  and  N_4
REMARK    4  A    between atoms: N_7  and  C_8
REMARK    5  A    between atoms: C_8  and  C_9
REMARK    6  A    between atoms: C_9  and  C_10
REMARK    7  A    between atoms: C_16  and  C_17
REMARK                            x       y       z     vdW  Elec       q    Type
REMARK                         _______ _______ _______ _____ _____    ______ ____
ROOT
ATOM      1  C   UNL     1       1.880   4.710  20.722  0.00  0.00    +0.000 C 
ATOM      2  O   UNL     1       2.122   4.410  21.893  0.00  0.00    +0.000 OA
ATOM      3  N   UNL     1       2.099   3.833  19.658  0.00  0.00    +0.000 N 
ATOM      4  C   UNL     1       2.533   2.465  19.958  0.00  0.00    +0.000 C 
ATOM      5  C   UNL     1       3.478   1.892  18.902  0.00  0.00    +0.000 C 
ATOM      6  C   UNL     1       2.995   2.148  17.468  0.00  0.00    +0.000 C 
ATOM      7  C   UNL     1       2.668   3.640  17.227  0.00  0.00    +0.000 C 
ATOM      8  C   UNL     1       1.631   4.049  18.287  0.00  0.00    +0.000 C 
ENDROOT
BRANCH   7   9
ATOM      9  C   UNL     1       3.930   4.471  17.230  0.00  0.00    +0.000 A 
ATOM     10  N   UNL     1       4.243   5.350  18.169  0.00  0.00    +0.000 NA
ATOM     11  N   UNL     1       5.385   6.009  17.806  0.00  0.00    +0.000 NA
ATOM     12  C   UNL     1       5.796   5.493  16.674  0.00  0.00    +0.000 A 
ATOM     13  C   UNL     1       6.894   5.804  15.829  0.00  0.00    +0.000 A 
ATOM     14  C   UNL     1       7.131   5.043  14.744  0.00  0.00    +0.000 A 
ATOM     15  C   UNL     1       6.296   3.893  14.433  0.00  0.00    +0.000 A 
ATOM     16  C   UNL     1       5.228   3.623  15.205  0.00  0.00    +0.000 A 
ATOM     17  N   UNL     1       4.961   4.442  16.302  0.00  0.00    +0.000 N 
ENDBRANCH   7   9
BRANCH   1  18
ATOM     18  C   UNL     1       1.252   6.047  20.384  0.00  0.00    +0.000 C 
BRANCH  18  19
ATOM     19  C   UNL     1       2.268   7.172  20.236  0.00  0.00    +0.000 C 
BRANCH  19  23
ATOM     20  N   UNL     1       0.504  10.239  19.297  0.00  0.00    +0.000 N 
ATOM     21  C   UNL     1       1.379   9.182  18.967  0.00  0.00    +0.000 A 
ATOM     22  O   UNL     1       1.837   8.933  17.864  0.00  0.00    +0.000 OA
ATOM     23  N   UNL     1       1.587   8.448  20.158  0.00  0.00    +0.000 N 
ATOM     24  C   UNL     1       0.854   9.049  21.191  0.00  0.00    +0.000 A 
ATOM     25  C   UNL     1       0.731   8.695  22.517  0.00  0.00    +0.000 A 
ATOM     26  C   UNL     1      -0.055   9.520  23.329  0.00  0.00    +0.000 A 
ATOM     27  C   UNL     1      -0.703  10.654  22.801  0.00  0.00    +0.000 A 
ATOM     28  C   UNL     1      -0.586  10.985  21.446  0.00  0.00    +0.000 A 
ATOM     29  C   UNL     1       0.202  10.168  20.664  0.00  0.00    +0.000 A 
BRANCH  20  30
ATOM     30  C   UNL     1       0.029  11.240  18.375  0.00  0.00    +0.000 C 
BRANCH  30  32
ATOM     31  C   UNL     1       2.120  12.648  18.318  0.00  0.00    +0.000 C 
ATOM     32  C   UNL     1       0.638  12.612  18.656  0.00  0.00    +0.000 C 
ENDBRANCH  30  32
ENDBRANCH  20  30
ENDBRANCH  19  23
ENDBRANCH  18  19
ENDBRANCH   1  18
TORSDOF 6
ENDMDL
MODEL 5
REMARK VINA RESULT:      -8.1      2.096      8.687
REMARK  Name = 
REMARK  7 active torsions:
REMARK  status: ('A' for Active; 'I' for Inactive)
REMARK    1  A    between atoms: C_1  and  C_2
REMARK    2  A    between atoms: C_2  and  C_3
REMARK    3  A    between atoms: C_3  and  N_4
REMARK    4  A    between atoms: N_7  and  C_8
REMARK    5  A    between atoms: C_8  and  C_9
REMARK    6  A    between atoms: C_9  and  C_10
REMARK    7  A    between atoms: C_16  and  C_17
REMARK                            x       y       z     vdW  Elec       q    Type
REMARK                         _______ _______ _______ _____ _____    ______ ____
ROOT
ATOM      1  C   UNL     1       1.510   8.392  20.049  0.00  0.00    +0.000 C 
ATOM      2  O   UNL     1       1.466   7.445  20.837  0.00  0.00    +0.000 OA
ATOM      3  N   UNL     1       0.988   9.651  20.353  0.00  0.00    +0.000 N 
ATOM      4  C   UNL     1       0.464   9.882  21.702  0.00  0.00    +0.000 C 
ATOM      5  C   UNL     1      -0.728  10.838  21.725  0.00  0.00    +0.000 C 
ATOM      6  C   UNL     1      -0.506  12.089  20.863  0.00  0.00    +0.000 C 
ATOM      7  C   UNL     1      -0.059  11.729  19.428  0.00  0.00    +0.000 C 
ATOM      8  C   UNL     1       1.204  10.860  19.555  0.00  0.00    +0.000 C 
ENDROOT
BRANCH   7   9
ATOM      9  C   UNL     1      -1.191  11.082  18.662  0.00  0.00    +0.000 A 
ATOM     10  N   UNL     1      -1.042  10.073  17.819  0.00  0.00    +0.000 NA
ATOM     11  N   UNL     1      -2.239   9.812  17.213  0.00  0.00    +0.000 NA
ATOM     12  C   UNL     1      -3.128  10.625  17.728  0.00  0.00    +0.000 A 
ATOM     13  C   UNL     1      -4.509  10.821  17.459  0.00  0.00    +0.000 A 
ATOM     14  C   UNL     1      -5.214  11.686  18.210  0.00  0.00    +0.000 A 
ATOM     15  C   UNL     1      -4.594  12.409  19.310  0.00  0.00    +0.000 A 
ATOM     16  C   UNL     1      -3.276  12.260  19.538  0.00  0.00    +0.000 A 
ATOM     17  N   UNL     1      -2.540  11.396  18.728  0.00  0.00    +0.000 N 
ENDBRANCH   7   9
BRANCH   1  18
ATOM     18  C   UNL     1       2.212   8.251  18.714  0.00  0.00    +0.000 C 
BRANCH  18  19
ATOM     19  C   UNL     1       1.844   6.975  17.969  0.00  0.00    +0.000 C 
BRANCH  19  23
ATOM     20  N   UNL     1       4.986   5.099  18.091  0.00  0.00    +0.000 N 
ATOM     21  C   UNL     1       4.214   6.160  17.569  0.00  0.00    +0.000 A 
ATOM     22  O   UNL     1       4.605   7.054  16.837  0.00  0.00    +0.000 OA
ATOM     23  N   UNL     1       2.911   6.002  18.094  0.00  0.00    +0.000 N 
ATOM     24  C   UNL     1       2.891   4.868  18.917  0.00  0.00    +0.000 A 
ATOM     25  C   UNL     1       1.861   4.318  19.650  0.00  0.00    +0.000 A 
ATOM     26  C   UNL     1       2.137   3.144  20.358  0.00  0.00    +0.000 A 
ATOM     27  C   UNL     1       3.420   2.563  20.330  0.00  0.00    +0.000 A 
ATOM     28  C   UNL     1       4.460   3.147  19.599  0.00  0.00    +0.000 A 
ATOM     29  C   UNL     1       4.168   4.298  18.898  0.00  0.00    +0.000 A 
BRANCH  20  30
ATOM     30  C   UNL     1       6.382   4.873  17.809  0.00  0.00    +0.000 C 
BRANCH  30  32
ATOM     31  C   UNL     1       7.839   6.886  18.241  0.00  0.00    +0.000 C 
ATOM     32  C   UNL     1       7.290   5.587  18.808  0.00  0.00    +0.000 C 
ENDBRANCH  30  32
ENDBRANCH  20  30
ENDBRANCH  19  23
ENDBRANCH  18  19
ENDBRANCH   1  18
TORSDOF 6
ENDMDL
MODEL 6
REMARK VINA RESULT:      -8.0      1.978      4.228
REMARK  Name = 
REMARK  7 active torsions:
REMARK  status: ('A' for Active; 'I' for Inactive)
REMARK    1  A    between atoms: C_1  and  C_2
REMARK    2  A    between atoms: C_2  and  C_3
REMARK    3  A    between atoms: C_3  and  N_4
REMARK    4  A    between atoms: N_7  and  C_8
REMARK    5  A    between atoms: C_8  and  C_9
REMARK    6  A    between atoms: C_9  and  C_10
REMARK    7  A    between atoms: C_16  and  C_17
REMARK                            x       y       z     vdW  Elec       q    Type
REMARK                         _______ _______ _______ _____ _____    ______ ____
ROOT
ATOM      1  C   UNL     1       3.378   7.457  17.762  0.00  0.00    +0.000 C 
ATOM      2  O   UNL     1       2.972   8.109  16.798  0.00  0.00    +0.000 OA
ATOM      3  N   UNL     1       4.435   6.549  17.668  0.00  0.00    +0.000 N 
ATOM      4  C   UNL     1       5.159   6.449  16.397  0.00  0.00    +0.000 C 
ATOM      5  C   UNL     1       5.651   5.033  16.099  0.00  0.00    +0.000 C 
ATOM      6  C   UNL     1       6.318   4.367  17.310  0.00  0.00    +0.000 C 
ATOM      7  C   UNL     1       5.425   4.433  18.570  0.00  0.00    +0.000 C 
ATOM      8  C   UNL     1       5.098   5.917  18.811  0.00  0.00    +0.000 C 
ENDROOT
BRANCH   7   9
ATOM      9  C   UNL     1       4.214   3.541  18.415  0.00  0.00    +0.000 A 
ATOM     10  N   UNL     1       4.098   2.593  17.499  0.00  0.00    +0.000 NA
ATOM     11  N   UNL     1       2.839   2.061  17.558  0.00  0.00    +0.000 NA
ATOM     12  C   UNL     1       2.210   2.647  18.547  0.00  0.00    +0.000 A 
ATOM     13  C   UNL     1       0.885   2.519  19.041  0.00  0.00    +0.000 A 
ATOM     14  C   UNL     1       0.520   3.199  20.143  0.00  0.00    +0.000 A 
ATOM     15  C   UNL     1       1.465   4.047  20.853  0.00  0.00    +0.000 A 
ATOM     16  C   UNL     1       2.708   4.207  20.361  0.00  0.00    +0.000 A 
ATOM     17  N   UNL     1       3.066   3.535  19.193  0.00  0.00    +0.000 N 
ENDBRANCH   7   9
BRANCH   1  18
ATOM     18  C   UNL     1       2.783   7.668  19.139  0.00  0.00    +0.000 C 
BRANCH  18  19
ATOM     19  C   UNL     1       1.301   8.017  19.111  0.00  0.00    +0.000 C 
BRANCH  19  23
ATOM     20  N   UNL     1       0.812  11.584  19.777  0.00  0.00    +0.000 N 
ATOM     21  C   UNL     1       1.344  10.551  18.975  0.00  0.00    +0.000 A 
ATOM     22  O   UNL     1       1.883  10.677  17.887  0.00  0.00    +0.000 OA
ATOM     23  N   UNL     1       1.092   9.341  19.662  0.00  0.00    +0.000 N 
ATOM     24  C   UNL     1       0.423   9.633  20.858  0.00  0.00    +0.000 A 
ATOM     25  C   UNL     1      -0.038   8.791  21.848  0.00  0.00    +0.000 A 
ATOM     26  C   UNL     1      -0.645   9.385  22.960  0.00  0.00    +0.000 A 
ATOM     27  C   UNL     1      -0.790  10.783  23.048  0.00  0.00    +0.000 A 
ATOM     28  C   UNL     1      -0.337  11.621  22.022  0.00  0.00    +0.000 A 
ATOM     29  C   UNL     1       0.269  11.020  20.940  0.00  0.00    +0.000 A 
BRANCH  20  30
ATOM     30  C   UNL     1       0.854  12.988  19.455  0.00  0.00    +0.000 C 
BRANCH  30  32
ATOM     31  C   UNL     1       3.043  13.935  18.637  0.00  0.00    +0.000 C 
ATOM     32  C   UNL     1       2.184  13.626  19.852  0.00  0.00    +0.000 C 
ENDBRANCH  30  32
ENDBRANCH  20  30
ENDBRANCH  19  23
ENDBRANCH  18  19
ENDBRANCH   1  18
TORSDOF 6
ENDMDL
MODEL 7
REMARK VINA RESULT:      -8.0      2.131      3.527
REMARK  Name = 
REMARK  7 active torsions:
REMARK  status: ('A' for Active; 'I' for Inactive)
REMARK    1  A    between atoms: C_1  and  C_2
REMARK    2  A    between atoms: C_2  and  C_3
REMARK    3  A    between atoms: C_3  and  N_4
REMARK    4  A    between atoms: N_7  and  C_8
REMARK    5  A    between atoms: C_8  and  C_9
REMARK    6  A    between atoms: C_9  and  C_10
REMARK    7  A    between atoms: C_16  and  C_17
REMARK                            x       y       z     vdW  Elec       q    Type
REMARK                         _______ _______ _______ _____ _____    ______ ____
ROOT
ATOM      1  C   UNL     1       2.116   7.646  19.687  0.00  0.00    +0.000 C 
ATOM      2  O   UNL     1       1.794   8.108  20.783  0.00  0.00    +0.000 OA
ATOM      3  N   UNL     1       2.099   6.277  19.410  0.00  0.00    +0.000 N 
ATOM      4  C   UNL     1       1.574   5.365  20.431  0.00  0.00    +0.000 C 
ATOM      5  C   UNL     1       2.287   4.013  20.448  0.00  0.00    +0.000 C 
ATOM      6  C   UNL     1       2.475   3.420  19.045  0.00  0.00    +0.000 C 
ATOM      7  C   UNL     1       3.134   4.428  18.076  0.00  0.00    +0.000 C 
ATOM      8  C   UNL     1       2.257   5.692  18.076  0.00  0.00    +0.000 C 
ENDROOT
BRANCH   7   9
ATOM      9  C   UNL     1       4.579   4.667  18.455  0.00  0.00    +0.000 A 
ATOM     10  N   UNL     1       5.248   3.944  19.339  0.00  0.00    +0.000 NA
ATOM     11  N   UNL     1       6.483   4.499  19.531  0.00  0.00    +0.000 NA
ATOM     12  C   UNL     1       6.585   5.526  18.723  0.00  0.00    +0.000 A 
ATOM     13  C   UNL     1       7.617   6.479  18.520  0.00  0.00    +0.000 A 
ATOM     14  C   UNL     1       7.488   7.399  17.547  0.00  0.00    +0.000 A 
ATOM     15  C   UNL     1       6.318   7.423  16.683  0.00  0.00    +0.000 A 
ATOM     16  C   UNL     1       5.317   6.551  16.902  0.00  0.00    +0.000 A 
ATOM     17  N   UNL     1       5.436   5.628  17.941  0.00  0.00    +0.000 N 
ENDBRANCH   7   9
BRANCH   1  18
ATOM     18  C   UNL     1       2.485   8.566  18.541  0.00  0.00    +0.000 C 
BRANCH  18  19
ATOM     19  C   UNL     1       1.276   9.150  17.822  0.00  0.00    +0.000 C 
BRANCH  19  23
ATOM     20  N   UNL     1      -0.287  11.628  20.019  0.00  0.00    +0.000 N 
ATOM     21  C   UNL     1      -0.304  10.360  19.398  0.00  0.00    +0.000 A 
ATOM     22  O   UNL     1      -1.099   9.458  19.605  0.00  0.00    +0.000 OA
ATOM     23  N   UNL     1       0.804  10.330  18.520  0.00  0.00    +0.000 N 
ATOM     24  C   UNL     1       1.480  11.555  18.605  0.00  0.00    +0.000 A 
ATOM     25  C   UNL     1       2.614  11.992  17.955  0.00  0.00    +0.000 A 
ATOM     26  C   UNL     1       3.039  13.298  18.221  0.00  0.00    +0.000 A 
ATOM     27  C   UNL     1       2.341  14.119  19.129  0.00  0.00    +0.000 A 
ATOM     28  C   UNL     1       1.205  13.650  19.798  0.00  0.00    +0.000 A 
ATOM     29  C   UNL     1       0.793  12.365  19.515  0.00  0.00    +0.000 A 
BRANCH  20  30
ATOM     30  C   UNL     1      -1.248  12.088  20.990  0.00  0.00    +0.000 C 
BRANCH  30  32
ATOM     31  C   UNL     1      -2.111  11.701  23.328  0.00  0.00    +0.000 C 
ATOM     32  C   UNL     1      -0.911  11.605  22.399  0.00  0.00    +0.000 C 
ENDBRANCH  30  32
ENDBRANCH  20  30
ENDBRANCH  19  23
ENDBRANCH  18  19
ENDBRANCH   1  18
TORSDOF 6
ENDMDL
MODEL 8
REMARK VINA RESULT:      -7.9      1.683      3.921
REMARK  Name = 
REMARK  7 active torsions:
REMARK  status: ('A' for Active; 'I' for Inactive)
REMARK    1  A    between atoms: C_1  and  C_2
REMARK    2  A    between atoms: C_2  and  C_3
REMARK    3  A    between atoms: C_3  and  N_4
REMARK    4  A    between atoms: N_7  and  C_8
REMARK    5  A    between atoms: C_8  and  C_9
REMARK    6  A    between atoms: C_9  and  C_10
REMARK    7  A    between atoms: C_16  and  C_17
REMARK                            x       y       z     vdW  Elec       q    Type
REMARK                         _______ _______ _______ _____ _____    ______ ____
ROOT
ATOM      1  C   UNL     1       3.405   7.526  17.825  0.00  0.00    +0.000 C 
ATOM      2  O   UNL     1       2.927   8.217  16.923  0.00  0.00    +0.000 OA
ATOM      3  N   UNL     1       4.419   6.592  17.604  0.00  0.00    +0.000 N 
ATOM      4  C   UNL     1       5.012   6.508  16.265  0.00  0.00    +0.000 C 
ATOM      5  C   UNL     1       5.428   5.089  15.883  0.00  0.00    +0.000 C 
ATOM      6  C   UNL     1       6.190   4.369  17.005  0.00  0.00    +0.000 C 
ATOM      7  C   UNL     1       5.427   4.424  18.348  0.00  0.00    +0.000 C 
ATOM      8  C   UNL     1       5.171   5.908  18.659  0.00  0.00    +0.000 C 
ENDROOT
BRANCH   7   9
ATOM      9  C   UNL     1       4.180   3.571  18.290  0.00  0.00    +0.000 A 
ATOM     10  N   UNL     1       3.951   2.645  17.372  0.00  0.00    +0.000 NA
ATOM     11  N   UNL     1       2.687   2.149  17.539  0.00  0.00    +0.000 NA
ATOM     12  C   UNL     1       2.169   2.734  18.590  0.00  0.00    +0.000 A 
ATOM     13  C   UNL     1       0.891   2.635  19.202  0.00  0.00    +0.000 A 
ATOM     14  C   UNL     1       0.650   3.303  20.345  0.00  0.00    +0.000 A 
ATOM     15  C   UNL     1       1.683   4.109  20.979  0.00  0.00    +0.000 A 
ATOM     16  C   UNL     1       2.879   4.242  20.378  0.00  0.00    +0.000 A 
ATOM     17  N   UNL     1       3.108   3.584  19.170  0.00  0.00    +0.000 N 
ENDBRANCH   7   9
BRANCH   1  18
ATOM     18  C   UNL     1       2.954   7.713  19.259  0.00  0.00    +0.000 C 
BRANCH  18  19
ATOM     19  C   UNL     1       1.449   7.569  19.444  0.00  0.00    +0.000 C 
BRANCH  19  23
ATOM     20  N   UNL     1      -0.257  10.808  19.392  0.00  0.00    +0.000 N 
ATOM     21  C   UNL     1       0.458   9.791  18.722  0.00  0.00    +0.000 A 
ATOM     22  O   UNL     1       0.660   9.712  17.521  0.00  0.00    +0.000 OA
ATOM     23  N   UNL     1       0.855   8.863  19.712  0.00  0.00    +0.000 N 
ATOM     24  C   UNL     1       0.394   9.309  20.958  0.00  0.00    +0.000 A 
ATOM     25  C   UNL     1       0.523   8.744  22.209  0.00  0.00    +0.000 A 
ATOM     26  C   UNL     1      -0.020   9.449  23.288  0.00  0.00    +0.000 A 
ATOM     27  C   UNL     1      -0.684  10.676  23.093  0.00  0.00    +0.000 A 
ATOM     28  C   UNL     1      -0.826  11.224  21.814  0.00  0.00    +0.000 A 
ATOM     29  C   UNL     1      -0.275  10.521  20.763  0.00  0.00    +0.000 A 
BRANCH  20  30
ATOM     30  C   UNL     1      -0.842  11.963  18.759  0.00  0.00    +0.000 C 
BRANCH  30  32
ATOM     31  C   UNL     1      -2.505  11.260  16.997  0.00  0.00    +0.000 C 
ATOM     32  C   UNL     1      -2.317  11.746  18.426  0.00  0.00    +0.000 C 
ENDBRANCH  30  32
ENDBRANCH  20  30
ENDBRANCH  19  23
ENDBRANCH  18  19
ENDBRANCH   1  18
TORSDOF 6
ENDMDL
MODEL 9
REMARK VINA RESULT:      -7.9      1.521      2.066
REMARK  Name = 
REMARK  7 active torsions:
REMARK  status: ('A' for Active; 'I' for Inactive)
REMARK    1  A    between atoms: C_1  and  C_2
REMARK    2  A    between atoms: C_2  and  C_3
REMARK    3  A    between atoms: C_3  and  N_4
REMARK    4  A    between atoms: N_7  and  C_8
REMARK    5  A    between atoms: C_8  and  C_9
REMARK    6  A    between atoms: C_9  and  C_10
REMARK    7  A    between atoms: C_16  and  C_17
REMARK                            x       y       z     vdW  Elec       q    Type
REMARK                         _______ _______ _______ _____ _____    ______ ____
ROOT
ATOM      1  C   UNL     1       1.878   5.763  20.162  0.00  0.00    +0.000 C 
ATOM      2  O   UNL     1       1.360   5.283  21.172  0.00  0.00    +0.000 OA
ATOM      3  N   UNL     1       2.251   4.986  19.064  0.00  0.00    +0.000 N 
ATOM      4  C   UNL     1       1.915   3.559  19.071  0.00  0.00    +0.000 C 
ATOM      5  C   UNL     1       2.961   2.694  18.370  0.00  0.00    +0.000 C 
ATOM      6  C   UNL     1       3.409   3.275  17.021  0.00  0.00    +0.000 C 
ATOM      7  C   UNL     1       3.845   4.753  17.147  0.00  0.00    +0.000 C 
ATOM      8  C   UNL     1       2.663   5.520  17.763  0.00  0.00    +0.000 C 
ENDROOT
BRANCH   7   9
ATOM      9  C   UNL     1       5.139   4.864  17.922  0.00  0.00    +0.000 A 
ATOM     10  N   UNL     1       5.559   3.973  18.806  0.00  0.00    +0.000 NA
ATOM     11  N   UNL     1       6.697   4.437  19.406  0.00  0.00    +0.000 NA
ATOM     12  C   UNL     1       6.999   5.583  18.848  0.00  0.00    +0.000 A 
ATOM     13  C   UNL     1       8.042   6.515  19.092  0.00  0.00    +0.000 A 
ATOM     14  C   UNL     1       8.164   7.595  18.298  0.00  0.00    +0.000 A 
ATOM     15  C   UNL     1       7.261   7.815  17.179  0.00  0.00    +0.000 A 
ATOM     16  C   UNL     1       6.243   6.958  16.974  0.00  0.00    +0.000 A 
ATOM     17  N   UNL     1       6.094   5.865  17.827  0.00  0.00    +0.000 N 
ENDBRANCH   7   9
BRANCH   1  18
ATOM     18  C   UNL     1       2.072   7.260  20.033  0.00  0.00    +0.000 C 
BRANCH  18  19
ATOM     19  C   UNL     1       1.501   8.047  21.205  0.00  0.00    +0.000 C 
BRANCH  19  23
ATOM     20  N   UNL     1      -0.177  10.691  19.309  0.00  0.00    +0.000 N 
ATOM     21  C   UNL     1       0.752   9.630  19.368  0.00  0.00    +0.000 A 
ATOM     22  O   UNL     1       1.354   9.136  18.429  0.00  0.00    +0.000 OA
ATOM     23  N   UNL     1       0.814   9.228  20.723  0.00  0.00    +0.000 N 
ATOM     24  C   UNL     1      -0.057  10.031  21.471  0.00  0.00    +0.000 A 
ATOM     25  C   UNL     1      -0.347  10.013  22.819  0.00  0.00    +0.000 A 
ATOM     26  C   UNL     1      -1.246  10.975  23.292  0.00  0.00    +0.000 A 
ATOM     27  C   UNL     1      -1.838  11.908  22.418  0.00  0.00    +0.000 A 
ATOM     28  C   UNL     1      -1.551  11.896  21.048  0.00  0.00    +0.000 A 
ATOM     29  C   UNL     1      -0.654  10.949  20.601  0.00  0.00    +0.000 A 
BRANCH  20  30
ATOM     30  C   UNL     1      -0.545  11.405  18.112  0.00  0.00    +0.000 C 
BRANCH  30  32
ATOM     31  C   UNL     1      -2.066   9.907  16.769  0.00  0.00    +0.000 C 
ATOM     32  C   UNL     1      -1.984  11.113  17.691  0.00  0.00    +0.000 C 
ENDBRANCH  30  32
ENDBRANCH  20  30
ENDBRANCH  19  23
ENDBRANCH  18  19
ENDBRANCH   1  18
TORSDOF 6
ENDMDL
