MODEL 1
REMARK VINA RESULT:      -7.7      0.000      0.000
REMARK  Name = 
REMARK  4 active torsions:
REMARK  status: ('A' for Active; 'I' for Inactive)
REMARK    1  A    between atoms: C_5  and  C_6
REMARK    2  A    between atoms: C_6  and  N_7
REMARK    3  A    between atoms: C_8  and  C_9
REMARK    4  A    between atoms: C_9  and  N_10
REMARK                            x       y       z     vdW  Elec       q    Type
REMARK                         _______ _______ _______ _____ _____    ______ ____
ROOT
ATOM      1  N   UNL     1       3.173   5.528  18.504  0.00  0.00    +0.000 N 
ATOM      2  C   UNL     1       3.792   5.108  17.335  0.00  0.00    +0.000 A 
ATOM      3  N   UNL     1       3.371   3.898  17.004  0.00  0.00    +0.000 NA
ATOM      4  C   UNL     1       2.506   3.511  17.997  0.00  0.00    +0.000 A 
ATOM      5  C   UNL     1       1.860   2.282  18.189  0.00  0.00    +0.000 A 
ATOM      6  C   UNL     1       1.028   2.123  19.305  0.00  0.00    +0.000 A 
ATOM      7  C   UNL     1       0.833   3.169  20.211  0.00  0.00    +0.000 A 
ATOM      8  C   UNL     1       1.480   4.398  20.038  0.00  0.00    +0.000 A 
ATOM      9  C   UNL     1       2.318   4.528  18.924  0.00  0.00    +0.000 A 
ENDROOT
BRANCH   1  10
ATOM     10  C   UNL     1       3.450   6.747  19.254  0.00  0.00    +0.000 C 
BRANCH  10  15
ATOM     11  F   UNL     1      -0.538  10.757  18.993  0.00  0.00    +0.000 F 
ATOM     12  C   UNL     1       0.396   9.800  19.039  0.00  0.00    +0.000 A 
ATOM     13  C   UNL     1       1.061   9.438  17.878  0.00  0.00    +0.000 A 
ATOM     14  C   UNL     1       2.038   8.443  17.928  0.00  0.00    +0.000 A 
ATOM     15  C   UNL     1       2.375   7.815  19.140  0.00  0.00    +0.000 A 
ATOM     16  C   UNL     1       1.671   8.189  20.299  0.00  0.00    +0.000 A 
ATOM     17  C   UNL     1       0.687   9.179  20.247  0.00  0.00    +0.000 A 
ENDBRANCH  10  15
ENDBRANCH   1  10
BRANCH   2  18
ATOM     18  C   UNL     1       4.902   5.860  16.654  0.00  0.00    +0.000 C 
BRANCH  18  19
ATOM     19  N   UNL     1       5.964   6.093  17.622  0.00  0.00    +0.000 NA
ATOM     20  C   UNL     1       6.835   4.940  17.839  0.00  0.00    +0.000 C 
ATOM     21  C   UNL     1       7.793   5.538  18.851  0.00  0.00    +0.000 C 
ATOM     22  C   UNL     1       7.957   6.990  18.396  0.00  0.00    +0.000 C 
ATOM     23  C   UNL     1       6.857   7.208  17.357  0.00  0.00    +0.000 C 
ENDBRANCH  18  19
ENDBRANCH   2  18
TORSDOF 4
ENDMDL
MODEL 2
REMARK VINA RESULT:      -7.7      1.413      4.877
REMARK  Name = 
REMARK  4 active torsions:
REMARK  status: ('A' for Active; 'I' for Inactive)
REMARK    1  A    between atoms: C_5  and  C_6
REMARK    2  A    between atoms: C_6  and  N_7
REMARK    3  A    between atoms: C_8  and  C_9
REMARK    4  A    between atoms: C_9  and  N_10
REMARK                            x       y       z     vdW  Elec       q    Type
REMARK                         _______ _______ _______ _____ _____    ______ ____
ROOT
ATOM      1  N   UNL     1       4.518   5.420  18.178  0.00  0.00    +0.000 N 
ATOM      2  C   UNL     1       4.856   4.195  18.734  0.00  0.00    +0.000 A 
ATOM      3  N   UNL     1       6.139   4.177  19.056  0.00  0.00    +0.000 NA
ATOM      4  C   UNL     1       6.648   5.389  18.658  0.00  0.00    +0.000 A 
ATOM      5  C   UNL     1       7.973   5.848  18.671  0.00  0.00    +0.000 A 
ATOM      6  C   UNL     1       8.246   7.134  18.187  0.00  0.00    +0.000 A 
ATOM      7  C   UNL     1       7.221   7.954  17.708  0.00  0.00    +0.000 A 
ATOM      8  C   UNL     1       5.897   7.505  17.679  0.00  0.00    +0.000 A 
ATOM      9  C   UNL     1       5.649   6.211  18.153  0.00  0.00    +0.000 A 
ENDROOT
BRANCH   1  10
ATOM     10  C   UNL     1       3.236   5.795  17.593  0.00  0.00    +0.000 C 
BRANCH  10  15
ATOM     11  F   UNL     1       0.694  10.040  20.343  0.00  0.00    +0.000 F 
ATOM     12  C   UNL     1       1.281   9.037  19.679  0.00  0.00    +0.000 A 
ATOM     13  C   UNL     1       1.508   9.160  18.317  0.00  0.00    +0.000 A 
ATOM     14  C   UNL     1       2.123   8.116  17.627  0.00  0.00    +0.000 A 
ATOM     15  C   UNL     1       2.537   6.949  18.292  0.00  0.00    +0.000 A 
ATOM     16  C   UNL     1       2.277   6.843  19.671  0.00  0.00    +0.000 A 
ATOM     17  C   UNL     1       1.652   7.885  20.360  0.00  0.00    +0.000 A 
ENDBRANCH  10  15
ENDBRANCH   1  10
BRANCH   2  18
ATOM     18  C   UNL     1       3.926   3.014  18.797  0.00  0.00    +0.000 C 
BRANCH  18  19
ATOM     19  N   UNL     1       2.885   3.299  19.772  0.00  0.00    +0.000 NA
ATOM     20  C   UNL     1       1.530   3.032  19.293  0.00  0.00    +0.000 C 
ATOM     21  C   UNL     1       0.746   3.410  20.535  0.00  0.00    +0.000 C 
ATOM     22  C   UNL     1       1.632   2.941  21.690  0.00  0.00    +0.000 C 
ATOM     23  C   UNL     1       2.983   2.616  21.052  0.00  0.00    +0.000 C 
ENDBRANCH  18  19
ENDBRANCH   2  18
TORSDOF 4
ENDMDL
MODEL 3
REMARK VINA RESULT:      -7.7      1.383      4.960
REMARK  Name = 
REMARK  4 active torsions:
REMARK  status: ('A' for Active; 'I' for Inactive)
REMARK    1  A    between atoms: C_5  and  C_6
REMARK    2  A    between atoms: C_6  and  N_7
REMARK    3  A    between atoms: C_8  and  C_9
REMARK    4  A    between atoms: C_9  and  N_10
REMARK                            x       y       z     vdW  Elec       q    Type
REMARK                         _______ _______ _______ _____ _____    ______ ____
ROOT
ATOM      1  N   UNL     1       4.529   5.449  18.156  0.00  0.00    +0.000 N 
ATOM      2  C   UNL     1       4.849   4.207  18.687  0.00  0.00    +0.000 A 
ATOM      3  N   UNL     1       6.133   4.162  19.002  0.00  0.00    +0.000 NA
ATOM      4  C   UNL     1       6.660   5.372  18.626  0.00  0.00    +0.000 A 
ATOM      5  C   UNL     1       7.992   5.809  18.642  0.00  0.00    +0.000 A 
ATOM      6  C   UNL     1       8.285   7.100  18.183  0.00  0.00    +0.000 A 
ATOM      7  C   UNL     1       7.272   7.947  17.724  0.00  0.00    +0.000 A 
ATOM      8  C   UNL     1       5.940   7.520  17.693  0.00  0.00    +0.000 A 
ATOM      9  C   UNL     1       5.673   6.221  18.141  0.00  0.00    +0.000 A 
ENDROOT
BRANCH   1  10
ATOM     10  C   UNL     1       3.251   5.856  17.585  0.00  0.00    +0.000 C 
BRANCH  10  15
ATOM     11  F   UNL     1       0.575  10.073  20.251  0.00  0.00    +0.000 F 
ATOM     12  C   UNL     1       1.222   9.076  19.635  0.00  0.00    +0.000 A 
ATOM     13  C   UNL     1       1.593   7.953  20.358  0.00  0.00    +0.000 A 
ATOM     14  C   UNL     1       2.263   6.913  19.715  0.00  0.00    +0.000 A 
ATOM     15  C   UNL     1       2.549   6.973  18.339  0.00  0.00    +0.000 A 
ATOM     16  C   UNL     1       2.177   8.132  17.634  0.00  0.00    +0.000 A 
ATOM     17  C   UNL     1       1.515   9.178  18.282  0.00  0.00    +0.000 A 
ENDBRANCH  10  15
ENDBRANCH   1  10
BRANCH   2  18
ATOM     18  C   UNL     1       3.900   3.041  18.730  0.00  0.00    +0.000 C 
BRANCH  18  19
ATOM     19  N   UNL     1       2.866   3.324  19.714  0.00  0.00    +0.000 NA
ATOM     20  C   UNL     1       1.505   3.091  19.233  0.00  0.00    +0.000 C 
ATOM     21  C   UNL     1       0.731   3.457  20.485  0.00  0.00    +0.000 C 
ATOM     22  C   UNL     1       1.612   2.951  21.628  0.00  0.00    +0.000 C 
ATOM     23  C   UNL     1       2.956   2.616  20.979  0.00  0.00    +0.000 C 
ENDBRANCH  18  19
ENDBRANCH   2  18
TORSDOF 4
ENDMDL
MODEL 4
REMARK VINA RESULT:      -7.6      0.126      1.012
REMARK  Name = 
REMARK  4 active torsions:
REMARK  status: ('A' for Active; 'I' for Inactive)
REMARK    1  A    between atoms: C_5  and  C_6
REMARK    2  A    between atoms: C_6  and  N_7
REMARK    3  A    between atoms: C_8  and  C_9
REMARK    4  A    between atoms: C_9  and  N_10
REMARK                            x       y       z     vdW  Elec       q    Type
REMARK                         _______ _______ _______ _____ _____    ______ ____
ROOT
ATOM      1  N   UNL     1       3.090   5.569  18.600  0.00  0.00    +0.000 N 
ATOM      2  C   UNL     1       3.689   5.180  17.411  0.00  0.00    +0.000 A 
ATOM      3  N   UNL     1       3.274   3.972  17.064  0.00  0.00    +0.000 NA
ATOM      4  C   UNL     1       2.435   3.555  18.067  0.00  0.00    +0.000 A 
ATOM      5  C   UNL     1       1.807   2.315  18.247  0.00  0.00    +0.000 A 
ATOM      6  C   UNL     1       1.001   2.124  19.377  0.00  0.00    +0.000 A 
ATOM      7  C   UNL     1       0.813   3.150  20.308  0.00  0.00    +0.000 A 
ATOM      8  C   UNL     1       1.442   4.389  20.146  0.00  0.00    +0.000 A 
ATOM      9  C   UNL     1       2.255   4.552  19.018  0.00  0.00    +0.000 A 
ENDROOT
BRANCH   1  10
ATOM     10  C   UNL     1       3.368   6.776  19.369  0.00  0.00    +0.000 C 
BRANCH  10  15
ATOM     11  F   UNL     1      -0.618  10.757  18.805  0.00  0.00    +0.000 F 
ATOM     12  C   UNL     1       0.332   9.826  18.955  0.00  0.00    +0.000 A 
ATOM     13  C   UNL     1       0.539   9.255  20.200  0.00  0.00    +0.000 A 
ATOM     14  C   UNL     1       1.526   8.282  20.354  0.00  0.00    +0.000 A 
ATOM     15  C   UNL     1       2.301   7.853  19.262  0.00  0.00    +0.000 A 
ATOM     16  C   UNL     1       2.082   8.462  18.013  0.00  0.00    +0.000 A 
ATOM     17  C   UNL     1       1.100   9.444  17.862  0.00  0.00    +0.000 A 
ENDBRANCH  10  15
ENDBRANCH   1  10
BRANCH   2  18
ATOM     18  C   UNL     1       4.776   5.959  16.721  0.00  0.00    +0.000 C 
BRANCH  18  19
ATOM     19  N   UNL     1       5.882   6.128  17.651  0.00  0.00    +0.000 NA
ATOM     20  C   UNL     1       6.711   4.936  17.814  0.00  0.00    +0.000 C 
ATOM     21  C   UNL     1       7.732   5.474  18.799  0.00  0.00    +0.000 C 
ATOM     22  C   UNL     1       7.940   6.925  18.363  0.00  0.00    +0.000 C 
ATOM     23  C   UNL     1       6.811   7.210  17.371  0.00  0.00    +0.000 C 
ENDBRANCH  18  19
ENDBRANCH   2  18
TORSDOF 4
ENDMDL
MODEL 5
REMARK VINA RESULT:      -7.4      2.234      4.748
REMARK  Name = 
REMARK  4 active torsions:
REMARK  status: ('A' for Active; 'I' for Inactive)
REMARK    1  A    between atoms: C_5  and  C_6
REMARK    2  A    between atoms: C_6  and  N_7
REMARK    3  A    between atoms: C_8  and  C_9
REMARK    4  A    between atoms: C_9  and  N_10
REMARK                            x       y       z     vdW  Elec       q    Type
REMARK                         _______ _______ _______ _____ _____    ______ ____
ROOT
ATOM      1  N   UNL     1       3.035   7.052  19.019  0.00  0.00    +0.000 N 
ATOM      2  C   UNL     1       3.399   7.481  17.752  0.00  0.00    +0.000 A 
ATOM      3  N   UNL     1       2.729   8.575  17.429  0.00  0.00    +0.000 NA
ATOM      4  C   UNL     1       1.885   8.829  18.481  0.00  0.00    +0.000 A 
ATOM      5  C   UNL     1       0.888   9.806  18.610  0.00  0.00    +0.000 A 
ATOM      6  C   UNL     1       0.136   9.852  19.791  0.00  0.00    +0.000 A 
ATOM      7  C   UNL     1       0.375   8.949  20.830  0.00  0.00    +0.000 A 
ATOM      8  C   UNL     1       1.360   7.962  20.712  0.00  0.00    +0.000 A 
ATOM      9  C   UNL     1       2.088   7.925  19.516  0.00  0.00    +0.000 A 
ENDROOT
BRANCH   1  10
ATOM     10  C   UNL     1       3.459   5.827  19.688  0.00  0.00    +0.000 C 
BRANCH  10  15
ATOM     11  F   UNL     1       0.211   1.335  18.539  0.00  0.00    +0.000 F 
ATOM     12  C   UNL     1       0.995   2.386  18.809  0.00  0.00    +0.000 A 
ATOM     13  C   UNL     1       2.058   2.677  17.969  0.00  0.00    +0.000 A 
ATOM     14  C   UNL     1       2.872   3.775  18.248  0.00  0.00    +0.000 A 
ATOM     15  C   UNL     1       2.621   4.604  19.355  0.00  0.00    +0.000 A 
ATOM     16  C   UNL     1       1.546   4.274  20.201  0.00  0.00    +0.000 A 
ATOM     17  C   UNL     1       0.737   3.169  19.926  0.00  0.00    +0.000 A 
ENDBRANCH  10  15
ENDBRANCH   1  10
BRANCH   2  18
ATOM     18  C   UNL     1       4.300   6.706  16.828  0.00  0.00    +0.000 C 
BRANCH  18  19
ATOM     19  N   UNL     1       5.552   6.442  17.520  0.00  0.00    +0.000 NA
ATOM     20  C   UNL     1       6.189   5.183  17.140  0.00  0.00    +0.000 C 
ATOM     21  C   UNL     1       7.427   5.255  18.012  0.00  0.00    +0.000 C 
ATOM     22  C   UNL     1       7.800   6.739  18.006  0.00  0.00    +0.000 C 
ATOM     23  C   UNL     1       6.590   7.452  17.399  0.00  0.00    +0.000 C 
ENDBRANCH  18  19
ENDBRANCH   2  18
TORSDOF 4
ENDMDL
MODEL 6
REMARK VINA RESULT:      -7.4      2.236      4.845
REMARK  Name = 
REMARK  4 active torsions:
REMARK  status: ('A' for Active; 'I' for Inactive)
REMARK    1  A    between atoms: C_5  and  C_6
REMARK    2  A    between atoms: C_6  and  N_7
REMARK    3  A    between atoms: C_8  and  C_9
REMARK    4  A    between atoms: C_9  and  N_10
REMARK                            x       y       z     vdW  Elec       q    Type
REMARK                         _______ _______ _______ _____ _____    ______ ____
ROOT
ATOM      1  N   UNL     1       2.999   7.116  19.020  0.00  0.00    +0.000 N 
ATOM      2  C   UNL     1       3.378   7.534  17.753  0.00  0.00    +0.000 A 
ATOM      3  N   UNL     1       2.719   8.632  17.418  0.00  0.00    +0.000 NA
ATOM      4  C   UNL     1       1.867   8.898  18.461  0.00  0.00    +0.000 A 
ATOM      5  C   UNL     1       0.876   9.883  18.575  0.00  0.00    +0.000 A 
ATOM      6  C   UNL     1       0.114   9.941  19.750  0.00  0.00    +0.000 A 
ATOM      7  C   UNL     1       0.338   9.043  20.797  0.00  0.00    +0.000 A 
ATOM      8  C   UNL     1       1.316   8.049  20.692  0.00  0.00    +0.000 A 
ATOM      9  C   UNL     1       2.055   7.999  19.504  0.00  0.00    +0.000 A 
ENDROOT
BRANCH   1  10
ATOM     10  C   UNL     1       3.408   5.892  19.699  0.00  0.00    +0.000 C 
BRANCH  10  15
ATOM     11  F   UNL     1       0.223   1.350  18.574  0.00  0.00    +0.000 F 
ATOM     12  C   UNL     1       0.959   2.435  18.843  0.00  0.00    +0.000 A 
ATOM     13  C   UNL     1       0.681   3.186  19.974  0.00  0.00    +0.000 A 
ATOM     14  C   UNL     1       1.451   4.314  20.255  0.00  0.00    +0.000 A 
ATOM     15  C   UNL     1       2.521   4.690  19.423  0.00  0.00    +0.000 A 
ATOM     16  C   UNL     1       2.769   3.919  18.272  0.00  0.00    +0.000 A 
ATOM     17  C   UNL     1       1.990   2.796  17.986  0.00  0.00    +0.000 A 
ENDBRANCH  10  15
ENDBRANCH   1  10
BRANCH   2  18
ATOM     18  C   UNL     1       4.280   6.748  16.842  0.00  0.00    +0.000 C 
BRANCH  18  19
ATOM     19  N   UNL     1       5.522   6.472  17.548  0.00  0.00    +0.000 NA
ATOM     20  C   UNL     1       6.124   5.183  17.214  0.00  0.00    +0.000 C 
ATOM     21  C   UNL     1       7.361   5.250  18.090  0.00  0.00    +0.000 C 
ATOM     22  C   UNL     1       7.774   6.722  18.037  0.00  0.00    +0.000 C 
ATOM     23  C   UNL     1       6.589   7.448  17.400  0.00  0.00    +0.000 C 
ENDBRANCH  18  19
ENDBRANCH   2  18
TORSDOF 4
ENDMDL
MODEL 7
REMARK VINA RESULT:      -7.2      3.892      7.263
REMARK  Name = 
REMARK  4 active torsions:
REMARK  status: ('A' for Active; 'I' for Inactive)
REMARK    1  A    between atoms: C_5  and  C_6
REMARK    2  A    between atoms: C_6  and  N_7
REMARK    3  A    between atoms: C_8  and  C_9
REMARK    4  A    between atoms: C_9  and  N_10
REMARK                            x       y       z     vdW  Elec       q    Type
REMARK                         _______ _______ _______ _____ _____    ______ ____
ROOT
ATOM      1  N   UNL     1       5.417   5.363  16.993  0.00  0.00    +0.000 N 
ATOM      2  C   UNL     1       5.136   4.266  17.794  0.00  0.00    +0.000 A 
ATOM      3  N   UNL     1       5.893   4.285  18.879  0.00  0.00    +0.000 NA
ATOM      4  C   UNL     1       6.710   5.382  18.753  0.00  0.00    +0.000 A 
ATOM      5  C   UNL     1       7.766   5.806  19.571  0.00  0.00    +0.000 A 
ATOM      6  C   UNL     1       8.471   6.964  19.217  0.00  0.00    +0.000 A 
ATOM      7  C   UNL     1       8.127   7.694  18.076  0.00  0.00    +0.000 A 
ATOM      8  C   UNL     1       7.082   7.277  17.246  0.00  0.00    +0.000 A 
ATOM      9  C   UNL     1       6.402   6.108  17.610  0.00  0.00    +0.000 A 
ENDROOT
BRANCH   1  10
ATOM     10  C   UNL     1       4.882   5.641  15.666  0.00  0.00    +0.000 C 
BRANCH  10  15
ATOM     11  F   UNL     1       7.558   3.128  11.356  0.00  0.00    +0.000 F 
ATOM     12  C   UNL     1       6.942   3.719  12.387  0.00  0.00    +0.000 A 
ATOM     13  C   UNL     1       7.617   4.672  13.132  0.00  0.00    +0.000 A 
ATOM     14  C   UNL     1       6.972   5.289  14.203  0.00  0.00    +0.000 A 
ATOM     15  C   UNL     1       5.640   4.978  14.528  0.00  0.00    +0.000 A 
ATOM     16  C   UNL     1       4.984   3.994  13.765  0.00  0.00    +0.000 A 
ATOM     17  C   UNL     1       5.635   3.369  12.699  0.00  0.00    +0.000 A 
ENDBRANCH  10  15
ENDBRANCH   1  10
BRANCH   2  18
ATOM     18  C   UNL     1       4.222   3.142  17.390  0.00  0.00    +0.000 C 
BRANCH  18  19
ATOM     19  N   UNL     1       3.094   3.111  18.309  0.00  0.00    +0.000 NA
ATOM     20  C   UNL     1       2.308   4.342  18.329  0.00  0.00    +0.000 C 
ATOM     21  C   UNL     1       1.251   3.948  19.344  0.00  0.00    +0.000 C 
ATOM     22  C   UNL     1       0.997   2.467  19.059  0.00  0.00    +0.000 C 
ATOM     23  C   UNL     1       2.130   2.039  18.125  0.00  0.00    +0.000 C 
ENDBRANCH  18  19
ENDBRANCH   2  18
TORSDOF 4
ENDMDL
MODEL 8
REMARK VINA RESULT:      -7.2      1.028      1.491
REMARK  Name = 
REMARK  4 active torsions:
REMARK  status: ('A' for Active; 'I' for Inactive)
REMARK    1  A    between atoms: C_5  and  C_6
REMARK    2  A    between atoms: C_6  and  N_7
REMARK    3  A    between atoms: C_8  and  C_9
REMARK    4  A    between atoms: C_9  and  N_10
REMARK                            x       y       z     vdW  Elec       q    Type
REMARK                         _______ _______ _______ _____ _____    ______ ____
ROOT
ATOM      1  N   UNL     1       2.785   5.715  18.865  0.00  0.00    +0.000 N 
ATOM      2  C   UNL     1       3.386   5.404  17.654  0.00  0.00    +0.000 A 
ATOM      3  N   UNL     1       3.030   4.191  17.265  0.00  0.00    +0.000 NA
ATOM      4  C   UNL     1       2.228   3.692  18.262  0.00  0.00    +0.000 A 
ATOM      5  C   UNL     1       1.669   2.414  18.401  0.00  0.00    +0.000 A 
ATOM      6  C   UNL     1       0.891   2.137  19.533  0.00  0.00    +0.000 A 
ATOM      7  C   UNL     1       0.664   3.115  20.505  0.00  0.00    +0.000 A 
ATOM      8  C   UNL     1       1.224   4.391  20.384  0.00  0.00    +0.000 A 
ATOM      9  C   UNL     1       2.011   4.640  19.253  0.00  0.00    +0.000 A 
ENDROOT
BRANCH   1  10
ATOM     10  C   UNL     1       3.011   6.905  19.677  0.00  0.00    +0.000 C 
BRANCH  10  15
ATOM     11  F   UNL     1      -0.746  11.090  19.030  0.00  0.00    +0.000 F 
ATOM     12  C   UNL     1       0.134  10.091  19.167  0.00  0.00    +0.000 A 
ATOM     13  C   UNL     1       0.851   9.656  18.064  0.00  0.00    +0.000 A 
ATOM     14  C   UNL     1       1.771   8.618  18.209  0.00  0.00    +0.000 A 
ATOM     15  C   UNL     1       2.000   8.019  19.459  0.00  0.00    +0.000 A 
ATOM     16  C   UNL     1       1.246   8.468  20.559  0.00  0.00    +0.000 A 
ATOM     17  C   UNL     1       0.317   9.501  20.411  0.00  0.00    +0.000 A 
ENDBRANCH  10  15
ENDBRANCH   1  10
BRANCH   2  18
ATOM     18  C   UNL     1       4.420   6.266  16.982  0.00  0.00    +0.000 C 
BRANCH  18  19
ATOM     19  N   UNL     1       5.430   5.399  16.393  0.00  0.00    +0.000 NA
ATOM     20  C   UNL     1       5.537   5.512  14.940  0.00  0.00    +0.000 C 
ATOM     21  C   UNL     1       6.658   4.519  14.694  0.00  0.00    +0.000 C 
ATOM     22  C   UNL     1       7.584   4.699  15.898  0.00  0.00    +0.000 C 
ATOM     23  C   UNL     1       6.786   5.543  16.893  0.00  0.00    +0.000 C 
ENDBRANCH  18  19
ENDBRANCH   2  18
TORSDOF 4
ENDMDL
MODEL 9
REMARK VINA RESULT:      -7.2      2.580      6.122
REMARK  Name = 
REMARK  4 active torsions:
REMARK  status: ('A' for Active; 'I' for Inactive)
REMARK    1  A    between atoms: C_5  and  C_6
REMARK    2  A    between atoms: C_6  and  N_7
REMARK    3  A    between atoms: C_8  and  C_9
REMARK    4  A    between atoms: C_9  and  N_10
REMARK                            x       y       z     vdW  Elec       q    Type
REMARK                         _______ _______ _______ _____ _____    ______ ____
ROOT
ATOM      1  N   UNL     1       2.326   6.614  19.020  0.00  0.00    +0.000 N 
ATOM      2  C   UNL     1       1.921   6.220  20.288  0.00  0.00    +0.000 A 
ATOM      3  N   UNL     1       1.331   7.225  20.913  0.00  0.00    +0.000 NA
ATOM      4  C   UNL     1       1.398   8.297  20.057  0.00  0.00    +0.000 A 
ATOM      5  C   UNL     1       1.016   9.630  20.265  0.00  0.00    +0.000 A 
ATOM      6  C   UNL     1       1.205  10.556  19.231  0.00  0.00    +0.000 A 
ATOM      7  C   UNL     1       1.756  10.164  18.008  0.00  0.00    +0.000 A 
ATOM      8  C   UNL     1       2.151   8.840  17.790  0.00  0.00    +0.000 A 
ATOM      9  C   UNL     1       1.967   7.936  18.843  0.00  0.00    +0.000 A 
ENDROOT
BRANCH   1  10
ATOM     10  C   UNL     1       3.109   5.837  18.067  0.00  0.00    +0.000 C 
BRANCH  10  15
ATOM     11  F   UNL     1       8.700   6.628  18.468  0.00  0.00    +0.000 F 
ATOM     12  C   UNL     1       7.381   6.421  18.374  0.00  0.00    +0.000 A 
ATOM     13  C   UNL     1       6.760   5.556  19.261  0.00  0.00    +0.000 A 
ATOM     14  C   UNL     1       5.385   5.344  19.164  0.00  0.00    +0.000 A 
ATOM     15  C   UNL     1       4.613   6.010  18.197  0.00  0.00    +0.000 A 
ATOM     16  C   UNL     1       5.272   6.869  17.297  0.00  0.00    +0.000 A 
ATOM     17  C   UNL     1       6.651   7.072  17.388  0.00  0.00    +0.000 A 
ENDBRANCH  10  15
ENDBRANCH   1  10
BRANCH   2  18
ATOM     18  C   UNL     1       2.264   4.892  20.905  0.00  0.00    +0.000 C 
BRANCH  18  19
ATOM     19  N   UNL     1       2.103   3.858  19.894  0.00  0.00    +0.000 NA
ATOM     20  C   UNL     1       2.972   2.698  20.083  0.00  0.00    +0.000 C 
ATOM     21  C   UNL     1       2.527   1.857  18.902  0.00  0.00    +0.000 C 
ATOM     22  C   UNL     1       1.024   2.120  18.803  0.00  0.00    +0.000 C 
ATOM     23  C   UNL     1       0.766   3.316  19.721  0.00  0.00    +0.000 C 
ENDBRANCH  18  19
ENDBRANCH   2  18
TORSDOF 4
ENDMDL
