MODEL 1
REMARK VINA RESULT:      -6.9      0.000      0.000
REMARK  Name = 
REMARK  2 active torsions:
REMARK  status: ('A' for Active; 'I' for Inactive)
REMARK    1  A    between atoms: N_8  and  C_9
REMARK    2  A    between atoms: C_9  and  C_10
REMARK                            x       y       z     vdW  Elec       q    Type
REMARK                         _______ _______ _______ _____ _____    ______ ____
ROOT
ATOM      1  O   UNL     1       4.320   2.186  20.022  0.00  0.00    +0.000 OA
ATOM      2  C   UNL     1       3.279   2.606  19.549  0.00  0.00    +0.000 C 
ATOM      3  C   UNL     1       1.949   2.239  20.106  0.00  0.00    +0.000 C 
ATOM      4  C   UNL     1       1.009   3.216  20.745  0.00  0.00    +0.000 C 
ATOM      5  C   UNL     1       0.946   3.022  19.254  0.00  0.00    +0.000 C 
ATOM      6  C   UNL     1       1.787   3.719  18.241  0.00  0.00    +0.000 C 
ATOM      7  O   UNL     1       1.303   4.382  17.340  0.00  0.00    +0.000 OA
ATOM      8  N   UNL     1       3.101   3.348  18.414  0.00  0.00    +0.000 N 
ENDROOT
BRANCH   8   9
ATOM      9  C   UNL     1       3.993   3.187  17.287  0.00  0.00    +0.000 C 
BRANCH   9  10
ATOM     10  C   UNL     1       4.880   4.396  17.070  0.00  0.00    +0.000 C 
ATOM     11  C   UNL     1       5.888   4.770  18.179  0.00  0.00    +0.000 C 
ATOM     12  C   UNL     1       7.013   4.820  17.121  0.00  0.00    +0.000 C 
ATOM     13  F   UNL     1       8.160   4.186  17.458  0.00  0.00    +0.000 F 
ATOM     14  F   UNL     1       7.360   6.058  16.701  0.00  0.00    +0.000 F 
ATOM     15  C   UNL     1       6.089   4.044  16.165  0.00  0.00    +0.000 C 
ENDBRANCH   9  10
ENDBRANCH   8   9
TORSDOF 2
ENDMDL
MODEL 2
REMARK VINA RESULT:      -6.9      1.371      2.613
REMARK  Name = 
REMARK  2 active torsions:
REMARK  status: ('A' for Active; 'I' for Inactive)
REMARK    1  A    between atoms: N_8  and  C_9
REMARK    2  A    between atoms: C_9  and  C_10
REMARK                            x       y       z     vdW  Elec       q    Type
REMARK                         _______ _______ _______ _____ _____    ______ ____
ROOT
ATOM      1  O   UNL     1       0.981   3.364  17.994  0.00  0.00    +0.000 OA
ATOM      2  C   UNL     1       1.783   3.190  18.893  0.00  0.00    +0.000 C 
ATOM      3  C   UNL     1       1.500   3.591  20.298  0.00  0.00    +0.000 C 
ATOM      4  C   UNL     1       1.368   2.624  21.436  0.00  0.00    +0.000 C 
ATOM      5  C   UNL     1       2.736   3.142  21.083  0.00  0.00    +0.000 C 
ATOM      6  C   UNL     1       3.648   2.582  20.046  0.00  0.00    +0.000 C 
ATOM      7  O   UNL     1       4.773   2.194  20.311  0.00  0.00    +0.000 OA
ATOM      8  N   UNL     1       3.071   2.739  18.806  0.00  0.00    +0.000 N 
ENDROOT
BRANCH   8   9
ATOM      9  C   UNL     1       3.871   3.027  17.636  0.00  0.00    +0.000 C 
BRANCH   9  10
ATOM     10  C   UNL     1       4.710   4.278  17.798  0.00  0.00    +0.000 C 
ATOM     11  C   UNL     1       5.773   4.587  16.721  0.00  0.00    +0.000 C 
ATOM     12  C   UNL     1       5.203   6.017  16.586  0.00  0.00    +0.000 C 
ATOM     13  F   UNL     1       5.011   6.451  15.319  0.00  0.00    +0.000 F 
ATOM     14  F   UNL     1       5.898   6.982  17.228  0.00  0.00    +0.000 F 
ATOM     15  C   UNL     1       3.936   5.533  17.315  0.00  0.00    +0.000 C 
ENDBRANCH   9  10
ENDBRANCH   8   9
TORSDOF 2
ENDMDL
MODEL 3
REMARK VINA RESULT:      -6.8      3.479      5.785
REMARK  Name = 
REMARK  2 active torsions:
REMARK  status: ('A' for Active; 'I' for Inactive)
REMARK    1  A    between atoms: N_8  and  C_9
REMARK    2  A    between atoms: C_9  and  C_10
REMARK                            x       y       z     vdW  Elec       q    Type
REMARK                         _______ _______ _______ _____ _____    ______ ____
ROOT
ATOM      1  O   UNL     1       5.560   6.306  15.586  0.00  0.00    +0.000 OA
ATOM      2  C   UNL     1       6.143   6.197  16.650  0.00  0.00    +0.000 C 
ATOM      3  C   UNL     1       7.467   6.829  16.898  0.00  0.00    +0.000 C 
ATOM      4  C   UNL     1       7.703   7.917  17.901  0.00  0.00    +0.000 C 
ATOM      5  C   UNL     1       7.791   6.485  18.355  0.00  0.00    +0.000 C 
ATOM      6  C   UNL     1       6.651   5.631  18.794  0.00  0.00    +0.000 C 
ATOM      7  O   UNL     1       6.617   5.109  19.895  0.00  0.00    +0.000 OA
ATOM      8  N   UNL     1       5.803   5.430  17.729  0.00  0.00    +0.000 N 
ENDROOT
BRANCH   8   9
ATOM      9  C   UNL     1       5.111   4.173  17.545  0.00  0.00    +0.000 C 
BRANCH   9  10
ATOM     10  C   UNL     1       3.860   4.068  18.394  0.00  0.00    +0.000 C 
ATOM     11  C   UNL     1       2.868   5.252  18.380  0.00  0.00    +0.000 C 
ATOM     12  C   UNL     1       1.716   4.266  18.079  0.00  0.00    +0.000 C 
ATOM     13  F   UNL     1       0.872   4.640  17.090  0.00  0.00    +0.000 F 
ATOM     14  F   UNL     1       0.950   3.928  19.140  0.00  0.00    +0.000 F 
ATOM     15  C   UNL     1       2.774   3.220  17.682  0.00  0.00    +0.000 C 
ENDBRANCH   9  10
ENDBRANCH   8   9
TORSDOF 2
ENDMDL
MODEL 4
REMARK VINA RESULT:      -6.8      1.174      1.756
REMARK  Name = 
REMARK  2 active torsions:
REMARK  status: ('A' for Active; 'I' for Inactive)
REMARK    1  A    between atoms: N_8  and  C_9
REMARK    2  A    between atoms: C_9  and  C_10
REMARK                            x       y       z     vdW  Elec       q    Type
REMARK                         _______ _______ _______ _____ _____    ______ ____
ROOT
ATOM      1  O   UNL     1       4.561   2.684  19.992  0.00  0.00    +0.000 OA
ATOM      2  C   UNL     1       3.444   2.903  19.561  0.00  0.00    +0.000 C 
ATOM      3  C   UNL     1       2.219   2.395  20.235  0.00  0.00    +0.000 C 
ATOM      4  C   UNL     1       1.178   3.275  20.859  0.00  0.00    +0.000 C 
ATOM      5  C   UNL     1       1.061   2.943  19.396  0.00  0.00    +0.000 C 
ATOM      6  C   UNL     1       1.728   3.664  18.275  0.00  0.00    +0.000 C 
ATOM      7  O   UNL     1       1.099   4.168  17.361  0.00  0.00    +0.000 OA
ATOM      8  N   UNL     1       3.091   3.508  18.386  0.00  0.00    +0.000 N 
ENDROOT
BRANCH   8   9
ATOM      9  C   UNL     1       3.932   3.382  17.216  0.00  0.00    +0.000 C 
BRANCH   9  10
ATOM     10  C   UNL     1       5.028   4.427  17.172  0.00  0.00    +0.000 C 
ATOM     11  C   UNL     1       5.601   4.826  15.794  0.00  0.00    +0.000 C 
ATOM     12  C   UNL     1       5.372   6.314  16.145  0.00  0.00    +0.000 C 
ATOM     13  F   UNL     1       4.786   7.057  15.179  0.00  0.00    +0.000 F 
ATOM     14  F   UNL     1       6.472   6.990  16.546  0.00  0.00    +0.000 F 
ATOM     15  C   UNL     1       4.439   5.857  17.281  0.00  0.00    +0.000 C 
ENDBRANCH   9  10
ENDBRANCH   8   9
TORSDOF 2
ENDMDL
MODEL 5
REMARK VINA RESULT:      -6.8      1.379      2.462
REMARK  Name = 
REMARK  2 active torsions:
REMARK  status: ('A' for Active; 'I' for Inactive)
REMARK    1  A    between atoms: N_8  and  C_9
REMARK    2  A    between atoms: C_9  and  C_10
REMARK                            x       y       z     vdW  Elec       q    Type
REMARK                         _______ _______ _______ _____ _____    ______ ____
ROOT
ATOM      1  O   UNL     1       0.713   2.519  18.270  0.00  0.00    +0.000 OA
ATOM      2  C   UNL     1       1.581   2.626  19.116  0.00  0.00    +0.000 C 
ATOM      3  C   UNL     1       1.331   3.269  20.434  0.00  0.00    +0.000 C 
ATOM      4  C   UNL     1       1.392   2.547  21.746  0.00  0.00    +0.000 C 
ATOM      5  C   UNL     1       2.659   3.136  21.186  0.00  0.00    +0.000 C 
ATOM      6  C   UNL     1       3.573   2.484  20.207  0.00  0.00    +0.000 C 
ATOM      7  O   UNL     1       4.752   2.291  20.448  0.00  0.00    +0.000 OA
ATOM      8  N   UNL     1       2.910   2.318  19.013  0.00  0.00    +0.000 N 
ENDROOT
BRANCH   8   9
ATOM      9  C   UNL     1       3.596   2.450  17.746  0.00  0.00    +0.000 C 
BRANCH   9  10
ATOM     10  C   UNL     1       3.582   3.872  17.223  0.00  0.00    +0.000 C 
ATOM     11  C   UNL     1       4.175   4.984  18.118  0.00  0.00    +0.000 C 
ATOM     12  C   UNL     1       5.039   5.461  16.929  0.00  0.00    +0.000 C 
ATOM     13  F   UNL     1       6.340   5.703  17.214  0.00  0.00    +0.000 F 
ATOM     14  F   UNL     1       4.574   6.548  16.274  0.00  0.00    +0.000 F 
ATOM     15  C   UNL     1       4.756   4.115  16.239  0.00  0.00    +0.000 C 
ENDBRANCH   9  10
ENDBRANCH   8   9
TORSDOF 2
ENDMDL
MODEL 6
REMARK VINA RESULT:      -6.8      1.008      2.250
REMARK  Name = 
REMARK  2 active torsions:
REMARK  status: ('A' for Active; 'I' for Inactive)
REMARK    1  A    between atoms: N_8  and  C_9
REMARK    2  A    between atoms: C_9  and  C_10
REMARK                            x       y       z     vdW  Elec       q    Type
REMARK                         _______ _______ _______ _____ _____    ______ ____
ROOT
ATOM      1  O   UNL     1       1.162   3.851  17.690  0.00  0.00    +0.000 OA
ATOM      2  C   UNL     1       1.894   3.569  18.621  0.00  0.00    +0.000 C 
ATOM      3  C   UNL     1       1.513   3.820  20.037  0.00  0.00    +0.000 C 
ATOM      4  C   UNL     1       1.291   2.739  21.051  0.00  0.00    +0.000 C 
ATOM      5  C   UNL     1       2.685   3.272  20.855  0.00  0.00    +0.000 C 
ATOM      6  C   UNL     1       3.666   2.813  19.832  0.00  0.00    +0.000 C 
ATOM      7  O   UNL     1       4.766   2.383  20.133  0.00  0.00    +0.000 OA
ATOM      8  N   UNL     1       3.182   3.112  18.578  0.00  0.00    +0.000 N 
ENDROOT
BRANCH   8   9
ATOM      9  C   UNL     1       4.067   3.512  17.506  0.00  0.00    +0.000 C 
BRANCH   9  10
ATOM     10  C   UNL     1       4.445   4.977  17.581  0.00  0.00    +0.000 C 
ATOM     11  C   UNL     1       5.688   5.369  18.410  0.00  0.00    +0.000 C 
ATOM     12  C   UNL     1       6.225   6.171  17.203  0.00  0.00    +0.000 C 
ATOM     13  F   UNL     1       7.528   5.970  16.902  0.00  0.00    +0.000 F 
ATOM     14  F   UNL     1       6.040   7.508  17.267  0.00  0.00    +0.000 F 
ATOM     15  C   UNL     1       5.220   5.417  16.311  0.00  0.00    +0.000 C 
ENDBRANCH   9  10
ENDBRANCH   8   9
TORSDOF 2
ENDMDL
MODEL 7
REMARK VINA RESULT:      -6.8      3.491      5.825
REMARK  Name = 
REMARK  2 active torsions:
REMARK  status: ('A' for Active; 'I' for Inactive)
REMARK    1  A    between atoms: N_8  and  C_9
REMARK    2  A    between atoms: C_9  and  C_10
REMARK                            x       y       z     vdW  Elec       q    Type
REMARK                         _______ _______ _______ _____ _____    ______ ____
ROOT
ATOM      1  O   UNL     1       4.925   6.932  15.865  0.00  0.00    +0.000 OA
ATOM      2  C   UNL     1       5.585   6.378  16.725  0.00  0.00    +0.000 C 
ATOM      3  C   UNL     1       7.061   6.538  16.821  0.00  0.00    +0.000 C 
ATOM      4  C   UNL     1       7.762   7.197  17.970  0.00  0.00    +0.000 C 
ATOM      5  C   UNL     1       7.458   5.726  18.057  0.00  0.00    +0.000 C 
ATOM      6  C   UNL     1       6.180   5.118  18.524  0.00  0.00    +0.000 C 
ATOM      7  O   UNL     1       6.136   4.336  19.458  0.00  0.00    +0.000 OA
ATOM      8  N   UNL     1       5.173   5.458  17.649  0.00  0.00    +0.000 N 
ENDROOT
BRANCH   8   9
ATOM      9  C   UNL     1       4.104   4.535  17.337  0.00  0.00    +0.000 C 
BRANCH   9  10
ATOM     10  C   UNL     1       2.910   4.696  18.255  0.00  0.00    +0.000 C 
ATOM     11  C   UNL     1       1.515   4.319  17.709  0.00  0.00    +0.000 C 
ATOM     12  C   UNL     1       1.278   3.441  18.959  0.00  0.00    +0.000 C 
ATOM     13  F   UNL     1       0.778   2.207  18.718  0.00  0.00    +0.000 F 
ATOM     14  F   UNL     1       0.504   3.996  19.918  0.00  0.00    +0.000 F 
ATOM     15  C   UNL     1       2.792   3.497  19.231  0.00  0.00    +0.000 C 
ENDBRANCH   9  10
ENDBRANCH   8   9
TORSDOF 2
ENDMDL
MODEL 8
REMARK VINA RESULT:      -6.6      1.264      1.413
REMARK  Name = 
REMARK  2 active torsions:
REMARK  status: ('A' for Active; 'I' for Inactive)
REMARK    1  A    between atoms: N_8  and  C_9
REMARK    2  A    between atoms: C_9  and  C_10
REMARK                            x       y       z     vdW  Elec       q    Type
REMARK                         _______ _______ _______ _____ _____    ______ ____
ROOT
ATOM      1  O   UNL     1       4.747   2.168  20.134  0.00  0.00    +0.000 OA
ATOM      2  C   UNL     1       3.828   2.846  19.714  0.00  0.00    +0.000 C 
ATOM      3  C   UNL     1       2.407   2.543  20.033  0.00  0.00    +0.000 C 
ATOM      4  C   UNL     1       1.518   3.440  20.841  0.00  0.00    +0.000 C 
ATOM      5  C   UNL     1       1.611   3.662  19.356  0.00  0.00    +0.000 C 
ATOM      6  C   UNL     1       2.644   4.474  18.652  0.00  0.00    +0.000 C 
ATOM      7  O   UNL     1       2.353   5.417  17.937  0.00  0.00    +0.000 OA
ATOM      8  N   UNL     1       3.875   3.882  18.822  0.00  0.00    +0.000 N 
ENDROOT
BRANCH   8   9
ATOM      9  C   UNL     1       4.870   3.900  17.773  0.00  0.00    +0.000 C 
BRANCH   9  10
ATOM     10  C   UNL     1       5.751   5.132  17.827  0.00  0.00    +0.000 C 
ATOM     11  C   UNL     1       6.171   5.667  19.214  0.00  0.00    +0.000 C 
ATOM     12  C   UNL     1       7.644   5.680  18.748  0.00  0.00    +0.000 C 
ATOM     13  F   UNL     1       8.535   5.148  19.617  0.00  0.00    +0.000 F 
ATOM     14  F   UNL     1       8.127   6.889  18.385  0.00  0.00    +0.000 F 
ATOM     15  C   UNL     1       7.237   4.764  17.579  0.00  0.00    +0.000 C 
ENDBRANCH   9  10
ENDBRANCH   8   9
TORSDOF 2
ENDMDL
MODEL 9
REMARK VINA RESULT:      -6.6      1.450      1.529
REMARK  Name = 
REMARK  2 active torsions:
REMARK  status: ('A' for Active; 'I' for Inactive)
REMARK    1  A    between atoms: N_8  and  C_9
REMARK    2  A    between atoms: C_9  and  C_10
REMARK                            x       y       z     vdW  Elec       q    Type
REMARK                         _______ _______ _______ _____ _____    ______ ____
ROOT
ATOM      1  O   UNL     1       3.341   1.936  18.553  0.00  0.00    +0.000 OA
ATOM      2  C   UNL     1       2.740   2.834  19.113  0.00  0.00    +0.000 C 
ATOM      3  C   UNL     1       1.499   2.591  19.897  0.00  0.00    +0.000 C 
ATOM      4  C   UNL     1       1.386   2.802  21.377  0.00  0.00    +0.000 C 
ATOM      5  C   UNL     1       1.122   3.965  20.459  0.00  0.00    +0.000 C 
ATOM      6  C   UNL     1       2.147   4.888  19.893  0.00  0.00    +0.000 C 
ATOM      7  O   UNL     1       2.107   6.092  20.075  0.00  0.00    +0.000 OA
ATOM      8  N   UNL     1       2.975   4.180  19.052  0.00  0.00    +0.000 N 
ENDROOT
BRANCH   8   9
ATOM      9  C   UNL     1       3.512   4.776  17.849  0.00  0.00    +0.000 C 
BRANCH   9  10
ATOM     10  C   UNL     1       4.794   5.543  18.101  0.00  0.00    +0.000 C 
ATOM     11  C   UNL     1       5.913   4.847  18.907  0.00  0.00    +0.000 C 
ATOM     12  C   UNL     1       6.922   5.208  17.793  0.00  0.00    +0.000 C 
ATOM     13  F   UNL     1       7.738   4.205  17.398  0.00  0.00    +0.000 F 
ATOM     14  F   UNL     1       7.710   6.276  18.049  0.00  0.00    +0.000 F 
ATOM     15  C   UNL     1       5.727   5.490  16.864  0.00  0.00    +0.000 C 
ENDBRANCH   9  10
ENDBRANCH   8   9
TORSDOF 2
ENDMDL
