MODEL 1
REMARK VINA RESULT:      -7.4      0.000      0.000
REMARK  Name = 
REMARK  13 active torsions:
REMARK  status: ('A' for Active; 'I' for Inactive)
REMARK    1  A    between atoms: C_1  and  O_2
REMARK    2  A    between atoms: O_2  and  C_3
REMARK    3  A    between atoms: C_5  and  O_6
REMARK    4  A    between atoms: O_6  and  C_7
REMARK    5  A    between atoms: C_8  and  C_9
REMARK    6  A    between atoms: C_9  and  O_11
REMARK    7  A    between atoms: O_11  and  C_12
REMARK    8  A    between atoms: C_12  and  C_13
REMARK    9  A    between atoms: C_12  and  C_14
REMARK   10  A    between atoms: N_16  and  C_17
REMARK   11  A    between atoms: C_17  and  C_18
REMARK   12  A    between atoms: C_28  and  O_29
REMARK   13  A    between atoms: O_29  and  C_30
REMARK                            x       y       z     vdW  Elec       q    Type
REMARK                         _______ _______ _______ _____ _____    ______ ____
ROOT
ATOM      1  C   UNL     1       2.404   8.006  18.921  0.00  0.00    +0.000 C 
ATOM      2  C   UNL     1       2.523   8.747  17.590  0.00  0.00    +0.000 C 
ENDROOT
BRANCH   1   3
ATOM      3  C   UNL     1       1.352   8.725  19.791  0.00  0.00    +0.000 C 
ATOM      4  O   UNL     1       0.977   8.295  20.878  0.00  0.00    +0.000 OA
ATOM      5  N   UNL     1       0.791   9.835  19.217  0.00  0.00    +0.000 N 
ATOM      6  H   UNL     1       1.277  10.258  18.429  0.00  0.00    +0.000 HD
BRANCH   5   7
ATOM      7  C   UNL     1      -0.223  10.598  19.926  0.00  0.00    +0.000 C 
BRANCH   7   8
ATOM      8  C   UNL     1      -1.476  10.652  19.095  0.00  0.00    +0.000 A 
ATOM      9  C   UNL     1      -2.475  11.619  19.363  0.00  0.00    +0.000 A 
ATOM     10  C   UNL     1      -3.490  11.873  18.439  0.00  0.00    +0.000 A 
ATOM     11  C   UNL     1      -3.442  11.182  17.250  0.00  0.00    +0.000 A 
ATOM     12  C   UNL     1      -2.517  10.186  17.018  0.00  0.00    +0.000 A 
ATOM     13  C   UNL     1      -1.549   9.864  17.936  0.00  0.00    +0.000 A 
ATOM     14  O   UNL     1      -2.589   9.704  15.747  0.00  0.00    +0.000 OA
ATOM     15  C   UNL     1      -3.372  10.759  15.156  0.00  0.00    +0.000 C 
ATOM     16  O   UNL     1      -4.176  11.454  16.133  0.00  0.00    +0.000 OA
ENDBRANCH   7   8
ENDBRANCH   5   7
ENDBRANCH   1   3
BRANCH   1  17
ATOM     17  O   UNL     1       2.075   6.630  18.680  0.00  0.00    +0.000 OA
BRANCH  17  18
ATOM     18  C   UNL     1       2.961   5.741  19.185  0.00  0.00    +0.000 C 
ATOM     19  O   UNL     1       3.059   5.454  20.374  0.00  0.00    +0.000 OA
BRANCH  18  23
ATOM     20  C   UNL     1       5.777   4.425  16.191  0.00  0.00    +0.000 A 
ATOM     21  C   UNL     1       4.793   3.532  16.646  0.00  0.00    +0.000 A 
ATOM     22  C   UNL     1       3.848   3.892  17.623  0.00  0.00    +0.000 A 
ATOM     23  C   UNL     1       3.914   5.177  18.175  0.00  0.00    +0.000 A 
ATOM     24  C   UNL     1       4.962   6.035  17.779  0.00  0.00    +0.000 A 
ATOM     25  C   UNL     1       5.899   5.675  16.798  0.00  0.00    +0.000 A 
BRANCH  20  27
ATOM     26  C   UNL     1       6.078   4.121  13.868  0.00  0.00    +0.000 C 
ATOM     27  O   UNL     1       6.633   4.065  15.182  0.00  0.00    +0.000 OA
ENDBRANCH  20  27
BRANCH  22  28
ATOM     28  O   UNL     1       2.861   3.039  18.041  0.00  0.00    +0.000 OA
ATOM     29  C   UNL     1       3.266   1.785  18.582  0.00  0.00    +0.000 C 
ENDBRANCH  22  28
BRANCH  25  30
ATOM     30  O   UNL     1       6.808   6.668  16.562  0.00  0.00    +0.000 OA
ATOM     31  C   UNL     1       7.566   7.188  17.643  0.00  0.00    +0.000 C 
ENDBRANCH  25  30
ENDBRANCH  18  23
ENDBRANCH  17  18
ENDBRANCH   1  17
TORSDOF 9
ENDMDL
MODEL 2
REMARK VINA RESULT:      -7.4      2.402      4.137
REMARK  Name = 
REMARK  13 active torsions:
REMARK  status: ('A' for Active; 'I' for Inactive)
REMARK    1  A    between atoms: C_1  and  O_2
REMARK    2  A    between atoms: O_2  and  C_3
REMARK    3  A    between atoms: C_5  and  O_6
REMARK    4  A    between atoms: O_6  and  C_7
REMARK    5  A    between atoms: C_8  and  C_9
REMARK    6  A    between atoms: C_9  and  O_11
REMARK    7  A    between atoms: O_11  and  C_12
REMARK    8  A    between atoms: C_12  and  C_13
REMARK    9  A    between atoms: C_12  and  C_14
REMARK   10  A    between atoms: N_16  and  C_17
REMARK   11  A    between atoms: C_17  and  C_18
REMARK   12  A    between atoms: C_28  and  O_29
REMARK   13  A    between atoms: O_29  and  C_30
REMARK                            x       y       z     vdW  Elec       q    Type
REMARK                         _______ _______ _______ _____ _____    ______ ____
ROOT
ATOM      1  C   UNL     1       0.983   3.352  18.630  0.00  0.00    +0.000 C 
ATOM      2  C   UNL     1       1.219   1.900  19.045  0.00  0.00    +0.000 C 
ENDROOT
BRANCH   1   3
ATOM      3  C   UNL     1       1.316   4.264  19.829  0.00  0.00    +0.000 C 
ATOM      4  O   UNL     1       1.137   3.927  20.996  0.00  0.00    +0.000 OA
ATOM      5  N   UNL     1       1.740   5.523  19.495  0.00  0.00    +0.000 N 
ATOM      6  H   UNL     1       2.065   5.677  18.543  0.00  0.00    +0.000 HD
BRANCH   5   7
ATOM      7  C   UNL     1       2.074   6.487  20.530  0.00  0.00    +0.000 C 
BRANCH   7   8
ATOM      8  C   UNL     1       1.797   7.876  20.025  0.00  0.00    +0.000 A 
ATOM      9  C   UNL     1       2.066   8.219  18.678  0.00  0.00    +0.000 A 
ATOM     10  C   UNL     1       1.552   9.393  18.123  0.00  0.00    +0.000 A 
ATOM     11  C   UNL     1       0.741  10.163  18.925  0.00  0.00    +0.000 A 
ATOM     12  C   UNL     1       0.541   9.872  20.257  0.00  0.00    +0.000 A 
ATOM     13  C   UNL     1       1.090   8.764  20.852  0.00  0.00    +0.000 A 
ATOM     14  O   UNL     1      -0.369  10.706  20.834  0.00  0.00    +0.000 OA
ATOM     15  C   UNL     1      -0.953  11.255  19.637  0.00  0.00    +0.000 C 
ATOM     16  O   UNL     1      -0.048  11.195  18.513  0.00  0.00    +0.000 OA
ENDBRANCH   7   8
ENDBRANCH   5   7
ENDBRANCH   1   3
BRANCH   1  17
ATOM     17  O   UNL     1       1.768   3.656  17.469  0.00  0.00    +0.000 OA
BRANCH  17  18
ATOM     18  C   UNL     1       2.929   2.966  17.377  0.00  0.00    +0.000 C 
ATOM     19  O   UNL     1       3.007   1.746  17.269  0.00  0.00    +0.000 OA
BRANCH  18  23
ATOM     20  C   UNL     1       6.537   5.332  17.454  0.00  0.00    +0.000 A 
ATOM     21  C   UNL     1       6.015   4.839  18.661  0.00  0.00    +0.000 A 
ATOM     22  C   UNL     1       4.841   4.067  18.710  0.00  0.00    +0.000 A 
ATOM     23  C   UNL     1       4.161   3.808  17.513  0.00  0.00    +0.000 A 
ATOM     24  C   UNL     1       4.642   4.385  16.319  0.00  0.00    +0.000 A 
ATOM     25  C   UNL     1       5.818   5.149  16.273  0.00  0.00    +0.000 A 
BRANCH  20  27
ATOM     26  C   UNL     1       7.613   7.430  17.602  0.00  0.00    +0.000 C 
ATOM     27  O   UNL     1       7.725   6.016  17.435  0.00  0.00    +0.000 OA
ENDBRANCH  20  27
BRANCH  22  28
ATOM     28  O   UNL     1       4.349   3.549  19.879  0.00  0.00    +0.000 OA
ATOM     29  C   UNL     1       4.701   2.206  20.199  0.00  0.00    +0.000 C 
ENDBRANCH  22  28
BRANCH  25  30
ATOM     30  O   UNL     1       6.101   5.587  15.009  0.00  0.00    +0.000 OA
ATOM     31  C   UNL     1       6.923   4.794  14.166  0.00  0.00    +0.000 C 
ENDBRANCH  25  30
ENDBRANCH  18  23
ENDBRANCH  17  18
ENDBRANCH   1  17
TORSDOF 9
ENDMDL
MODEL 3
REMARK VINA RESULT:      -7.2      2.696      9.631
REMARK  Name = 
REMARK  13 active torsions:
REMARK  status: ('A' for Active; 'I' for Inactive)
REMARK    1  A    between atoms: C_1  and  O_2
REMARK    2  A    between atoms: O_2  and  C_3
REMARK    3  A    between atoms: C_5  and  O_6
REMARK    4  A    between atoms: O_6  and  C_7
REMARK    5  A    between atoms: C_8  and  C_9
REMARK    6  A    between atoms: C_9  and  O_11
REMARK    7  A    between atoms: O_11  and  C_12
REMARK    8  A    between atoms: C_12  and  C_13
REMARK    9  A    between atoms: C_12  and  C_14
REMARK   10  A    between atoms: N_16  and  C_17
REMARK   11  A    between atoms: C_17  and  C_18
REMARK   12  A    between atoms: C_28  and  O_29
REMARK   13  A    between atoms: O_29  and  C_30
REMARK                            x       y       z     vdW  Elec       q    Type
REMARK                         _______ _______ _______ _____ _____    ______ ____
ROOT
ATOM      1  C   UNL     1       0.776   9.772  19.632  0.00  0.00    +0.000 C 
ATOM      2  C   UNL     1       0.755   8.798  20.810  0.00  0.00    +0.000 C 
ENDROOT
BRANCH   1   3
ATOM      3  C   UNL     1       1.748   9.229  18.563  0.00  0.00    +0.000 C 
ATOM      4  O   UNL     1       1.922   9.777  17.479  0.00  0.00    +0.000 OA
ATOM      5  N   UNL     1       2.335   8.031  18.874  0.00  0.00    +0.000 N 
ATOM      6  H   UNL     1       2.321   7.735  19.848  0.00  0.00    +0.000 HD
BRANCH   5   7
ATOM      7  C   UNL     1       3.261   7.403  17.947  0.00  0.00    +0.000 C 
BRANCH   7   8
ATOM      8  C   UNL     1       3.257   5.916  18.170  0.00  0.00    +0.000 A 
ATOM      9  C   UNL     1       4.240   5.308  18.988  0.00  0.00    +0.000 A 
ATOM     10  C   UNL     1       4.084   3.995  19.437  0.00  0.00    +0.000 A 
ATOM     11  C   UNL     1       2.919   3.349  19.092  0.00  0.00    +0.000 A 
ATOM     12  C   UNL     1       1.998   3.909  18.234  0.00  0.00    +0.000 A 
ATOM     13  C   UNL     1       2.156   5.171  17.718  0.00  0.00    +0.000 A 
ATOM     14  O   UNL     1       0.881   3.140  18.107  0.00  0.00    +0.000 OA
ATOM     15  C   UNL     1       1.073   2.283  19.249  0.00  0.00    +0.000 C 
ATOM     16  O   UNL     1       2.464   2.178  19.622  0.00  0.00    +0.000 OA
ENDBRANCH   7   8
ENDBRANCH   5   7
ENDBRANCH   1   3
BRANCH   1  17
ATOM     17  O   UNL     1      -0.556   9.950  19.129  0.00  0.00    +0.000 OA
BRANCH  17  18
ATOM     18  C   UNL     1      -0.888  11.233  18.855  0.00  0.00    +0.000 C 
ATOM     19  O   UNL     1      -0.119  12.185  18.938  0.00  0.00    +0.000 OA
BRANCH  18  23
ATOM     20  C   UNL     1      -4.970  11.814  17.579  0.00  0.00    +0.000 A 
ATOM     21  C   UNL     1      -4.598  12.189  18.880  0.00  0.00    +0.000 A 
ATOM     22  C   UNL     1      -3.289  12.023  19.364  0.00  0.00    +0.000 A 
ATOM     23  C   UNL     1      -2.335  11.438  18.522  0.00  0.00    +0.000 A 
ATOM     24  C   UNL     1      -2.740  10.981  17.250  0.00  0.00    +0.000 A 
ATOM     25  C   UNL     1      -4.047  11.154  16.768  0.00  0.00    +0.000 A 
BRANCH  20  27
ATOM     26  C   UNL     1      -7.074  12.800  18.007  0.00  0.00    +0.000 C 
ATOM     27  O   UNL     1      -6.236  12.061  17.116  0.00  0.00    +0.000 OA
ENDBRANCH  20  27
BRANCH  22  28
ATOM     28  O   UNL     1      -2.910  12.425  20.618  0.00  0.00    +0.000 OA
ATOM     29  C   UNL     1      -3.944  12.798  21.525  0.00  0.00    +0.000 C 
ENDBRANCH  22  28
BRANCH  25  30
ATOM     30  O   UNL     1      -4.204  10.652  15.507  0.00  0.00    +0.000 OA
ATOM     31  C   UNL     1      -3.062  10.220  14.784  0.00  0.00    +0.000 C 
ENDBRANCH  25  30
ENDBRANCH  18  23
ENDBRANCH  17  18
ENDBRANCH   1  17
TORSDOF 9
ENDMDL
MODEL 4
REMARK VINA RESULT:      -7.2      2.800      3.805
REMARK  Name = 
REMARK  13 active torsions:
REMARK  status: ('A' for Active; 'I' for Inactive)
REMARK    1  A    between atoms: C_1  and  O_2
REMARK    2  A    between atoms: O_2  and  C_3
REMARK    3  A    between atoms: C_5  and  O_6
REMARK    4  A    between atoms: O_6  and  C_7
REMARK    5  A    between atoms: C_8  and  C_9
REMARK    6  A    between atoms: C_9  and  O_11
REMARK    7  A    between atoms: O_11  and  C_12
REMARK    8  A    between atoms: C_12  and  C_13
REMARK    9  A    between atoms: C_12  and  C_14
REMARK   10  A    between atoms: N_16  and  C_17
REMARK   11  A    between atoms: C_17  and  C_18
REMARK   12  A    between atoms: C_28  and  O_29
REMARK   13  A    between atoms: O_29  and  C_30
REMARK                            x       y       z     vdW  Elec       q    Type
REMARK                         _______ _______ _______ _____ _____    ______ ____
ROOT
ATOM      1  C   UNL     1       2.415   4.635  19.791  0.00  0.00    +0.000 C 
ATOM      2  C   UNL     1       1.272   4.328  20.758  0.00  0.00    +0.000 C 
ENDROOT
BRANCH   1   3
ATOM      3  C   UNL     1       2.253   6.083  19.283  0.00  0.00    +0.000 C 
ATOM      4  O   UNL     1       2.426   6.403  18.111  0.00  0.00    +0.000 OA
ATOM      5  N   UNL     1       1.991   7.010  20.257  0.00  0.00    +0.000 N 
ATOM      6  H   UNL     1       1.655   6.670  21.156  0.00  0.00    +0.000 HD
BRANCH   5   7
ATOM      7  C   UNL     1       1.828   8.413  19.915  0.00  0.00    +0.000 C 
BRANCH   7   8
ATOM      8  C   UNL     1       0.822   9.038  20.842  0.00  0.00    +0.000 A 
ATOM      9  C   UNL     1       0.854   8.761  22.230  0.00  0.00    +0.000 A 
ATOM     10  C   UNL     1       0.130   9.543  23.132  0.00  0.00    +0.000 A 
ATOM     11  C   UNL     1      -0.565  10.613  22.616  0.00  0.00    +0.000 A 
ATOM     12  C   UNL     1      -0.659  10.839  21.260  0.00  0.00    +0.000 A 
ATOM     13  C   UNL     1      -0.018  10.046  20.343  0.00  0.00    +0.000 A 
ATOM     14  O   UNL     1      -1.312  12.001  20.977  0.00  0.00    +0.000 OA
ATOM     15  C   UNL     1      -1.250  12.610  22.282  0.00  0.00    +0.000 C 
ATOM     16  O   UNL     1      -1.121  11.630  23.334  0.00  0.00    +0.000 OA
ENDBRANCH   7   8
ENDBRANCH   5   7
ENDBRANCH   1   3
BRANCH   1  17
ATOM     17  O   UNL     1       3.673   4.418  20.446  0.00  0.00    +0.000 OA
BRANCH  17  18
ATOM     18  C   UNL     1       4.473   3.507  19.843  0.00  0.00    +0.000 C 
ATOM     19  O   UNL     1       4.820   2.443  20.346  0.00  0.00    +0.000 OA
BRANCH  18  23
ATOM     20  C   UNL     1       6.047   5.048  16.132  0.00  0.00    +0.000 A 
ATOM     21  C   UNL     1       5.267   3.880  16.113  0.00  0.00    +0.000 A 
ATOM     22  C   UNL     1       4.728   3.320  17.285  0.00  0.00    +0.000 A 
ATOM     23  C   UNL     1       5.005   3.939  18.510  0.00  0.00    +0.000 A 
ATOM     24  C   UNL     1       5.863   5.058  18.528  0.00  0.00    +0.000 A 
ATOM     25  C   UNL     1       6.394   5.618  17.356  0.00  0.00    +0.000 A 
BRANCH  20  27
ATOM     26  C   UNL     1       6.655   4.696  13.877  0.00  0.00    +0.000 C 
ATOM     27  O   UNL     1       6.492   5.609  14.962  0.00  0.00    +0.000 OA
ENDBRANCH  20  27
BRANCH  22  28
ATOM     28  O   UNL     1       3.934   2.204  17.269  0.00  0.00    +0.000 OA
ATOM     29  C   UNL     1       2.523   2.404  17.298  0.00  0.00    +0.000 C 
ENDBRANCH  22  28
BRANCH  25  30
ATOM     30  O   UNL     1       7.181   6.706  17.613  0.00  0.00    +0.000 OA
ATOM     31  C   UNL     1       8.083   6.668  18.709  0.00  0.00    +0.000 C 
ENDBRANCH  25  30
ENDBRANCH  18  23
ENDBRANCH  17  18
ENDBRANCH   1  17
TORSDOF 9
ENDMDL
MODEL 5
REMARK VINA RESULT:      -7.1      2.487      2.806
REMARK  Name = 
REMARK  13 active torsions:
REMARK  status: ('A' for Active; 'I' for Inactive)
REMARK    1  A    between atoms: C_1  and  O_2
REMARK    2  A    between atoms: O_2  and  C_3
REMARK    3  A    between atoms: C_5  and  O_6
REMARK    4  A    between atoms: O_6  and  C_7
REMARK    5  A    between atoms: C_8  and  C_9
REMARK    6  A    between atoms: C_9  and  O_11
REMARK    7  A    between atoms: O_11  and  C_12
REMARK    8  A    between atoms: C_12  and  C_13
REMARK    9  A    between atoms: C_12  and  C_14
REMARK   10  A    between atoms: N_16  and  C_17
REMARK   11  A    between atoms: C_17  and  C_18
REMARK   12  A    between atoms: C_28  and  O_29
REMARK   13  A    between atoms: O_29  and  C_30
REMARK                            x       y       z     vdW  Elec       q    Type
REMARK                         _______ _______ _______ _____ _____    ______ ____
ROOT
ATOM      1  C   UNL     1       2.448   7.578  19.118  0.00  0.00    +0.000 C 
ATOM      2  C   UNL     1       2.421   8.317  17.780  0.00  0.00    +0.000 C 
ENDROOT
BRANCH   1   3
ATOM      3  C   UNL     1       1.485   8.290  20.091  0.00  0.00    +0.000 C 
ATOM      4  O   UNL     1       1.328   7.934  21.255  0.00  0.00    +0.000 OA
ATOM      5  N   UNL     1       0.741   9.296  19.533  0.00  0.00    +0.000 N 
ATOM      6  H   UNL     1       1.055   9.681  18.644  0.00  0.00    +0.000 HD
BRANCH   5   7
ATOM      7  C   UNL     1      -0.214  10.039  20.337  0.00  0.00    +0.000 C 
BRANCH   7   8
ATOM      8  C   UNL     1      -0.316  11.446  19.816  0.00  0.00    +0.000 A 
ATOM      9  C   UNL     1      -1.296  12.332  20.324  0.00  0.00    +0.000 A 
ATOM     10  C   UNL     1      -1.221  13.703  20.072  0.00  0.00    +0.000 A 
ATOM     11  C   UNL     1      -0.133  14.150  19.358  0.00  0.00    +0.000 A 
ATOM     12  C   UNL     1       0.781  13.283  18.798  0.00  0.00    +0.000 A 
ATOM     13  C   UNL     1       0.695  11.924  18.967  0.00  0.00    +0.000 A 
ATOM     14  O   UNL     1       1.824  13.941  18.219  0.00  0.00    +0.000 OA
ATOM     15  C   UNL     1       1.628  15.235  18.820  0.00  0.00    +0.000 C 
ATOM     16  O   UNL     1       0.257  15.449  19.218  0.00  0.00    +0.000 OA
ENDBRANCH   7   8
ENDBRANCH   5   7
ENDBRANCH   1   3
BRANCH   1  17
ATOM     17  O   UNL     1       2.108   6.199  18.914  0.00  0.00    +0.000 OA
BRANCH  17  18
ATOM     18  C   UNL     1       3.031   5.318  19.366  0.00  0.00    +0.000 C 
ATOM     19  O   UNL     1       3.052   4.853  20.502  0.00  0.00    +0.000 OA
BRANCH  18  23
ATOM     20  C   UNL     1       6.304   4.706  16.621  0.00  0.00    +0.000 A 
ATOM     21  C   UNL     1       5.112   3.984  16.439  0.00  0.00    +0.000 A 
ATOM     22  C   UNL     1       4.009   4.130  17.299  0.00  0.00    +0.000 A 
ATOM     23  C   UNL     1       4.119   5.006  18.386  0.00  0.00    +0.000 A 
ATOM     24  C   UNL     1       5.351   5.656  18.612  0.00  0.00    +0.000 A 
ATOM     25  C   UNL     1       6.447   5.514  17.748  0.00  0.00    +0.000 A 
BRANCH  20  27
ATOM     26  C   UNL     1       6.946   4.702  14.348  0.00  0.00    +0.000 C 
ATOM     27  O   UNL     1       7.330   4.596  15.719  0.00  0.00    +0.000 OA
ENDBRANCH  20  27
BRANCH  22  28
ATOM     28  O   UNL     1       2.830   3.459  17.103  0.00  0.00    +0.000 OA
ATOM     29  C   UNL     1       2.728   2.145  17.644  0.00  0.00    +0.000 C 
ENDBRANCH  22  28
BRANCH  25  30
ATOM     30  O   UNL     1       7.525   6.251  18.154  0.00  0.00    +0.000 OA
ATOM     31  C   UNL     1       7.683   7.575  17.668  0.00  0.00    +0.000 C 
ENDBRANCH  25  30
ENDBRANCH  18  23
ENDBRANCH  17  18
ENDBRANCH   1  17
TORSDOF 9
ENDMDL
MODEL 6
REMARK VINA RESULT:      -7.0      1.611      2.255
REMARK  Name = 
REMARK  13 active torsions:
REMARK  status: ('A' for Active; 'I' for Inactive)
REMARK    1  A    between atoms: C_1  and  O_2
REMARK    2  A    between atoms: O_2  and  C_3
REMARK    3  A    between atoms: C_5  and  O_6
REMARK    4  A    between atoms: O_6  and  C_7
REMARK    5  A    between atoms: C_8  and  C_9
REMARK    6  A    between atoms: C_9  and  O_11
REMARK    7  A    between atoms: O_11  and  C_12
REMARK    8  A    between atoms: C_12  and  C_13
REMARK    9  A    between atoms: C_12  and  C_14
REMARK   10  A    between atoms: N_16  and  C_17
REMARK   11  A    between atoms: C_17  and  C_18
REMARK   12  A    between atoms: C_28  and  O_29
REMARK   13  A    between atoms: O_29  and  C_30
REMARK                            x       y       z     vdW  Elec       q    Type
REMARK                         _______ _______ _______ _____ _____    ______ ____
ROOT
ATOM      1  C   UNL     1       1.306   8.222  20.125  0.00  0.00    +0.000 C 
ATOM      2  C   UNL     1       1.465   8.768  21.544  0.00  0.00    +0.000 C 
ENDROOT
BRANCH   1   3
ATOM      3  C   UNL     1       1.049   9.406  19.170  0.00  0.00    +0.000 C 
ATOM      4  O   UNL     1       1.766   9.652  18.204  0.00  0.00    +0.000 OA
ATOM      5  N   UNL     1       0.013  10.226  19.533  0.00  0.00    +0.000 N 
ATOM      6  H   UNL     1      -0.663   9.867  20.204  0.00  0.00    +0.000 HD
BRANCH   5   7
ATOM      7  C   UNL     1      -0.326  11.386  18.726  0.00  0.00    +0.000 C 
BRANCH   7   8
ATOM      8  C   UNL     1      -1.762  11.289  18.292  0.00  0.00    +0.000 A 
ATOM      9  C   UNL     1      -2.210  10.184  17.528  0.00  0.00    +0.000 A 
ATOM     10  C   UNL     1      -3.573   9.930  17.369  0.00  0.00    +0.000 A 
ATOM     11  C   UNL     1      -4.447  10.767  18.025  0.00  0.00    +0.000 A 
ATOM     12  C   UNL     1      -4.018  11.886  18.705  0.00  0.00    +0.000 A 
ATOM     13  C   UNL     1      -2.688  12.203  18.820  0.00  0.00    +0.000 A 
ATOM     14  O   UNL     1      -5.037  12.514  19.356  0.00  0.00    +0.000 OA
ATOM     15  C   UNL     1      -6.013  11.456  19.305  0.00  0.00    +0.000 C 
ATOM     16  O   UNL     1      -5.782  10.553  18.203  0.00  0.00    +0.000 OA
ENDBRANCH   7   8
ENDBRANCH   5   7
ENDBRANCH   1   3
BRANCH   1  17
ATOM     17  O   UNL     1       2.470   7.464  19.766  0.00  0.00    +0.000 OA
BRANCH  17  18
ATOM     18  C   UNL     1       2.307   6.122  19.818  0.00  0.00    +0.000 C 
ATOM     19  O   UNL     1       1.635   5.534  20.659  0.00  0.00    +0.000 OA
BRANCH  18  23
ATOM     20  C   UNL     1       4.800   4.199  16.866  0.00  0.00    +0.000 A 
ATOM     21  C   UNL     1       3.495   3.723  17.077  0.00  0.00    +0.000 A 
ATOM     22  C   UNL     1       2.632   4.297  18.026  0.00  0.00    +0.000 A 
ATOM     23  C   UNL     1       3.105   5.363  18.801  0.00  0.00    +0.000 A 
ATOM     24  C   UNL     1       4.446   5.774  18.646  0.00  0.00    +0.000 A 
ATOM     25  C   UNL     1       5.303   5.203  17.693  0.00  0.00    +0.000 A 
BRANCH  20  27
ATOM     26  C   UNL     1       5.586   4.385  14.646  0.00  0.00    +0.000 C 
ATOM     27  O   UNL     1       5.587   3.664  15.879  0.00  0.00    +0.000 OA
ENDBRANCH  20  27
BRANCH  22  28
ATOM     28  O   UNL     1       1.345   3.864  18.208  0.00  0.00    +0.000 OA
ATOM     29  C   UNL     1       1.163   2.516  18.631  0.00  0.00    +0.000 C 
ENDBRANCH  22  28
BRANCH  25  30
ATOM     30  O   UNL     1       6.546   5.771  17.709  0.00  0.00    +0.000 OA
ATOM     31  C   UNL     1       7.572   5.177  18.489  0.00  0.00    +0.000 C 
ENDBRANCH  25  30
ENDBRANCH  18  23
ENDBRANCH  17  18
ENDBRANCH   1  17
TORSDOF 9
ENDMDL
MODEL 7
REMARK VINA RESULT:      -6.9      1.809      9.261
REMARK  Name = 
REMARK  13 active torsions:
REMARK  status: ('A' for Active; 'I' for Inactive)
REMARK    1  A    between atoms: C_1  and  O_2
REMARK    2  A    between atoms: O_2  and  C_3
REMARK    3  A    between atoms: C_5  and  O_6
REMARK    4  A    between atoms: O_6  and  C_7
REMARK    5  A    between atoms: C_8  and  C_9
REMARK    6  A    between atoms: C_9  and  O_11
REMARK    7  A    between atoms: O_11  and  C_12
REMARK    8  A    between atoms: C_12  and  C_13
REMARK    9  A    between atoms: C_12  and  C_14
REMARK   10  A    between atoms: N_16  and  C_17
REMARK   11  A    between atoms: C_17  and  C_18
REMARK   12  A    between atoms: C_28  and  O_29
REMARK   13  A    between atoms: O_29  and  C_30
REMARK                            x       y       z     vdW  Elec       q    Type
REMARK                         _______ _______ _______ _____ _____    ______ ____
ROOT
ATOM      1  C   UNL     1       1.923   8.031  19.888  0.00  0.00    +0.000 C 
ATOM      2  C   UNL     1       1.133   8.491  21.113  0.00  0.00    +0.000 C 
ENDROOT
BRANCH   1   3
ATOM      3  C   UNL     1       2.250   6.531  20.051  0.00  0.00    +0.000 C 
ATOM      4  O   UNL     1       1.473   5.730  20.562  0.00  0.00    +0.000 OA
ATOM      5  N   UNL     1       3.515   6.173  19.667  0.00  0.00    +0.000 N 
ATOM      6  H   UNL     1       4.030   6.816  19.069  0.00  0.00    +0.000 HD
BRANCH   5   7
ATOM      7  C   UNL     1       3.956   4.793  19.781  0.00  0.00    +0.000 C 
BRANCH   7   8
ATOM      8  C   UNL     1       4.496   4.332  18.455  0.00  0.00    +0.000 A 
ATOM      9  C   UNL     1       3.616   3.992  17.399  0.00  0.00    +0.000 A 
ATOM     10  C   UNL     1       4.088   3.847  16.094  0.00  0.00    +0.000 A 
ATOM     11  C   UNL     1       5.424   4.097  15.880  0.00  0.00    +0.000 A 
ATOM     12  C   UNL     1       6.297   4.352  16.915  0.00  0.00    +0.000 A 
ATOM     13  C   UNL     1       5.876   4.431  18.219  0.00  0.00    +0.000 A 
ATOM     14  O   UNL     1       7.546   4.664  16.470  0.00  0.00    +0.000 OA
ATOM     15  C   UNL     1       7.226   4.937  15.093  0.00  0.00    +0.000 C 
ATOM     16  O   UNL     1       6.027   4.253  14.666  0.00  0.00    +0.000 OA
ENDBRANCH   7   8
ENDBRANCH   5   7
ENDBRANCH   1   3
BRANCH   1  17
ATOM     17  O   UNL     1       1.171   8.306  18.698  0.00  0.00    +0.000 OA
BRANCH  17  18
ATOM     18  C   UNL     1       1.123   9.613  18.351  0.00  0.00    +0.000 C 
ATOM     19  O   UNL     1       2.104  10.299  18.080  0.00  0.00    +0.000 OA
BRANCH  18  23
ATOM     20  C   UNL     1      -2.855  11.280  18.214  0.00  0.00    +0.000 A 
ATOM     21  C   UNL     1      -1.976  11.687  19.232  0.00  0.00    +0.000 A 
ATOM     22  C   UNL     1      -0.669  11.181  19.340  0.00  0.00    +0.000 A 
ATOM     23  C   UNL     1      -0.246  10.219  18.413  0.00  0.00    +0.000 A 
ATOM     24  C   UNL     1      -1.166   9.751  17.452  0.00  0.00    +0.000 A 
ATOM     25  C   UNL     1      -2.468  10.263  17.343  0.00  0.00    +0.000 A 
BRANCH  20  27
ATOM     26  C   UNL     1      -4.697  12.258  19.324  0.00  0.00    +0.000 C 
ATOM     27  O   UNL     1      -4.096  11.852  18.094  0.00  0.00    +0.000 OA
ENDBRANCH  20  27
BRANCH  22  28
ATOM     28  O   UNL     1       0.206  11.603  20.305  0.00  0.00    +0.000 OA
ATOM     29  C   UNL     1       0.619  12.966  20.263  0.00  0.00    +0.000 C 
ENDBRANCH  22  28
BRANCH  25  30
ATOM     30  O   UNL     1      -3.172   9.675  16.329  0.00  0.00    +0.000 OA
ATOM     31  C   UNL     1      -2.926  10.074  14.990  0.00  0.00    +0.000 C 
ENDBRANCH  25  30
ENDBRANCH  18  23
ENDBRANCH  17  18
ENDBRANCH   1  17
TORSDOF 9
ENDMDL
MODEL 8
REMARK VINA RESULT:      -6.9      2.185      9.964
REMARK  Name = 
REMARK  13 active torsions:
REMARK  status: ('A' for Active; 'I' for Inactive)
REMARK    1  A    between atoms: C_1  and  O_2
REMARK    2  A    between atoms: O_2  and  C_3
REMARK    3  A    between atoms: C_5  and  O_6
REMARK    4  A    between atoms: O_6  and  C_7
REMARK    5  A    between atoms: C_8  and  C_9
REMARK    6  A    between atoms: C_9  and  O_11
REMARK    7  A    between atoms: O_11  and  C_12
REMARK    8  A    between atoms: C_12  and  C_13
REMARK    9  A    between atoms: C_12  and  C_14
REMARK   10  A    between atoms: N_16  and  C_17
REMARK   11  A    between atoms: C_17  and  C_18
REMARK   12  A    between atoms: C_28  and  O_29
REMARK   13  A    between atoms: O_29  and  C_30
REMARK                            x       y       z     vdW  Elec       q    Type
REMARK                         _______ _______ _______ _____ _____    ______ ____
ROOT
ATOM      1  C   UNL     1       0.801  10.041  19.743  0.00  0.00    +0.000 C 
ATOM      2  C   UNL     1       1.016   9.125  20.947  0.00  0.00    +0.000 C 
ENDROOT
BRANCH   1   3
ATOM      3  C   UNL     1       1.511   9.420  18.521  0.00  0.00    +0.000 C 
ATOM      4  O   UNL     1       1.751  10.051  17.497  0.00  0.00    +0.000 OA
ATOM      5  N   UNL     1       1.771   8.079  18.626  0.00  0.00    +0.000 N 
ATOM      6  H   UNL     1       1.746   7.663  19.554  0.00  0.00    +0.000 HD
BRANCH   5   7
ATOM      7  C   UNL     1       2.425   7.369  17.540  0.00  0.00    +0.000 C 
BRANCH   7   8
ATOM      8  C   UNL     1       3.711   6.770  18.039  0.00  0.00    +0.000 A 
ATOM      9  C   UNL     1       3.717   5.921  19.172  0.00  0.00    +0.000 A 
ATOM     10  C   UNL     1       4.831   5.135  19.471  0.00  0.00    +0.000 A 
ATOM     11  C   UNL     1       5.888   5.187  18.592  0.00  0.00    +0.000 A 
ATOM     12  C   UNL     1       5.916   6.068  17.532  0.00  0.00    +0.000 A 
ATOM     13  C   UNL     1       4.866   6.905  17.253  0.00  0.00    +0.000 A 
ATOM     14  O   UNL     1       7.009   5.883  16.740  0.00  0.00    +0.000 OA
ATOM     15  C   UNL     1       7.407   4.583  17.215  0.00  0.00    +0.000 C 
ATOM     16  O   UNL     1       6.949   4.331  18.561  0.00  0.00    +0.000 OA
ENDBRANCH   7   8
ENDBRANCH   5   7
ENDBRANCH   1   3
BRANCH   1  17
ATOM     17  O   UNL     1      -0.605  10.232  19.527  0.00  0.00    +0.000 OA
BRANCH  17  18
ATOM     18  C   UNL     1      -0.955  11.491  19.175  0.00  0.00    +0.000 C 
ATOM     19  O   UNL     1      -0.215  12.467  19.251  0.00  0.00    +0.000 OA
BRANCH  18  23
ATOM     20  C   UNL     1      -4.976  11.924  17.668  0.00  0.00    +0.000 A 
ATOM     21  C   UNL     1      -4.700  12.282  18.998  0.00  0.00    +0.000 A 
ATOM     22  C   UNL     1      -3.415  12.162  19.556  0.00  0.00    +0.000 A 
ATOM     23  C   UNL     1      -2.387  11.641  18.760  0.00  0.00    +0.000 A 
ATOM     24  C   UNL     1      -2.694  11.199  17.456  0.00  0.00    +0.000 A 
ATOM     25  C   UNL     1      -3.977  11.327  16.900  0.00  0.00    +0.000 A 
BRANCH  20  27
ATOM     26  C   UNL     1      -6.629  13.494  17.049  0.00  0.00    +0.000 C 
ATOM     27  O   UNL     1      -6.223  12.127  17.136  0.00  0.00    +0.000 OA
ENDBRANCH  20  27
BRANCH  22  28
ATOM     28  O   UNL     1      -3.130  12.547  20.840  0.00  0.00    +0.000 OA
ATOM     29  C   UNL     1      -4.225  12.674  21.742  0.00  0.00    +0.000 C 
ENDBRANCH  22  28
BRANCH  25  30
ATOM     30  O   UNL     1      -4.036  10.851  15.620  0.00  0.00    +0.000 OA
ATOM     31  C   UNL     1      -3.017   9.979  15.156  0.00  0.00    +0.000 C 
ENDBRANCH  25  30
ENDBRANCH  18  23
ENDBRANCH  17  18
ENDBRANCH   1  17
TORSDOF 9
ENDMDL
MODEL 9
REMARK VINA RESULT:      -6.8      2.355      8.277
REMARK  Name = 
REMARK  13 active torsions:
REMARK  status: ('A' for Active; 'I' for Inactive)
REMARK    1  A    between atoms: C_1  and  O_2
REMARK    2  A    between atoms: O_2  and  C_3
REMARK    3  A    between atoms: C_5  and  O_6
REMARK    4  A    between atoms: O_6  and  C_7
REMARK    5  A    between atoms: C_8  and  C_9
REMARK    6  A    between atoms: C_9  and  O_11
REMARK    7  A    between atoms: O_11  and  C_12
REMARK    8  A    between atoms: C_12  and  C_13
REMARK    9  A    between atoms: C_12  and  C_14
REMARK   10  A    between atoms: N_16  and  C_17
REMARK   11  A    between atoms: C_17  and  C_18
REMARK   12  A    between atoms: C_28  and  O_29
REMARK   13  A    between atoms: O_29  and  C_30
REMARK                            x       y       z     vdW  Elec       q    Type
REMARK                         _______ _______ _______ _____ _____    ______ ____
ROOT
ATOM      1  C   UNL     1       2.112   3.813  20.635  0.00  0.00    +0.000 C 
ATOM      2  C   UNL     1       0.995   2.952  21.224  0.00  0.00    +0.000 C 
ENDROOT
BRANCH   1   3
ATOM      3  C   UNL     1       2.667   3.106  19.380  0.00  0.00    +0.000 C 
ATOM      4  O   UNL     1       2.989   1.922  19.369  0.00  0.00    +0.000 OA
ATOM      5  N   UNL     1       2.865   3.923  18.299  0.00  0.00    +0.000 N 
ATOM      6  H   UNL     1       2.395   4.826  18.294  0.00  0.00    +0.000 HD
BRANCH   5   7
ATOM      7  C   UNL     1       3.396   3.386  17.058  0.00  0.00    +0.000 C 
BRANCH   7   8
ATOM      8  C   UNL     1       4.748   3.990  16.791  0.00  0.00    +0.000 A 
ATOM      9  C   UNL     1       5.133   4.336  15.474  0.00  0.00    +0.000 A 
ATOM     10  C   UNL     1       6.243   5.152  15.245  0.00  0.00    +0.000 A 
ATOM     11  C   UNL     1       6.902   5.638  16.351  0.00  0.00    +0.000 A 
ATOM     12  C   UNL     1       6.577   5.241  17.630  0.00  0.00    +0.000 A 
ATOM     13  C   UNL     1       5.536   4.384  17.884  0.00  0.00    +0.000 A 
ATOM     14  O   UNL     1       7.291   5.915  18.574  0.00  0.00    +0.000 OA
ATOM     15  C   UNL     1       7.778   6.994  17.752  0.00  0.00    +0.000 C 
ATOM     16  O   UNL     1       7.837   6.630  16.356  0.00  0.00    +0.000 OA
ENDBRANCH   7   8
ENDBRANCH   5   7
ENDBRANCH   1   3
BRANCH   1  17
ATOM     17  O   UNL     1       1.609   5.127  20.352  0.00  0.00    +0.000 OA
BRANCH  17  18
ATOM     18  C   UNL     1       2.563   6.055  20.107  0.00  0.00    +0.000 C 
ATOM     19  O   UNL     1       3.764   5.884  20.291  0.00  0.00    +0.000 OA
BRANCH  18  23
ATOM     20  C   UNL     1       0.820   9.871  19.095  0.00  0.00    +0.000 A 
ATOM     21  C   UNL     1       1.554   9.172  18.122  0.00  0.00    +0.000 A 
ATOM     22  C   UNL     1       2.153   7.928  18.384  0.00  0.00    +0.000 A 
ATOM     23  C   UNL     1       2.033   7.386  19.670  0.00  0.00    +0.000 A 
ATOM     24  C   UNL     1       1.373   8.138  20.665  0.00  0.00    +0.000 A 
ATOM     25  C   UNL     1       0.770   9.376  20.398  0.00  0.00    +0.000 A 
BRANCH  20  27
ATOM     26  C   UNL     1      -1.235  10.951  18.658  0.00  0.00    +0.000 C 
ATOM     27  O   UNL     1       0.185  11.044  18.781  0.00  0.00    +0.000 OA
ENDBRANCH  20  27
BRANCH  22  28
ATOM     28  O   UNL     1       2.835   7.223  17.427  0.00  0.00    +0.000 OA
ATOM     29  C   UNL     1       4.107   7.724  17.028  0.00  0.00    +0.000 C 
ENDBRANCH  22  28
BRANCH  25  30
ATOM     30  O   UNL     1       0.174   9.911  21.506  0.00  0.00    +0.000 OA
ATOM     31  C   UNL     1       0.290   9.239  22.750  0.00  0.00    +0.000 C 
ENDBRANCH  25  30
ENDBRANCH  18  23
ENDBRANCH  17  18
ENDBRANCH   1  17
TORSDOF 9
ENDMDL
