MODEL 1
REMARK VINA RESULT:      -6.9      0.000      0.000
REMARK  Name = 
REMARK  10 active torsions:
REMARK  status: ('A' for Active; 'I' for Inactive)
REMARK    1  A    between atoms: N_4  and  C_5
REMARK    2  A    between atoms: C_5  and  C_6
REMARK    3  A    between atoms: C_6  and  C_7
REMARK    4  A    between atoms: C_7  and  C_8
REMARK    5  A    between atoms: C_8  and  C_9
REMARK    6  A    between atoms: C_9  and  O_10
REMARK    7  A    between atoms: O_10  and  C_11
REMARK    8  A    between atoms: N_19  and  C_20
REMARK    9  A    between atoms: C_20  and  C_21
REMARK   10  A    between atoms: C_21  and  O_23
REMARK                            x       y       z     vdW  Elec       q    Type
REMARK                         _______ _______ _______ _____ _____    ______ ____
ROOT
ATOM      1  C   UNL     1       1.183   8.832  20.194  0.00  0.00    +0.000 A 
ATOM      2  C   UNL     1       1.679   9.073  18.911  0.00  0.00    +0.000 A 
ATOM      3  C   UNL     1       2.368   8.082  18.222  0.00  0.00    +0.000 A 
ATOM      4  C   UNL     1       2.561   6.832  18.811  0.00  0.00    +0.000 A 
ATOM      5  C   UNL     1       2.035   6.555  20.087  0.00  0.00    +0.000 A 
ATOM      6  C   UNL     1       1.349   7.568  20.774  0.00  0.00    +0.000 A 
ATOM      7  C   UNL     1       2.151   5.168  20.662  0.00  0.00    +0.000 C 
ATOM      8  C   UNL     1       3.309   4.405  20.021  0.00  0.00    +0.000 C 
ATOM      9  N   UNL     1       3.292   4.513  18.571  0.00  0.00    +0.000 N 
ATOM     10  C   UNL     1       3.329   5.803  18.061  0.00  0.00    +0.000 C 
ATOM     11  O   UNL     1       4.013   6.092  17.082  0.00  0.00    +0.000 OA
ENDROOT
BRANCH   1  12
ATOM     12  O   UNL     1       0.537   9.763  20.965  0.00  0.00    +0.000 OA
BRANCH  12  13
ATOM     13  C   UNL     1       0.364   9.399  22.335  0.00  0.00    +0.000 C 
BRANCH  13  14
ATOM     14  C   UNL     1      -0.688  10.304  22.962  0.00  0.00    +0.000 C 
BRANCH  14  15
ATOM     15  C   UNL     1      -0.609  11.706  22.365  0.00  0.00    +0.000 C 
BRANCH  15  16
ATOM     16  C   UNL     1      -1.934  12.144  21.741  0.00  0.00    +0.000 C 
BRANCH  16  17
ATOM     17  C   UNL     1      -1.714  12.582  20.294  0.00  0.00    +0.000 C 
BRANCH  17  21
ATOM     18  N   UNL     1      -1.257  10.314  17.467  0.00  0.00    +0.000 NA
ATOM     19  C   UNL     1      -1.348  11.442  18.096  0.00  0.00    +0.000 C 
ATOM     20  N   UNL     1      -1.212  12.626  17.481  0.00  0.00    +0.000 N 
ATOM     21  N   UNL     1      -1.585  11.447  19.416  0.00  0.00    +0.000 N 
ATOM     22  H   UNL     1      -1.043  10.499  16.488  0.00  0.00    +0.000 HD
ATOM     23  H   UNL     1      -1.340  12.618  16.478  0.00  0.00    +0.000 HD
ATOM     24  H   UNL     1      -1.694  13.400  17.914  0.00  0.00    +0.000 HD
ATOM     25  H   UNL     1      -1.662  10.519  19.819  0.00  0.00    +0.000 HD
ENDBRANCH  17  21
ENDBRANCH  16  17
ENDBRANCH  15  16
ENDBRANCH  14  15
ENDBRANCH  13  14
ENDBRANCH  12  13
ENDBRANCH   1  12
BRANCH   9  26
ATOM     26  C   UNL     1       3.877   3.424  17.778  0.00  0.00    +0.000 C 
BRANCH  26  27
ATOM     27  C   UNL     1       3.224   2.048  17.985  0.00  0.00    +0.000 C 
ATOM     28  O   UNL     1       3.768   1.094  18.529  0.00  0.00    +0.000 OA
BRANCH  27  29
ATOM     29  O   UNL     1       1.934   2.017  17.572  0.00  0.00    +0.000 OA
ATOM     30  H   UNL     1       1.587   1.095  17.476  0.00  0.00    +0.000 HD
ENDBRANCH  27  29
ENDBRANCH  26  27
ENDBRANCH   9  26
TORSDOF 10
ENDMDL
MODEL 2
REMARK VINA RESULT:      -6.9      5.588      7.521
REMARK  Name = 
REMARK  10 active torsions:
REMARK  status: ('A' for Active; 'I' for Inactive)
REMARK    1  A    between atoms: N_4  and  C_5
REMARK    2  A    between atoms: C_5  and  C_6
REMARK    3  A    between atoms: C_6  and  C_7
REMARK    4  A    between atoms: C_7  and  C_8
REMARK    5  A    between atoms: C_8  and  C_9
REMARK    6  A    between atoms: C_9  and  O_10
REMARK    7  A    between atoms: O_10  and  C_11
REMARK    8  A    between atoms: N_19  and  C_20
REMARK    9  A    between atoms: C_20  and  C_21
REMARK   10  A    between atoms: C_21  and  O_23
REMARK                            x       y       z     vdW  Elec       q    Type
REMARK                         _______ _______ _______ _____ _____    ______ ____
ROOT
ATOM      1  C   UNL     1       7.024   6.727  17.456  0.00  0.00    +0.000 A 
ATOM      2  C   UNL     1       7.613   5.595  18.024  0.00  0.00    +0.000 A 
ATOM      3  C   UNL     1       6.826   4.592  18.576  0.00  0.00    +0.000 A 
ATOM      4  C   UNL     1       5.437   4.708  18.558  0.00  0.00    +0.000 A 
ATOM      5  C   UNL     1       4.822   5.821  17.954  0.00  0.00    +0.000 A 
ATOM      6  C   UNL     1       5.629   6.831  17.409  0.00  0.00    +0.000 A 
ATOM      7  C   UNL     1       3.321   5.879  17.840  0.00  0.00    +0.000 C 
ATOM      8  C   UNL     1       2.657   4.988  18.889  0.00  0.00    +0.000 C 
ATOM      9  N   UNL     1       3.259   3.665  18.935  0.00  0.00    +0.000 N 
ATOM     10  C   UNL     1       4.624   3.632  19.184  0.00  0.00    +0.000 C 
ATOM     11  O   UNL     1       5.124   2.798  19.936  0.00  0.00    +0.000 OA
ENDROOT
BRANCH   1  12
ATOM     12  O   UNL     1       7.721   7.786  16.934  0.00  0.00    +0.000 OA
BRANCH  12  13
ATOM     13  C   UNL     1       7.549   9.023  17.628  0.00  0.00    +0.000 C 
BRANCH  13  14
ATOM     14  C   UNL     1       8.784   9.294  18.475  0.00  0.00    +0.000 C 
BRANCH  14  15
ATOM     15  C   UNL     1       9.276  10.722  18.259  0.00  0.00    +0.000 C 
BRANCH  15  16
ATOM     16  C   UNL     1      10.116  11.228  19.432  0.00  0.00    +0.000 C 
BRANCH  16  17
ATOM     17  C   UNL     1       9.344  11.069  20.740  0.00  0.00    +0.000 C 
BRANCH  17  21
ATOM     18  N   UNL     1       8.798  13.757  23.153  0.00  0.00    +0.000 NA
ATOM     19  C   UNL     1       8.602  12.625  22.554  0.00  0.00    +0.000 C 
ATOM     20  N   UNL     1       7.633  11.773  22.919  0.00  0.00    +0.000 N 
ATOM     21  N   UNL     1       9.391  12.274  21.528  0.00  0.00    +0.000 N 
ATOM     22  H   UNL     1       8.135  13.841  23.922  0.00  0.00    +0.000 HD
ATOM     23  H   UNL     1       6.881  12.169  23.465  0.00  0.00    +0.000 HD
ATOM     24  H   UNL     1       7.288  11.167  22.189  0.00  0.00    +0.000 HD
ATOM     25  H   UNL     1      10.110  12.957  21.316  0.00  0.00    +0.000 HD
ENDBRANCH  17  21
ENDBRANCH  16  17
ENDBRANCH  15  16
ENDBRANCH  14  15
ENDBRANCH  13  14
ENDBRANCH  12  13
ENDBRANCH   1  12
BRANCH   9  26
ATOM     26  C   UNL     1       2.434   2.532  19.374  0.00  0.00    +0.000 C 
BRANCH  26  27
ATOM     27  C   UNL     1       1.727   2.730  20.724  0.00  0.00    +0.000 C 
ATOM     28  O   UNL     1       2.280   2.659  21.816  0.00  0.00    +0.000 OA
BRANCH  27  29
ATOM     29  O   UNL     1       0.425   3.078  20.584  0.00  0.00    +0.000 OA
ATOM     30  H   UNL     1       0.198   3.907  21.075  0.00  0.00    +0.000 HD
ENDBRANCH  27  29
ENDBRANCH  26  27
ENDBRANCH   9  26
TORSDOF 10
ENDMDL
MODEL 3
REMARK VINA RESULT:      -6.9      6.193      7.878
REMARK  Name = 
REMARK  10 active torsions:
REMARK  status: ('A' for Active; 'I' for Inactive)
REMARK    1  A    between atoms: N_4  and  C_5
REMARK    2  A    between atoms: C_5  and  C_6
REMARK    3  A    between atoms: C_6  and  C_7
REMARK    4  A    between atoms: C_7  and  C_8
REMARK    5  A    between atoms: C_8  and  C_9
REMARK    6  A    between atoms: C_9  and  O_10
REMARK    7  A    between atoms: O_10  and  C_11
REMARK    8  A    between atoms: N_19  and  C_20
REMARK    9  A    between atoms: C_20  and  C_21
REMARK   10  A    between atoms: C_21  and  O_23
REMARK                            x       y       z     vdW  Elec       q    Type
REMARK                         _______ _______ _______ _____ _____    ______ ____
ROOT
ATOM      1  C   UNL     1       6.859   6.989  17.698  0.00  0.00    +0.000 A 
ATOM      2  C   UNL     1       7.502   5.820  18.110  0.00  0.00    +0.000 A 
ATOM      3  C   UNL     1       6.770   4.758  18.627  0.00  0.00    +0.000 A 
ATOM      4  C   UNL     1       5.383   4.854  18.732  0.00  0.00    +0.000 A 
ATOM      5  C   UNL     1       4.712   6.008  18.285  0.00  0.00    +0.000 A 
ATOM      6  C   UNL     1       5.464   7.076  17.773  0.00  0.00    +0.000 A 
ATOM      7  C   UNL     1       3.206   6.053  18.297  0.00  0.00    +0.000 C 
ATOM      8  C   UNL     1       2.637   5.060  19.308  0.00  0.00    +0.000 C 
ATOM      9  N   UNL     1       3.251   3.747  19.184  0.00  0.00    +0.000 N 
ATOM     10  C   UNL     1       4.632   3.713  19.319  0.00  0.00    +0.000 C 
ATOM     11  O   UNL     1       5.197   2.821  19.947  0.00  0.00    +0.000 OA
ENDROOT
BRANCH   1  12
ATOM     12  O   UNL     1       7.503   8.103  17.222  0.00  0.00    +0.000 OA
BRANCH  12  13
ATOM     13  C   UNL     1       8.491   8.649  18.097  0.00  0.00    +0.000 C 
BRANCH  13  14
ATOM     14  C   UNL     1       8.580  10.152  17.872  0.00  0.00    +0.000 C 
BRANCH  14  15
ATOM     15  C   UNL     1       9.632  10.768  18.789  0.00  0.00    +0.000 C 
BRANCH  15  16
ATOM     16  C   UNL     1      10.362  11.938  18.129  0.00  0.00    +0.000 C 
BRANCH  16  17
ATOM     17  C   UNL     1       9.455  13.167  18.087  0.00  0.00    +0.000 C 
BRANCH  17  21
ATOM     18  N   UNL     1      10.997  15.902  16.219  0.00  0.00    +0.000 NA
ATOM     19  C   UNL     1      10.707  15.163  17.242  0.00  0.00    +0.000 C 
ATOM     20  N   UNL     1      11.192  15.405  18.469  0.00  0.00    +0.000 N 
ATOM     21  N   UNL     1       9.893  14.108  17.088  0.00  0.00    +0.000 N 
ATOM     22  H   UNL     1      11.648  16.629  16.511  0.00  0.00    +0.000 HD
ATOM     23  H   UNL     1      11.537  16.341  18.629  0.00  0.00    +0.000 HD
ATOM     24  H   UNL     1      10.620  15.080  19.235  0.00  0.00    +0.000 HD
ATOM     25  H   UNL     1       9.575  13.976  16.133  0.00  0.00    +0.000 HD
ENDBRANCH  17  21
ENDBRANCH  16  17
ENDBRANCH  15  16
ENDBRANCH  14  15
ENDBRANCH  13  14
ENDBRANCH  12  13
ENDBRANCH   1  12
BRANCH   9  26
ATOM     26  C   UNL     1       2.474   2.567  19.580  0.00  0.00    +0.000 C 
BRANCH  26  27
ATOM     27  C   UNL     1       1.424   2.108  18.555  0.00  0.00    +0.000 C 
ATOM     28  O   UNL     1       0.213   2.129  18.743  0.00  0.00    +0.000 OA
BRANCH  27  29
ATOM     29  O   UNL     1       1.975   1.748  17.371  0.00  0.00    +0.000 OA
ATOM     30  H   UNL     1       2.584   0.972  17.454  0.00  0.00    +0.000 HD
ENDBRANCH  27  29
ENDBRANCH  26  27
ENDBRANCH   9  26
TORSDOF 10
ENDMDL
MODEL 4
REMARK VINA RESULT:      -6.8      6.172      7.875
REMARK  Name = 
REMARK  10 active torsions:
REMARK  status: ('A' for Active; 'I' for Inactive)
REMARK    1  A    between atoms: N_4  and  C_5
REMARK    2  A    between atoms: C_5  and  C_6
REMARK    3  A    between atoms: C_6  and  C_7
REMARK    4  A    between atoms: C_7  and  C_8
REMARK    5  A    between atoms: C_8  and  C_9
REMARK    6  A    between atoms: C_9  and  O_10
REMARK    7  A    between atoms: O_10  and  C_11
REMARK    8  A    between atoms: N_19  and  C_20
REMARK    9  A    between atoms: C_20  and  C_21
REMARK   10  A    between atoms: C_21  and  O_23
REMARK                            x       y       z     vdW  Elec       q    Type
REMARK                         _______ _______ _______ _____ _____    ______ ____
ROOT
ATOM      1  C   UNL     1       7.308   7.127  17.540  0.00  0.00    +0.000 A 
ATOM      2  C   UNL     1       7.858   6.028  18.202  0.00  0.00    +0.000 A 
ATOM      3  C   UNL     1       7.042   5.006  18.672  0.00  0.00    +0.000 A 
ATOM      4  C   UNL     1       5.663   5.072  18.476  0.00  0.00    +0.000 A 
ATOM      5  C   UNL     1       5.092   6.151  17.777  0.00  0.00    +0.000 A 
ATOM      6  C   UNL     1       5.927   7.181  17.317  0.00  0.00    +0.000 A 
ATOM      7  C   UNL     1       3.616   6.154  17.474  0.00  0.00    +0.000 C 
ATOM      8  C   UNL     1       2.855   5.257  18.449  0.00  0.00    +0.000 C 
ATOM      9  N   UNL     1       3.491   3.957  18.599  0.00  0.00    +0.000 N 
ATOM     10  C   UNL     1       4.814   3.978  19.018  0.00  0.00    +0.000 C 
ATOM     11  O   UNL     1       5.242   3.175  19.844  0.00  0.00    +0.000 OA
ENDROOT
BRANCH   1  12
ATOM     12  O   UNL     1       8.029   8.202  17.088  0.00  0.00    +0.000 OA
BRANCH  12  13
ATOM     13  C   UNL     1       7.869   9.400  17.850  0.00  0.00    +0.000 C 
BRANCH  13  14
ATOM     14  C   UNL     1       8.916   9.431  18.955  0.00  0.00    +0.000 C 
BRANCH  14  15
ATOM     15  C   UNL     1       9.761  10.697  18.854  0.00  0.00    +0.000 C 
BRANCH  15  16
ATOM     16  C   UNL     1       9.077  11.785  18.025  0.00  0.00    +0.000 C 
BRANCH  16  17
ATOM     17  C   UNL     1      10.116  12.761  17.477  0.00  0.00    +0.000 C 
BRANCH  17  21
ATOM     18  N   UNL     1      10.037  16.365  18.071  0.00  0.00    +0.000 NA
ATOM     19  C   UNL     1      10.326  15.255  17.470  0.00  0.00    +0.000 C 
ATOM     20  N   UNL     1      11.035  15.213  16.332  0.00  0.00    +0.000 N 
ATOM     21  N   UNL     1       9.907  14.091  17.989  0.00  0.00    +0.000 N 
ATOM     22  H   UNL     1      10.401  17.142  17.523  0.00  0.00    +0.000 HD
ATOM     23  H   UNL     1      11.587  16.035  16.127  0.00  0.00    +0.000 HD
ATOM     24  H   UNL     1      11.555  14.363  16.173  0.00  0.00    +0.000 HD
ATOM     25  H   UNL     1       9.366  14.198  18.841  0.00  0.00    +0.000 HD
ENDBRANCH  17  21
ENDBRANCH  16  17
ENDBRANCH  15  16
ENDBRANCH  14  15
ENDBRANCH  13  14
ENDBRANCH  12  13
ENDBRANCH   1  12
BRANCH   9  26
ATOM     26  C   UNL     1       2.656   2.803  18.954  0.00  0.00    +0.000 C 
BRANCH  26  27
ATOM     27  C   UNL     1       1.878   2.948  20.272  0.00  0.00    +0.000 C 
ATOM     28  O   UNL     1       0.692   3.249  20.350  0.00  0.00    +0.000 OA
BRANCH  27  29
ATOM     29  O   UNL     1       2.624   2.624  21.355  0.00  0.00    +0.000 OA
ATOM     30  H   UNL     1       2.148   2.020  21.978  0.00  0.00    +0.000 HD
ENDBRANCH  27  29
ENDBRANCH  26  27
ENDBRANCH   9  26
TORSDOF 10
ENDMDL
MODEL 5
REMARK VINA RESULT:      -6.8      2.148      2.921
REMARK  Name = 
REMARK  10 active torsions:
REMARK  status: ('A' for Active; 'I' for Inactive)
REMARK    1  A    between atoms: N_4  and  C_5
REMARK    2  A    between atoms: C_5  and  C_6
REMARK    3  A    between atoms: C_6  and  C_7
REMARK    4  A    between atoms: C_7  and  C_8
REMARK    5  A    between atoms: C_8  and  C_9
REMARK    6  A    between atoms: C_9  and  O_10
REMARK    7  A    between atoms: O_10  and  C_11
REMARK    8  A    between atoms: N_19  and  C_20
REMARK    9  A    between atoms: C_20  and  C_21
REMARK   10  A    between atoms: C_21  and  O_23
REMARK                            x       y       z     vdW  Elec       q    Type
REMARK                         _______ _______ _______ _____ _____    ______ ____
ROOT
ATOM      1  C   UNL     1       1.574   9.108  19.165  0.00  0.00    +0.000 A 
ATOM      2  C   UNL     1       2.178   9.101  17.906  0.00  0.00    +0.000 A 
ATOM      3  C   UNL     1       2.855   7.975  17.454  0.00  0.00    +0.000 A 
ATOM      4  C   UNL     1       2.928   6.838  18.258  0.00  0.00    +0.000 A 
ATOM      5  C   UNL     1       2.292   6.809  19.513  0.00  0.00    +0.000 A 
ATOM      6  C   UNL     1       1.620   7.957  19.961  0.00  0.00    +0.000 A 
ATOM      7  C   UNL     1       2.281   5.538  20.321  0.00  0.00    +0.000 C 
ATOM      8  C   UNL     1       3.435   4.623  19.917  0.00  0.00    +0.000 C 
ATOM      9  N   UNL     1       3.532   4.480  18.472  0.00  0.00    +0.000 N 
ATOM     10  C   UNL     1       3.685   5.660  17.759  0.00  0.00    +0.000 C 
ATOM     11  O   UNL     1       4.457   5.743  16.806  0.00  0.00    +0.000 OA
ENDROOT
BRANCH   1  12
ATOM     12  O   UNL     1       0.930  10.188  19.711  0.00  0.00    +0.000 OA
BRANCH  12  13
ATOM     13  C   UNL     1      -0.459   9.989  19.982  0.00  0.00    +0.000 C 
BRANCH  13  14
ATOM     14  C   UNL     1      -1.280  10.843  19.026  0.00  0.00    +0.000 C 
BRANCH  14  15
ATOM     15  C   UNL     1      -1.553  10.081  17.732  0.00  0.00    +0.000 C 
BRANCH  15  16
ATOM     16  C   UNL     1      -2.493  10.846  16.799  0.00  0.00    +0.000 C 
BRANCH  16  17
ATOM     17  C   UNL     1      -3.901  10.885  17.388  0.00  0.00    +0.000 C 
BRANCH  17  21
ATOM     18  N   UNL     1      -6.278  13.616  16.901  0.00  0.00    +0.000 NA
ATOM     19  C   UNL     1      -5.862  12.432  17.219  0.00  0.00    +0.000 C 
ATOM     20  N   UNL     1      -6.682  11.478  17.684  0.00  0.00    +0.000 N 
ATOM     21  N   UNL     1      -4.562  12.130  17.087  0.00  0.00    +0.000 N 
ATOM     22  H   UNL     1      -7.276  13.678  17.096  0.00  0.00    +0.000 HD
ATOM     23  H   UNL     1      -7.666  11.612  17.493  0.00  0.00    +0.000 HD
ATOM     24  H   UNL     1      -6.390  10.528  17.507  0.00  0.00    +0.000 HD
ATOM     25  H   UNL     1      -3.998  12.901  16.744  0.00  0.00    +0.000 HD
ENDBRANCH  17  21
ENDBRANCH  16  17
ENDBRANCH  15  16
ENDBRANCH  14  15
ENDBRANCH  13  14
ENDBRANCH  12  13
ENDBRANCH   1  12
BRANCH   9  26
ATOM     26  C   UNL     1       4.108   3.245  17.926  0.00  0.00    +0.000 C 
BRANCH  26  27
ATOM     27  C   UNL     1       3.308   1.968  18.227  0.00  0.00    +0.000 C 
ATOM     28  O   UNL     1       2.084   1.902  18.242  0.00  0.00    +0.000 OA
BRANCH  27  29
ATOM     29  O   UNL     1       4.101   0.883  18.399  0.00  0.00    +0.000 OA
ATOM     30  H   UNL     1       5.057   1.123  18.494  0.00  0.00    +0.000 HD
ENDBRANCH  27  29
ENDBRANCH  26  27
ENDBRANCH   9  26
TORSDOF 10
ENDMDL
MODEL 6
REMARK VINA RESULT:      -6.8      2.589      8.401
REMARK  Name = 
REMARK  10 active torsions:
REMARK  status: ('A' for Active; 'I' for Inactive)
REMARK    1  A    between atoms: N_4  and  C_5
REMARK    2  A    between atoms: C_5  and  C_6
REMARK    3  A    between atoms: C_6  and  C_7
REMARK    4  A    between atoms: C_7  and  C_8
REMARK    5  A    between atoms: C_8  and  C_9
REMARK    6  A    between atoms: C_9  and  O_10
REMARK    7  A    between atoms: O_10  and  C_11
REMARK    8  A    between atoms: N_19  and  C_20
REMARK    9  A    between atoms: C_20  and  C_21
REMARK   10  A    between atoms: C_21  and  O_23
REMARK                            x       y       z     vdW  Elec       q    Type
REMARK                         _______ _______ _______ _____ _____    ______ ____
ROOT
ATOM      1  C   UNL     1       2.007   8.140  18.929  0.00  0.00    +0.000 A 
ATOM      2  C   UNL     1       1.552   9.224  18.174  0.00  0.00    +0.000 A 
ATOM      3  C   UNL     1       0.772  10.214  18.761  0.00  0.00    +0.000 A 
ATOM      4  C   UNL     1       0.445  10.132  20.114  0.00  0.00    +0.000 A 
ATOM      5  C   UNL     1       0.927   9.069  20.901  0.00  0.00    +0.000 A 
ATOM      6  C   UNL     1       1.705   8.072  20.294  0.00  0.00    +0.000 A 
ATOM      7  C   UNL     1       0.662   9.053  22.384  0.00  0.00    +0.000 C 
ATOM      8  C   UNL     1      -0.561   9.900  22.731  0.00  0.00    +0.000 C 
ATOM      9  N   UNL     1      -0.517  11.204  22.088  0.00  0.00    +0.000 N 
ATOM     10  C   UNL     1      -0.416  11.190  20.703  0.00  0.00    +0.000 C 
ATOM     11  O   UNL     1      -1.057  11.969  20.001  0.00  0.00    +0.000 OA
ENDROOT
BRANCH   1  12
ATOM     12  O   UNL     1       2.737   7.096  18.424  0.00  0.00    +0.000 OA
BRANCH  12  13
ATOM     13  C   UNL     1       3.093   6.092  19.377  0.00  0.00    +0.000 C 
BRANCH  13  14
ATOM     14  C   UNL     1       3.958   5.042  18.694  0.00  0.00    +0.000 C 
BRANCH  14  15
ATOM     15  C   UNL     1       3.183   4.362  17.569  0.00  0.00    +0.000 C 
BRANCH  15  16
ATOM     16  C   UNL     1       3.200   2.838  17.694  0.00  0.00    +0.000 C 
BRANCH  16  17
ATOM     17  C   UNL     1       1.902   2.349  18.334  0.00  0.00    +0.000 C 
BRANCH  17  21
ATOM     18  N   UNL     1       1.684   2.542  21.976  0.00  0.00    +0.000 NA
ATOM     19  C   UNL     1       1.424   2.837  20.742  0.00  0.00    +0.000 C 
ATOM     20  N   UNL     1       0.539   3.785  20.397  0.00  0.00    +0.000 N 
ATOM     21  N   UNL     1       2.052   2.178  19.757  0.00  0.00    +0.000 N 
ATOM     22  H   UNL     1       1.095   3.111  22.582  0.00  0.00    +0.000 HD
ATOM     23  H   UNL     1       0.314   4.459  21.115  0.00  0.00    +0.000 HD
ATOM     24  H   UNL     1       0.702   4.227  19.504  0.00  0.00    +0.000 HD
ATOM     25  H   UNL     1       2.695   1.467  20.089  0.00  0.00    +0.000 HD
ENDBRANCH  17  21
ENDBRANCH  16  17
ENDBRANCH  15  16
ENDBRANCH  14  15
ENDBRANCH  13  14
ENDBRANCH  12  13
ENDBRANCH   1  12
BRANCH   9  26
ATOM     26  C   UNL     1      -1.203  12.330  22.734  0.00  0.00    +0.000 C 
BRANCH  26  27
ATOM     27  C   UNL     1      -2.730  12.185  22.837  0.00  0.00    +0.000 C 
ATOM     28  O   UNL     1      -3.326  11.791  23.833  0.00  0.00    +0.000 OA
BRANCH  27  29
ATOM     29  O   UNL     1      -3.371  12.622  21.726  0.00  0.00    +0.000 OA
ATOM     30  H   UNL     1      -3.004  12.227  20.896  0.00  0.00    +0.000 HD
ENDBRANCH  27  29
ENDBRANCH  26  27
ENDBRANCH   9  26
TORSDOF 10
ENDMDL
MODEL 7
REMARK VINA RESULT:      -6.8      2.294      2.994
REMARK  Name = 
REMARK  10 active torsions:
REMARK  status: ('A' for Active; 'I' for Inactive)
REMARK    1  A    between atoms: N_4  and  C_5
REMARK    2  A    between atoms: C_5  and  C_6
REMARK    3  A    between atoms: C_6  and  C_7
REMARK    4  A    between atoms: C_7  and  C_8
REMARK    5  A    between atoms: C_8  and  C_9
REMARK    6  A    between atoms: C_9  and  O_10
REMARK    7  A    between atoms: O_10  and  C_11
REMARK    8  A    between atoms: N_19  and  C_20
REMARK    9  A    between atoms: C_20  and  C_21
REMARK   10  A    between atoms: C_21  and  O_23
REMARK                            x       y       z     vdW  Elec       q    Type
REMARK                         _______ _______ _______ _____ _____    ______ ____
ROOT
ATOM      1  C   UNL     1       1.972   7.479  19.803  0.00  0.00    +0.000 A 
ATOM      2  C   UNL     1       2.252   8.265  18.683  0.00  0.00    +0.000 A 
ATOM      3  C   UNL     1       3.105   7.799  17.690  0.00  0.00    +0.000 A 
ATOM      4  C   UNL     1       3.684   6.536  17.806  0.00  0.00    +0.000 A 
ATOM      5  C   UNL     1       3.384   5.712  18.907  0.00  0.00    +0.000 A 
ATOM      6  C   UNL     1       2.527   6.198  19.906  0.00  0.00    +0.000 A 
ATOM      7  C   UNL     1       3.924   4.307  18.963  0.00  0.00    +0.000 C 
ATOM      8  C   UNL     1       5.172   4.165  18.093  0.00  0.00    +0.000 C 
ATOM      9  N   UNL     1       4.978   4.740  16.770  0.00  0.00    +0.000 N 
ATOM     10  C   UNL     1       4.617   6.080  16.743  0.00  0.00    +0.000 C 
ATOM     11  O   UNL     1       5.096   6.861  15.923  0.00  0.00    +0.000 OA
ENDROOT
BRANCH   1  12
ATOM     12  O   UNL     1       1.183   7.875  20.852  0.00  0.00    +0.000 OA
BRANCH  12  13
ATOM     13  C   UNL     1       1.228   9.272  21.148  0.00  0.00    +0.000 C 
BRANCH  13  14
ATOM     14  C   UNL     1      -0.192   9.821  21.178  0.00  0.00    +0.000 C 
BRANCH  14  15
ATOM     15  C   UNL     1      -0.665  10.155  19.767  0.00  0.00    +0.000 C 
BRANCH  15  16
ATOM     16  C   UNL     1      -0.033  11.442  19.235  0.00  0.00    +0.000 C 
BRANCH  16  17
ATOM     17  C   UNL     1      -1.113  12.368  18.680  0.00  0.00    +0.000 C 
BRANCH  17  21
ATOM     18  N   UNL     1      -2.681  11.215  15.588  0.00  0.00    +0.000 NA
ATOM     19  C   UNL     1      -2.554  11.434  16.859  0.00  0.00    +0.000 C 
ATOM     20  N   UNL     1      -3.495  11.090  17.750  0.00  0.00    +0.000 N 
ATOM     21  N   UNL     1      -1.444  12.031  17.319  0.00  0.00    +0.000 N 
ATOM     22  H   UNL     1      -3.592  10.790  15.418  0.00  0.00    +0.000 HD
ATOM     23  H   UNL     1      -4.158  10.392  17.442  0.00  0.00    +0.000 HD
ATOM     24  H   UNL     1      -3.163  10.907  18.685  0.00  0.00    +0.000 HD
ATOM     25  H   UNL     1      -0.782  12.277  16.590  0.00  0.00    +0.000 HD
ENDBRANCH  17  21
ENDBRANCH  16  17
ENDBRANCH  15  16
ENDBRANCH  14  15
ENDBRANCH  13  14
ENDBRANCH  12  13
ENDBRANCH   1  12
BRANCH   9  26
ATOM     26  C   UNL     1       5.748   4.193  15.646  0.00  0.00    +0.000 C 
BRANCH  26  27
ATOM     27  C   UNL     1       7.195   4.701  15.544  0.00  0.00    +0.000 C 
ATOM     28  O   UNL     1       7.639   5.350  14.604  0.00  0.00    +0.000 OA
BRANCH  27  29
ATOM     29  O   UNL     1       7.923   4.425  16.653  0.00  0.00    +0.000 OA
ATOM     30  H   UNL     1       8.801   4.882  16.655  0.00  0.00    +0.000 HD
ENDBRANCH  27  29
ENDBRANCH  26  27
ENDBRANCH   9  26
TORSDOF 10
ENDMDL
MODEL 8
REMARK VINA RESULT:      -6.8      2.640      8.373
REMARK  Name = 
REMARK  10 active torsions:
REMARK  status: ('A' for Active; 'I' for Inactive)
REMARK    1  A    between atoms: N_4  and  C_5
REMARK    2  A    between atoms: C_5  and  C_6
REMARK    3  A    between atoms: C_6  and  C_7
REMARK    4  A    between atoms: C_7  and  C_8
REMARK    5  A    between atoms: C_8  and  C_9
REMARK    6  A    between atoms: C_9  and  O_10
REMARK    7  A    between atoms: O_10  and  C_11
REMARK    8  A    between atoms: N_19  and  C_20
REMARK    9  A    between atoms: C_20  and  C_21
REMARK   10  A    between atoms: C_21  and  O_23
REMARK                            x       y       z     vdW  Elec       q    Type
REMARK                         _______ _______ _______ _____ _____    ______ ____
ROOT
ATOM      1  C   UNL     1       2.541   5.580  19.265  0.00  0.00    +0.000 A 
ATOM      2  C   UNL     1       1.994   5.817  20.528  0.00  0.00    +0.000 A 
ATOM      3  C   UNL     1       1.492   7.072  20.855  0.00  0.00    +0.000 A 
ATOM      4  C   UNL     1       1.527   8.102  19.915  0.00  0.00    +0.000 A 
ATOM      5  C   UNL     1       2.037   7.872  18.624  0.00  0.00    +0.000 A 
ATOM      6  C   UNL     1       2.548   6.604  18.310  0.00  0.00    +0.000 A 
ATOM      7  C   UNL     1       1.964   8.960  17.584  0.00  0.00    +0.000 C 
ATOM      8  C   UNL     1       1.853  10.336  18.237  0.00  0.00    +0.000 C 
ATOM      9  N   UNL     1       0.841  10.360  19.282  0.00  0.00    +0.000 N 
ATOM     10  C   UNL     1       1.011   9.440  20.307  0.00  0.00    +0.000 C 
ATOM     11  O   UNL     1       0.809   9.737  21.482  0.00  0.00    +0.000 OA
ENDROOT
BRANCH   1  12
ATOM     12  O   UNL     1       3.102   4.392  18.873  0.00  0.00    +0.000 OA
BRANCH  12  13
ATOM     13  C   UNL     1       3.150   4.185  17.460  0.00  0.00    +0.000 C 
BRANCH  13  14
ATOM     14  C   UNL     1       4.516   3.626  17.086  0.00  0.00    +0.000 C 
BRANCH  14  15
ATOM     15  C   UNL     1       5.135   4.441  15.955  0.00  0.00    +0.000 C 
BRANCH  15  16
ATOM     16  C   UNL     1       5.204   5.932  16.287  0.00  0.00    +0.000 C 
BRANCH  16  17
ATOM     17  C   UNL     1       6.642   6.333  16.609  0.00  0.00    +0.000 C 
BRANCH  17  21
ATOM     18  N   UNL     1       7.709   5.494  20.001  0.00  0.00    +0.000 NA
ATOM     19  C   UNL     1       7.578   5.365  18.718  0.00  0.00    +0.000 C 
ATOM     20  N   UNL     1       8.106   4.337  18.038  0.00  0.00    +0.000 N 
ATOM     21  N   UNL     1       6.895   6.288  18.026  0.00  0.00    +0.000 N 
ATOM     22  H   UNL     1       8.282   4.728  20.352  0.00  0.00    +0.000 HD
ATOM     23  H   UNL     1       8.342   3.521  18.586  0.00  0.00    +0.000 HD
ATOM     24  H   UNL     1       7.630   4.090  17.183  0.00  0.00    +0.000 HD
ATOM     25  H   UNL     1       6.536   7.044  18.601  0.00  0.00    +0.000 HD
ENDBRANCH  17  21
ENDBRANCH  16  17
ENDBRANCH  15  16
ENDBRANCH  14  15
ENDBRANCH  13  14
ENDBRANCH  12  13
ENDBRANCH   1  12
BRANCH   9  26
ATOM     26  C   UNL     1       0.167  11.630  19.579  0.00  0.00    +0.000 C 
BRANCH  26  27
ATOM     27  C   UNL     1      -0.926  12.033  18.576  0.00  0.00    +0.000 C 
ATOM     28  O   UNL     1      -2.059  11.566  18.558  0.00  0.00    +0.000 OA
BRANCH  27  29
ATOM     29  O   UNL     1      -0.533  13.031  17.749  0.00  0.00    +0.000 OA
ATOM     30  H   UNL     1       0.452  13.126  17.708  0.00  0.00    +0.000 HD
ENDBRANCH  27  29
ENDBRANCH  26  27
ENDBRANCH   9  26
TORSDOF 10
ENDMDL
MODEL 9
REMARK VINA RESULT:      -6.7      2.250      8.170
REMARK  Name = 
REMARK  10 active torsions:
REMARK  status: ('A' for Active; 'I' for Inactive)
REMARK    1  A    between atoms: N_4  and  C_5
REMARK    2  A    between atoms: C_5  and  C_6
REMARK    3  A    between atoms: C_6  and  C_7
REMARK    4  A    between atoms: C_7  and  C_8
REMARK    5  A    between atoms: C_8  and  C_9
REMARK    6  A    between atoms: C_9  and  O_10
REMARK    7  A    between atoms: O_10  and  C_11
REMARK    8  A    between atoms: N_19  and  C_20
REMARK    9  A    between atoms: C_20  and  C_21
REMARK   10  A    between atoms: C_21  and  O_23
REMARK                            x       y       z     vdW  Elec       q    Type
REMARK                         _______ _______ _______ _____ _____    ______ ____
ROOT
ATOM      1  C   UNL     1       2.622   7.099  18.519  0.00  0.00    +0.000 A 
ATOM      2  C   UNL     1       2.438   8.166  17.638  0.00  0.00    +0.000 A 
ATOM      3  C   UNL     1       1.779   9.317  18.052  0.00  0.00    +0.000 A 
ATOM      4  C   UNL     1       1.302   9.414  19.359  0.00  0.00    +0.000 A 
ATOM      5  C   UNL     1       1.512   8.366  20.275  0.00  0.00    +0.000 A 
ATOM      6  C   UNL     1       2.171   7.206  19.840  0.00  0.00    +0.000 A 
ATOM      7  C   UNL     1       1.093   8.530  21.712  0.00  0.00    +0.000 C 
ATOM      8  C   UNL     1       0.000   9.588  21.847  0.00  0.00    +0.000 C 
ATOM      9  N   UNL     1       0.330  10.804  21.119  0.00  0.00    +0.000 N 
ATOM     10  C   UNL     1       0.573  10.646  19.761  0.00  0.00    +0.000 C 
ATOM     11  O   UNL     1       0.151  11.448  18.932  0.00  0.00    +0.000 OA
ENDROOT
BRANCH   1  12
ATOM     12  O   UNL     1       3.215   5.909  18.185  0.00  0.00    +0.000 OA
BRANCH  12  13
ATOM     13  C   UNL     1       4.385   5.584  18.937  0.00  0.00    +0.000 C 
BRANCH  13  14
ATOM     14  C   UNL     1       4.663   4.093  18.807  0.00  0.00    +0.000 C 
BRANCH  14  15
ATOM     15  C   UNL     1       3.967   3.527  17.573  0.00  0.00    +0.000 C 
BRANCH  15  16
ATOM     16  C   UNL     1       3.359   2.148  17.833  0.00  0.00    +0.000 C 
BRANCH  16  17
ATOM     17  C   UNL     1       1.964   2.295  18.435  0.00  0.00    +0.000 C 
BRANCH  17  21
ATOM     18  N   UNL     1       1.528   2.603  22.049  0.00  0.00    +0.000 NA
ATOM     19  C   UNL     1       1.397   2.902  20.796  0.00  0.00    +0.000 C 
ATOM     20  N   UNL     1       0.679   3.954  20.376  0.00  0.00    +0.000 N 
ATOM     21  N   UNL     1       1.991   2.139  19.867  0.00  0.00    +0.000 N 
ATOM     22  H   UNL     1       0.986   3.264  22.604  0.00  0.00    +0.000 HD
ATOM     23  H   UNL     1       0.502   4.671  21.067  0.00  0.00    +0.000 HD
ATOM     24  H   UNL     1       0.962   4.348  19.491  0.00  0.00    +0.000 HD
ATOM     25  H   UNL     1       2.504   1.353  20.254  0.00  0.00    +0.000 HD
ENDBRANCH  17  21
ENDBRANCH  16  17
ENDBRANCH  15  16
ENDBRANCH  14  15
ENDBRANCH  13  14
ENDBRANCH  12  13
ENDBRANCH   1  12
BRANCH   9  26
ATOM     26  C   UNL     1      -0.221  12.079  21.593  0.00  0.00    +0.000 C 
BRANCH  26  27
ATOM     27  C   UNL     1      -1.754  12.128  21.686  0.00  0.00    +0.000 C 
ATOM     28  O   UNL     1      -2.391  12.039  22.729  0.00  0.00    +0.000 OA
BRANCH  27  29
ATOM     29  O   UNL     1      -2.341  12.365  20.488  0.00  0.00    +0.000 OA
ATOM     30  H   UNL     1      -1.770  12.902  19.884  0.00  0.00    +0.000 HD
ENDBRANCH  27  29
ENDBRANCH  26  27
ENDBRANCH   9  26
TORSDOF 10
ENDMDL
