MODEL 1
REMARK VINA RESULT:      -7.4      0.000      0.000
REMARK  Name = 
REMARK  4 active torsions:
REMARK  status: ('A' for Active; 'I' for Inactive)
REMARK    1  A    between atoms: C_1  and  C_2
REMARK    2  A    between atoms: N_4  and  C_5
REMARK    3  A    between atoms: C_11  and  C_12
REMARK    4  A    between atoms: N_21  and  C_22
REMARK                            x       y       z     vdW  Elec       q    Type
REMARK                         _______ _______ _______ _____ _____    ______ ____
ROOT
ATOM      1  C   UNL     1       3.616   1.670  18.388  0.00  0.00    +0.000 C 
ATOM      2  C   UNL     1       3.584   3.037  19.086  0.00  0.00    +0.000 C 
ATOM      3  C   UNL     1       3.151   2.874  20.567  0.00  0.00    +0.000 C 
ATOM      4  N   UNL     1       1.751   2.425  20.679  0.00  0.00    +0.000 NA
ATOM      5  C   UNL     1       1.384   2.178  22.069  0.00  0.00    +0.000 C 
ATOM      6  C   UNL     1       0.887   3.450  20.058  0.00  0.00    +0.000 C 
ATOM      7  C   UNL     1       1.245   3.714  18.576  0.00  0.00    +0.000 C 
ATOM      8  N   UNL     1       2.685   3.971  18.357  0.00  0.00    +0.000 N 
ATOM      9  C   UNL     1       3.121   5.232  17.949  0.00  0.00    +0.000 A 
ATOM     10  N   UNL     1       2.499   6.303  18.368  0.00  0.00    +0.000 NA
ATOM     11  C   UNL     1       2.938   7.544  17.946  0.00  0.00    +0.000 A 
ATOM     12  C   UNL     1       4.002   7.710  17.152  0.00  0.00    +0.000 A 
ATOM     13  C   UNL     1       4.721   6.538  16.679  0.00  0.00    +0.000 A 
ATOM     14  O   UNL     1       5.708   6.694  15.964  0.00  0.00    +0.000 OA
ATOM     15  N   UNL     1       4.201   5.321  17.068  0.00  0.00    +0.000 N 
ATOM     16  C   UNL     1       4.757   4.157  16.404  0.00  0.00    +0.000 C 
ENDROOT
BRANCH  11  17
ATOM     17  C   UNL     1       2.222   8.784  18.381  0.00  0.00    +0.000 A 
ATOM     18  C   UNL     1       1.396   8.794  19.486  0.00  0.00    +0.000 A 
ATOM     19  C   UNL     1       0.803   9.999  19.794  0.00  0.00    +0.000 A 
ATOM     20  N   UNL     1       0.978  11.128  19.086  0.00  0.00    +0.000 NA
ATOM     21  C   UNL     1       1.789  11.021  18.027  0.00  0.00    +0.000 A 
ATOM     22  N   UNL     1       2.420   9.905  17.638  0.00  0.00    +0.000 NA
ENDBRANCH  11  17
TORSDOF 1
ENDMDL
MODEL 2
REMARK VINA RESULT:      -7.3      0.657      1.018
REMARK  Name = 
REMARK  4 active torsions:
REMARK  status: ('A' for Active; 'I' for Inactive)
REMARK    1  A    between atoms: C_1  and  C_2
REMARK    2  A    between atoms: N_4  and  C_5
REMARK    3  A    between atoms: C_11  and  C_12
REMARK    4  A    between atoms: N_21  and  C_22
REMARK                            x       y       z     vdW  Elec       q    Type
REMARK                         _______ _______ _______ _____ _____    ______ ____
ROOT
ATOM      1  C   UNL     1       3.617   1.708  18.381  0.00  0.00    +0.000 C 
ATOM      2  C   UNL     1       3.575   3.057  19.114  0.00  0.00    +0.000 C 
ATOM      3  C   UNL     1       3.177   2.849  20.599  0.00  0.00    +0.000 C 
ATOM      4  N   UNL     1       1.788   2.371  20.730  0.00  0.00    +0.000 NA
ATOM      5  C   UNL     1       1.457   2.083  22.121  0.00  0.00    +0.000 C 
ATOM      6  C   UNL     1       0.892   3.393  20.153  0.00  0.00    +0.000 C 
ATOM      7  C   UNL     1       1.213   3.700  18.671  0.00  0.00    +0.000 C 
ATOM      8  N   UNL     1       2.643   3.991  18.427  0.00  0.00    +0.000 N 
ATOM      9  C   UNL     1       3.046   5.269  18.041  0.00  0.00    +0.000 A 
ATOM     10  N   UNL     1       2.413   6.318  18.501  0.00  0.00    +0.000 NA
ATOM     11  C   UNL     1       2.820   7.577  18.100  0.00  0.00    +0.000 A 
ATOM     12  C   UNL     1       3.863   7.783  17.288  0.00  0.00    +0.000 A 
ATOM     13  C   UNL     1       4.593   6.637  16.771  0.00  0.00    +0.000 A 
ATOM     14  O   UNL     1       5.561   6.829  16.039  0.00  0.00    +0.000 OA
ATOM     15  N   UNL     1       4.105   5.401  17.141  0.00  0.00    +0.000 N 
ATOM     16  C   UNL     1       4.668   4.265  16.436  0.00  0.00    +0.000 C 
ENDROOT
BRANCH  11  17
ATOM     17  C   UNL     1       2.090   8.792  18.581  0.00  0.00    +0.000 A 
ATOM     18  C   UNL     1       2.103   9.974  17.868  0.00  0.00    +0.000 A 
ATOM     19  C   UNL     1       1.383  11.018  18.405  0.00  0.00    +0.000 A 
ATOM     20  N   UNL     1       0.696  10.946  19.558  0.00  0.00    +0.000 NA
ATOM     21  C   UNL     1       0.746   9.763  20.183  0.00  0.00    +0.000 A 
ATOM     22  N   UNL     1       1.409   8.682  19.752  0.00  0.00    +0.000 NA
ENDBRANCH  11  17
TORSDOF 1
ENDMDL
MODEL 3
REMARK VINA RESULT:      -6.1      3.743      5.788
REMARK  Name = 
REMARK  4 active torsions:
REMARK  status: ('A' for Active; 'I' for Inactive)
REMARK    1  A    between atoms: C_1  and  C_2
REMARK    2  A    between atoms: N_4  and  C_5
REMARK    3  A    between atoms: C_11  and  C_12
REMARK    4  A    between atoms: N_21  and  C_22
REMARK                            x       y       z     vdW  Elec       q    Type
REMARK                         _______ _______ _______ _____ _____    ______ ____
ROOT
ATOM      1  C   UNL     1       3.535   4.058  20.832  0.00  0.00    +0.000 C 
ATOM      2  C   UNL     1       3.466   4.435  19.345  0.00  0.00    +0.000 C 
ATOM      3  C   UNL     1       2.055   4.127  18.777  0.00  0.00    +0.000 C 
ATOM      4  N   UNL     1       1.782   2.677  18.753  0.00  0.00    +0.000 NA
ATOM      5  C   UNL     1       0.418   2.404  18.313  0.00  0.00    +0.000 C 
ATOM      6  C   UNL     1       2.781   2.035  17.875  0.00  0.00    +0.000 C 
ATOM      7  C   UNL     1       4.235   2.296  18.334  0.00  0.00    +0.000 C 
ATOM      8  N   UNL     1       4.526   3.724  18.580  0.00  0.00    +0.000 N 
ATOM      9  C   UNL     1       5.415   4.414  17.756  0.00  0.00    +0.000 A 
ATOM     10  N   UNL     1       5.484   4.121  16.483  0.00  0.00    +0.000 NA
ATOM     11  C   UNL     1       6.377   4.807  15.682  0.00  0.00    +0.000 A 
ATOM     12  C   UNL     1       7.158   5.794  16.139  0.00  0.00    +0.000 A 
ATOM     13  C   UNL     1       7.095   6.150  17.547  0.00  0.00    +0.000 A 
ATOM     14  O   UNL     1       7.799   7.068  17.961  0.00  0.00    +0.000 OA
ATOM     15  N   UNL     1       6.242   5.388  18.319  0.00  0.00    +0.000 N 
ATOM     16  C   UNL     1       6.358   5.571  19.753  0.00  0.00    +0.000 C 
ENDROOT
BRANCH  11  17
ATOM     17  C   UNL     1       6.503   4.467  14.230  0.00  0.00    +0.000 A 
ATOM     18  C   UNL     1       5.682   3.533  13.632  0.00  0.00    +0.000 A 
ATOM     19  C   UNL     1       5.885   3.315  12.287  0.00  0.00    +0.000 A 
ATOM     20  N   UNL     1       6.821   3.943  11.554  0.00  0.00    +0.000 NA
ATOM     21  C   UNL     1       7.575   4.825  12.221  0.00  0.00    +0.000 A 
ATOM     22  N   UNL     1       7.463   5.119  13.523  0.00  0.00    +0.000 NA
ENDBRANCH  11  17
TORSDOF 1
ENDMDL
MODEL 4
REMARK VINA RESULT:      -6.0      3.352      8.520
REMARK  Name = 
REMARK  4 active torsions:
REMARK  status: ('A' for Active; 'I' for Inactive)
REMARK    1  A    between atoms: C_1  and  C_2
REMARK    2  A    between atoms: N_4  and  C_5
REMARK    3  A    between atoms: C_11  and  C_12
REMARK    4  A    between atoms: N_21  and  C_22
REMARK                            x       y       z     vdW  Elec       q    Type
REMARK                         _______ _______ _______ _____ _____    ______ ____
ROOT
ATOM      1  C   UNL     1       0.341  14.654  20.894  0.00  0.00    +0.000 C 
ATOM      2  C   UNL     1       1.346  13.496  20.814  0.00  0.00    +0.000 C 
ATOM      3  C   UNL     1       2.669  13.976  20.160  0.00  0.00    +0.000 C 
ATOM      4  N   UNL     1       2.478  14.331  18.741  0.00  0.00    +0.000 NA
ATOM      5  C   UNL     1       3.701  14.876  18.163  0.00  0.00    +0.000 C 
ATOM      6  C   UNL     1       2.021  13.125  18.022  0.00  0.00    +0.000 C 
ATOM      7  C   UNL     1       0.713  12.541  18.607  0.00  0.00    +0.000 C 
ATOM      8  N   UNL     1       0.759  12.349  20.072  0.00  0.00    +0.000 N 
ATOM      9  C   UNL     1       0.738  11.064  20.615  0.00  0.00    +0.000 A 
ATOM     10  N   UNL     1       1.324  10.080  19.982  0.00  0.00    +0.000 NA
ATOM     11  C   UNL     1       1.286   8.812  20.529  0.00  0.00    +0.000 A 
ATOM     12  C   UNL     1       0.707   8.541  21.705  0.00  0.00    +0.000 A 
ATOM     13  C   UNL     1       0.059   9.616  22.437  0.00  0.00    +0.000 A 
ATOM     14  O   UNL     1      -0.456   9.369  23.525  0.00  0.00    +0.000 OA
ATOM     15  N   UNL     1       0.060  10.848  21.816  0.00  0.00    +0.000 N 
ATOM     16  C   UNL     1      -0.791  11.857  22.417  0.00  0.00    +0.000 C 
ENDROOT
BRANCH  11  17
ATOM     17  C   UNL     1       1.915   7.661  19.808  0.00  0.00    +0.000 A 
ATOM     18  C   UNL     1       2.391   7.787  18.519  0.00  0.00    +0.000 A 
ATOM     19  C   UNL     1       2.961   6.662  17.965  0.00  0.00    +0.000 A 
ATOM     20  N   UNL     1       3.065   5.481  18.599  0.00  0.00    +0.000 NA
ATOM     21  C   UNL     1       2.570   5.451  19.842  0.00  0.00    +0.000 A 
ATOM     22  N   UNL     1       2.000   6.482  20.479  0.00  0.00    +0.000 NA
ENDBRANCH  11  17
TORSDOF 1
ENDMDL
MODEL 5
REMARK VINA RESULT:      -5.9      6.035      8.825
REMARK  Name = 
REMARK  4 active torsions:
REMARK  status: ('A' for Active; 'I' for Inactive)
REMARK    1  A    between atoms: C_1  and  C_2
REMARK    2  A    between atoms: N_4  and  C_5
REMARK    3  A    between atoms: C_11  and  C_12
REMARK    4  A    between atoms: N_21  and  C_22
REMARK                            x       y       z     vdW  Elec       q    Type
REMARK                         _______ _______ _______ _____ _____    ______ ____
ROOT
ATOM      1  C   UNL     1       0.612   9.564  17.869  0.00  0.00    +0.000 C 
ATOM      2  C   UNL     1      -0.718   9.787  18.604  0.00  0.00    +0.000 C 
ATOM      3  C   UNL     1      -1.905   9.694  17.609  0.00  0.00    +0.000 C 
ATOM      4  N   UNL     1      -1.888  10.802  16.636  0.00  0.00    +0.000 NA
ATOM      5  C   UNL     1      -2.947  10.652  15.644  0.00  0.00    +0.000 C 
ATOM      6  C   UNL     1      -2.011  12.071  17.382  0.00  0.00    +0.000 C 
ATOM      7  C   UNL     1      -0.886  12.262  18.427  0.00  0.00    +0.000 C 
ATOM      8  N   UNL     1      -0.705  11.093  19.315  0.00  0.00    +0.000 N 
ATOM      9  C   UNL     1      -1.010  11.187  20.673  0.00  0.00    +0.000 A 
ATOM     10  N   UNL     1      -2.002  11.942  21.067  0.00  0.00    +0.000 NA
ATOM     11  C   UNL     1      -2.285  12.031  22.417  0.00  0.00    +0.000 A 
ATOM     12  C   UNL     1      -1.611  11.347  23.350  0.00  0.00    +0.000 A 
ATOM     13  C   UNL     1      -0.510  10.491  22.941  0.00  0.00    +0.000 A 
ATOM     14  O   UNL     1       0.096   9.850  23.797  0.00  0.00    +0.000 OA
ATOM     15  N   UNL     1      -0.221  10.492  21.591  0.00  0.00    +0.000 N 
ATOM     16  C   UNL     1       1.019   9.842  21.213  0.00  0.00    +0.000 C 
ENDROOT
BRANCH  11  17
ATOM     17  C   UNL     1      -3.391  12.916  22.899  0.00  0.00    +0.000 A 
ATOM     18  C   UNL     1      -3.135  14.109  23.543  0.00  0.00    +0.000 A 
ATOM     19  C   UNL     1      -4.235  14.844  23.928  0.00  0.00    +0.000 A 
ATOM     20  N   UNL     1      -5.507  14.461  23.718  0.00  0.00    +0.000 NA
ATOM     21  C   UNL     1      -5.657  13.288  23.093  0.00  0.00    +0.000 A 
ATOM     22  N   UNL     1      -4.663  12.495  22.672  0.00  0.00    +0.000 NA
ENDBRANCH  11  17
TORSDOF 1
ENDMDL
MODEL 6
REMARK VINA RESULT:      -5.9      3.378      8.439
REMARK  Name = 
REMARK  4 active torsions:
REMARK  status: ('A' for Active; 'I' for Inactive)
REMARK    1  A    between atoms: C_1  and  C_2
REMARK    2  A    between atoms: N_4  and  C_5
REMARK    3  A    between atoms: C_11  and  C_12
REMARK    4  A    between atoms: N_21  and  C_22
REMARK                            x       y       z     vdW  Elec       q    Type
REMARK                         _______ _______ _______ _____ _____    ______ ____
ROOT
ATOM      1  C   UNL     1       0.447  14.645  20.826  0.00  0.00    +0.000 C 
ATOM      2  C   UNL     1       1.414  13.453  20.807  0.00  0.00    +0.000 C 
ATOM      3  C   UNL     1       2.785  13.882  20.220  0.00  0.00    +0.000 C 
ATOM      4  N   UNL     1       2.680  14.231  18.791  0.00  0.00    +0.000 NA
ATOM      5  C   UNL     1       3.950  14.728  18.274  0.00  0.00    +0.000 C 
ATOM      6  C   UNL     1       2.220  13.034  18.057  0.00  0.00    +0.000 C 
ATOM      7  C   UNL     1       0.864  12.501  18.577  0.00  0.00    +0.000 C 
ATOM      8  N   UNL     1       0.827  12.320  20.044  0.00  0.00    +0.000 N 
ATOM      9  C   UNL     1       0.734  11.041  20.594  0.00  0.00    +0.000 A 
ATOM     10  N   UNL     1       1.318  10.033  20.000  0.00  0.00    +0.000 NA
ATOM     11  C   UNL     1       1.208   8.771  20.553  0.00  0.00    +0.000 A 
ATOM     12  C   UNL     1       0.559   8.531  21.699  0.00  0.00    +0.000 A 
ATOM     13  C   UNL     1      -0.089   9.634  22.388  0.00  0.00    +0.000 A 
ATOM     14  O   UNL     1      -0.669   9.415  23.450  0.00  0.00    +0.000 OA
ATOM     15  N   UNL     1      -0.013  10.860  21.760  0.00  0.00    +0.000 N 
ATOM     16  C   UNL     1      -0.859  11.903  22.308  0.00  0.00    +0.000 C 
ENDROOT
BRANCH  11  17
ATOM     17  C   UNL     1       1.833   7.594  19.874  0.00  0.00    +0.000 A 
ATOM     18  C   UNL     1       1.832   6.340  20.450  0.00  0.00    +0.000 A 
ATOM     19  C   UNL     1       2.427   5.333  19.723  0.00  0.00    +0.000 A 
ATOM     20  N   UNL     1       2.998   5.509  18.518  0.00  0.00    +0.000 NA
ATOM     21  C   UNL     1       2.959   6.759  18.043  0.00  0.00    +0.000 A 
ATOM     22  N   UNL     1       2.405   7.811  18.660  0.00  0.00    +0.000 NA
ENDBRANCH  11  17
TORSDOF 1
ENDMDL
MODEL 7
REMARK VINA RESULT:      -5.9      3.786      8.983
REMARK  Name = 
REMARK  4 active torsions:
REMARK  status: ('A' for Active; 'I' for Inactive)
REMARK    1  A    between atoms: C_1  and  C_2
REMARK    2  A    between atoms: N_4  and  C_5
REMARK    3  A    between atoms: C_11  and  C_12
REMARK    4  A    between atoms: N_21  and  C_22
REMARK                            x       y       z     vdW  Elec       q    Type
REMARK                         _______ _______ _______ _____ _____    ______ ____
ROOT
ATOM      1  C   UNL     1      -1.472  14.782  21.743  0.00  0.00    +0.000 C 
ATOM      2  C   UNL     1      -0.235  13.973  21.324  0.00  0.00    +0.000 C 
ATOM      3  C   UNL     1       0.706  14.844  20.450  0.00  0.00    +0.000 C 
ATOM      4  N   UNL     1       0.089  15.179  19.152  0.00  0.00    +0.000 NA
ATOM      5  C   UNL     1       0.937  16.079  18.380  0.00  0.00    +0.000 C 
ATOM      6  C   UNL     1      -0.176  13.918  18.429  0.00  0.00    +0.000 C 
ATOM      7  C   UNL     1      -1.091  12.956  19.222  0.00  0.00    +0.000 C 
ATOM      8  N   UNL     1      -0.643  12.732  20.614  0.00  0.00    +0.000 N 
ATOM      9  C   UNL     1      -0.177  11.479  21.010  0.00  0.00    +0.000 A 
ATOM     10  N   UNL     1       0.488  10.734  20.165  0.00  0.00    +0.000 NA
ATOM     11  C   UNL     1       0.935   9.491  20.572  0.00  0.00    +0.000 A 
ATOM     12  C   UNL     1       0.754   9.020  21.811  0.00  0.00    +0.000 A 
ATOM     13  C   UNL     1       0.029   9.830  22.776  0.00  0.00    +0.000 A 
ATOM     14  O   UNL     1      -0.121   9.404  23.919  0.00  0.00    +0.000 OA
ATOM     15  N   UNL     1      -0.459  11.030  22.302  0.00  0.00    +0.000 N 
ATOM     16  C   UNL     1      -1.386  11.723  23.177  0.00  0.00    +0.000 C 
ENDROOT
BRANCH  11  17
ATOM     17  C   UNL     1       1.665   8.603  19.614  0.00  0.00    +0.000 A 
ATOM     18  C   UNL     1       1.962   9.011  18.330  0.00  0.00    +0.000 A 
ATOM     19  C   UNL     1       2.649   8.110  17.546  0.00  0.00    +0.000 A 
ATOM     20  N   UNL     1       3.026   6.887  17.958  0.00  0.00    +0.000 NA
ATOM     21  C   UNL     1       2.688   6.576  19.215  0.00  0.00    +0.000 A 
ATOM     22  N   UNL     1       2.027   7.372  20.064  0.00  0.00    +0.000 NA
ENDBRANCH  11  17
TORSDOF 1
ENDMDL
MODEL 8
REMARK VINA RESULT:      -5.8      3.726      5.890
REMARK  Name = 
REMARK  4 active torsions:
REMARK  status: ('A' for Active; 'I' for Inactive)
REMARK    1  A    between atoms: C_1  and  C_2
REMARK    2  A    between atoms: N_4  and  C_5
REMARK    3  A    between atoms: C_11  and  C_12
REMARK    4  A    between atoms: N_21  and  C_22
REMARK                            x       y       z     vdW  Elec       q    Type
REMARK                         _______ _______ _______ _____ _____    ______ ____
ROOT
ATOM      1  C   UNL     1       3.711   4.175  20.755  0.00  0.00    +0.000 C 
ATOM      2  C   UNL     1       3.511   4.472  19.262  0.00  0.00    +0.000 C 
ATOM      3  C   UNL     1       2.039   4.204  18.853  0.00  0.00    +0.000 C 
ATOM      4  N   UNL     1       1.701   2.771  18.941  0.00  0.00    +0.000 NA
ATOM      5  C   UNL     1       0.289   2.542  18.652  0.00  0.00    +0.000 C 
ATOM      6  C   UNL     1       2.578   2.032  18.011  0.00  0.00    +0.000 C 
ATOM      7  C   UNL     1       4.081   2.245  18.312  0.00  0.00    +0.000 C 
ATOM      8  N   UNL     1       4.458   3.669  18.442  0.00  0.00    +0.000 N 
ATOM      9  C   UNL     1       5.290   4.267  17.496  0.00  0.00    +0.000 A 
ATOM     10  N   UNL     1       5.219   3.901  16.243  0.00  0.00    +0.000 NA
ATOM     11  C   UNL     1       6.058   4.497  15.320  0.00  0.00    +0.000 A 
ATOM     12  C   UNL     1       6.923   5.467  15.639  0.00  0.00    +0.000 A 
ATOM     13  C   UNL     1       7.016   5.903  17.023  0.00  0.00    +0.000 A 
ATOM     14  O   UNL     1       7.798   6.806  17.311  0.00  0.00    +0.000 OA
ATOM     15  N   UNL     1       6.211   5.228  17.918  0.00  0.00    +0.000 N 
ATOM     16  C   UNL     1       6.477   5.483  19.320  0.00  0.00    +0.000 C 
ENDROOT
BRANCH  11  17
ATOM     17  C   UNL     1       6.024   4.071  13.885  0.00  0.00    +0.000 A 
ATOM     18  C   UNL     1       7.153   4.103  13.093  0.00  0.00    +0.000 A 
ATOM     19  C   UNL     1       7.000   3.673  11.793  0.00  0.00    +0.000 A 
ATOM     20  N   UNL     1       5.836   3.245  11.274  0.00  0.00    +0.000 NA
ATOM     21  C   UNL     1       4.794   3.256  12.114  0.00  0.00    +0.000 A 
ATOM     22  N   UNL     1       4.829   3.648  13.394  0.00  0.00    +0.000 NA
ENDBRANCH  11  17
TORSDOF 1
ENDMDL
MODEL 9
REMARK VINA RESULT:      -5.7      8.158     11.278
REMARK  Name = 
REMARK  4 active torsions:
REMARK  status: ('A' for Active; 'I' for Inactive)
REMARK    1  A    between atoms: C_1  and  C_2
REMARK    2  A    between atoms: N_4  and  C_5
REMARK    3  A    between atoms: C_11  and  C_12
REMARK    4  A    between atoms: N_21  and  C_22
REMARK                            x       y       z     vdW  Elec       q    Type
REMARK                         _______ _______ _______ _____ _____    ______ ____
ROOT
ATOM      1  C   UNL     1      -4.961  14.566  23.787  0.00  0.00    +0.000 C 
ATOM      2  C   UNL     1      -4.265  13.487  22.946  0.00  0.00    +0.000 C 
ATOM      3  C   UNL     1      -2.758  13.409  23.311  0.00  0.00    +0.000 C 
ATOM      4  N   UNL     1      -2.038  14.635  22.917  0.00  0.00    +0.000 NA
ATOM      5  C   UNL     1      -0.647  14.594  23.353  0.00  0.00    +0.000 C 
ATOM      6  C   UNL     1      -2.150  14.784  21.452  0.00  0.00    +0.000 C 
ATOM      7  C   UNL     1      -3.617  14.849  20.968  0.00  0.00    +0.000 C 
ATOM      8  N   UNL     1      -4.459  13.754  21.496  0.00  0.00    +0.000 N 
ATOM      9  C   UNL     1      -4.965  12.778  20.637  0.00  0.00    +0.000 A 
ATOM     10  N   UNL     1      -4.260  12.389  19.606  0.00  0.00    +0.000 NA
ATOM     11  C   UNL     1      -4.780  11.428  18.760  0.00  0.00    +0.000 A 
ATOM     12  C   UNL     1      -5.965  10.840  18.964  0.00  0.00    +0.000 A 
ATOM     13  C   UNL     1      -6.766  11.243  20.108  0.00  0.00    +0.000 A 
ATOM     14  O   UNL     1      -7.845  10.689  20.304  0.00  0.00    +0.000 OA
ATOM     15  N   UNL     1      -6.237  12.256  20.881  0.00  0.00    +0.000 N 
ATOM     16  C   UNL     1      -7.133  12.829  21.867  0.00  0.00    +0.000 C 
ENDROOT
BRANCH  11  17
ATOM     17  C   UNL     1      -4.011  10.992  17.552  0.00  0.00    +0.000 A 
ATOM     18  C   UNL     1      -2.853  10.249  17.660  0.00  0.00    +0.000 A 
ATOM     19  C   UNL     1      -2.242   9.896  16.477  0.00  0.00    +0.000 A 
ATOM     20  N   UNL     1      -2.701  10.238  15.260  0.00  0.00    +0.000 NA
ATOM     21  C   UNL     1      -3.825  10.964  15.255  0.00  0.00    +0.000 A 
ATOM     22  N   UNL     1      -4.504  11.359  16.340  0.00  0.00    +0.000 NA
ENDBRANCH  11  17
TORSDOF 1
ENDMDL
