MODEL 1
REMARK VINA RESULT:      -8.3      0.000      0.000
REMARK  Name = 
REMARK  6 active torsions:
REMARK  status: ('A' for Active; 'I' for Inactive)
REMARK    1  A    between atoms: C_1  and  C_2
REMARK    2  A    between atoms: C_2  and  C_3
REMARK    3  A    between atoms: C_8  and  C_9
REMARK    4  A    between atoms: C_13  and  N_14
REMARK    5  A    between atoms: C_15  and  C_17
REMARK    6  A    between atoms: C_24  and  O_25
REMARK                            x       y       z     vdW  Elec       q    Type
REMARK                         _______ _______ _______ _____ _____    ______ ____
ROOT
ATOM      1  C   UNL     1       2.574   2.157  18.727  0.00  0.00    +0.000 C 
ATOM      2  C   UNL     1       3.164   3.577  18.774  0.00  0.00    +0.000 C 
ATOM      3  C   UNL     1       2.843   4.145  20.170  0.00  0.00    +0.000 C 
ATOM      4  O   UNL     1       4.597   3.458  18.659  0.00  0.00    +0.000 OA
ATOM      5  C   UNL     1       5.271   4.611  18.328  0.00  0.00    +0.000 A 
ATOM      6  C   UNL     1       6.656   4.542  18.490  0.00  0.00    +0.000 A 
ATOM      7  C   UNL     1       7.449   5.659  18.224  0.00  0.00    +0.000 A 
ATOM      8  C   UNL     1       6.853   6.854  17.787  0.00  0.00    +0.000 A 
ATOM      9  C   UNL     1       5.462   6.920  17.585  0.00  0.00    +0.000 A 
ATOM     10  C   UNL     1       4.662   5.790  17.848  0.00  0.00    +0.000 A 
ATOM     11  C   UNL     1       3.158   5.849  17.626  0.00  0.00    +0.000 C 
ATOM     12  C   UNL     1       2.624   4.390  17.577  0.00  0.00    +0.000 C 
ENDROOT
BRANCH  11  13
ATOM     13  N   UNL     1       2.553   6.708  18.651  0.00  0.00    +0.000 N 
ATOM     14  C   UNL     1       2.187   8.017  18.429  0.00  0.00    +0.000 C 
ATOM     15  O   UNL     1       2.397   8.597  17.372  0.00  0.00    +0.000 OA
ATOM     16  H   UNL     1       2.238   6.254  19.496  0.00  0.00    +0.000 HD
BRANCH  14  17
ATOM     17  C   UNL     1       1.405   8.683  19.499  0.00  0.00    +0.000 A 
ATOM     18  C   UNL     1       1.419   8.212  20.818  0.00  0.00    +0.000 A 
ATOM     19  C   UNL     1       0.647   8.851  21.790  0.00  0.00    +0.000 A 
ATOM     20  C   UNL     1      -0.137   9.956  21.448  0.00  0.00    +0.000 A 
ATOM     21  C   UNL     1      -0.137  10.427  20.136  0.00  0.00    +0.000 A 
ATOM     22 CL   UNL     1      -1.112  11.783  19.720  0.00  0.00    +0.000 Cl
ATOM     23  C   UNL     1       0.636   9.804  19.161  0.00  0.00    +0.000 A 
ENDBRANCH  14  17
ENDBRANCH  11  13
BRANCH   8  24
ATOM     24  C   UNL     1       7.672   8.005  17.550  0.00  0.00    +0.000 C 
ATOM     25  N   UNL     1       8.327   8.947  17.372  0.00  0.00    +0.000 NA
ENDBRANCH   8  24
BRANCH  12  26
ATOM     26  O   UNL     1       1.216   4.228  17.422  0.00  0.00    +0.000 OA
ATOM     27  H   UNL     1       1.029   3.770  16.577  0.00  0.00    +0.000 HD
ENDBRANCH  12  26
TORSDOF 4
ENDMDL
MODEL 2
REMARK VINA RESULT:      -8.0      1.016      1.409
REMARK  Name = 
REMARK  6 active torsions:
REMARK  status: ('A' for Active; 'I' for Inactive)
REMARK    1  A    between atoms: C_1  and  C_2
REMARK    2  A    between atoms: C_2  and  C_3
REMARK    3  A    between atoms: C_8  and  C_9
REMARK    4  A    between atoms: C_13  and  N_14
REMARK    5  A    between atoms: C_15  and  C_17
REMARK    6  A    between atoms: C_24  and  O_25
REMARK                            x       y       z     vdW  Elec       q    Type
REMARK                         _______ _______ _______ _____ _____    ______ ____
ROOT
ATOM      1  C   UNL     1       2.244   2.289  19.342  0.00  0.00    +0.000 C 
ATOM      2  C   UNL     1       2.869   3.688  19.198  0.00  0.00    +0.000 C 
ATOM      3  C   UNL     1       2.468   4.484  20.454  0.00  0.00    +0.000 C 
ATOM      4  O   UNL     1       4.302   3.528  19.208  0.00  0.00    +0.000 OA
ATOM      5  C   UNL     1       5.030   4.599  18.743  0.00  0.00    +0.000 A 
ATOM      6  C   UNL     1       6.397   4.536  19.014  0.00  0.00    +0.000 A 
ATOM      7  C   UNL     1       7.238   5.580  18.626  0.00  0.00    +0.000 A 
ATOM      8  C   UNL     1       6.707   6.696  17.956  0.00  0.00    +0.000 A 
ATOM      9  C   UNL     1       5.336   6.749  17.646  0.00  0.00    +0.000 A 
ATOM     10  C   UNL     1       4.488   5.692  18.032  0.00  0.00    +0.000 A 
ATOM     11  C   UNL     1       3.005   5.737  17.695  0.00  0.00    +0.000 C 
ATOM     12  C   UNL     1       2.435   4.299  17.847  0.00  0.00    +0.000 C 
ENDROOT
BRANCH  11  13
ATOM     13  N   UNL     1       2.355   6.764  18.517  0.00  0.00    +0.000 N 
ATOM     14  C   UNL     1       2.195   8.072  18.119  0.00  0.00    +0.000 C 
ATOM     15  O   UNL     1       2.644   8.507  17.066  0.00  0.00    +0.000 OA
ATOM     16  H   UNL     1       1.854   6.442  19.334  0.00  0.00    +0.000 HD
BRANCH  14  17
ATOM     17  C   UNL     1       1.341   8.932  18.974  0.00  0.00    +0.000 A 
ATOM     18  C   UNL     1       0.551   9.952  18.430  0.00  0.00    +0.000 A 
ATOM     19  C   UNL     1      -0.217  10.757  19.273  0.00  0.00    +0.000 A 
ATOM     20  C   UNL     1      -0.197  10.547  20.653  0.00  0.00    +0.000 A 
ATOM     21  C   UNL     1       0.583   9.522  21.188  0.00  0.00    +0.000 A 
ATOM     22 CL   UNL     1       0.610   9.275  22.891  0.00  0.00    +0.000 Cl
ATOM     23  C   UNL     1       1.345   8.707  20.357  0.00  0.00    +0.000 A 
ENDBRANCH  14  17
ENDBRANCH  11  13
BRANCH   8  24
ATOM     24  C   UNL     1       7.572   7.778  17.594  0.00  0.00    +0.000 C 
ATOM     25  N   UNL     1       8.272   8.662  17.317  0.00  0.00    +0.000 NA
ENDBRANCH   8  24
BRANCH  12  26
ATOM     26  O   UNL     1       1.038   4.136  17.619  0.00  0.00    +0.000 OA
ATOM     27  H   UNL     1       0.580   4.991  17.758  0.00  0.00    +0.000 HD
ENDBRANCH  12  26
TORSDOF 4
ENDMDL
MODEL 3
REMARK VINA RESULT:      -7.3      3.044      4.433
REMARK  Name = 
REMARK  6 active torsions:
REMARK  status: ('A' for Active; 'I' for Inactive)
REMARK    1  A    between atoms: C_1  and  C_2
REMARK    2  A    between atoms: C_2  and  C_3
REMARK    3  A    between atoms: C_8  and  C_9
REMARK    4  A    between atoms: C_13  and  N_14
REMARK    5  A    between atoms: C_15  and  C_17
REMARK    6  A    between atoms: C_24  and  O_25
REMARK                            x       y       z     vdW  Elec       q    Type
REMARK                         _______ _______ _______ _____ _____    ______ ____
ROOT
ATOM      1  C   UNL     1       8.388   5.549  19.159  0.00  0.00    +0.000 C 
ATOM      2  C   UNL     1       7.285   5.546  18.086  0.00  0.00    +0.000 C 
ATOM      3  C   UNL     1       6.774   6.995  17.971  0.00  0.00    +0.000 C 
ATOM      4  O   UNL     1       7.897   5.188  16.831  0.00  0.00    +0.000 OA
ATOM      5  C   UNL     1       7.038   4.789  15.834  0.00  0.00    +0.000 A 
ATOM      6  C   UNL     1       7.613   4.714  14.565  0.00  0.00    +0.000 A 
ATOM      7  C   UNL     1       6.835   4.357  13.462  0.00  0.00    +0.000 A 
ATOM      8  C   UNL     1       5.470   4.069  13.631  0.00  0.00    +0.000 A 
ATOM      9  C   UNL     1       4.891   4.106  14.914  0.00  0.00    +0.000 A 
ATOM     10  C   UNL     1       5.679   4.460  16.027  0.00  0.00    +0.000 A 
ATOM     11  C   UNL     1       5.064   4.497  17.418  0.00  0.00    +0.000 C 
ATOM     12  C   UNL     1       6.223   4.486  18.455  0.00  0.00    +0.000 C 
ENDROOT
BRANCH  11  13
ATOM     13  N   UNL     1       4.146   5.638  17.510  0.00  0.00    +0.000 N 
ATOM     14  C   UNL     1       3.281   5.838  18.562  0.00  0.00    +0.000 C 
ATOM     15  O   UNL     1       3.156   5.040  19.483  0.00  0.00    +0.000 OA
ATOM     16  H   UNL     1       4.291   6.391  16.852  0.00  0.00    +0.000 HD
BRANCH  14  17
ATOM     17  C   UNL     1       2.569   7.138  18.604  0.00  0.00    +0.000 A 
ATOM     18  C   UNL     1       2.547   7.998  17.500  0.00  0.00    +0.000 A 
ATOM     19  C   UNL     1       1.889   9.226  17.591  0.00  0.00    +0.000 A 
ATOM     20  C   UNL     1       1.256   9.596  18.779  0.00  0.00    +0.000 A 
ATOM     21  C   UNL     1       1.270   8.730  19.872  0.00  0.00    +0.000 A 
ATOM     22 CL   UNL     1       0.495   9.196  21.336  0.00  0.00    +0.000 Cl
ATOM     23  C   UNL     1       1.915   7.499  19.790  0.00  0.00    +0.000 A 
ENDBRANCH  14  17
ENDBRANCH  11  13
BRANCH   8  24
ATOM     24  C   UNL     1       4.672   3.738  12.488  0.00  0.00    +0.000 C 
ATOM     25  N   UNL     1       4.035   3.455  11.560  0.00  0.00    +0.000 NA
ENDBRANCH   8  24
BRANCH  12  26
ATOM     26  O   UNL     1       5.854   4.564  19.829  0.00  0.00    +0.000 OA
ATOM     27  H   UNL     1       4.977   4.149  19.959  0.00  0.00    +0.000 HD
ENDBRANCH  12  26
TORSDOF 4
ENDMDL
MODEL 4
REMARK VINA RESULT:      -7.3      3.866      8.380
REMARK  Name = 
REMARK  6 active torsions:
REMARK  status: ('A' for Active; 'I' for Inactive)
REMARK    1  A    between atoms: C_1  and  C_2
REMARK    2  A    between atoms: C_2  and  C_3
REMARK    3  A    between atoms: C_8  and  C_9
REMARK    4  A    between atoms: C_13  and  N_14
REMARK    5  A    between atoms: C_15  and  C_17
REMARK    6  A    between atoms: C_24  and  O_25
REMARK                            x       y       z     vdW  Elec       q    Type
REMARK                         _______ _______ _______ _____ _____    ______ ____
ROOT
ATOM      1  C   UNL     1      -0.559  12.851  22.479  0.00  0.00    +0.000 C 
ATOM      2  C   UNL     1      -0.734  11.972  21.228  0.00  0.00    +0.000 C 
ATOM      3  C   UNL     1      -0.754  10.510  21.711  0.00  0.00    +0.000 C 
ATOM      4  O   UNL     1      -2.025  12.273  20.660  0.00  0.00    +0.000 OA
ATOM      5  C   UNL     1      -2.222  11.862  19.362  0.00  0.00    +0.000 A 
ATOM      6  C   UNL     1      -3.548  11.913  18.930  0.00  0.00    +0.000 A 
ATOM      7  C   UNL     1      -3.883  11.488  17.644  0.00  0.00    +0.000 A 
ATOM      8  C   UNL     1      -2.882  11.010  16.780  0.00  0.00    +0.000 A 
ATOM      9  C   UNL     1      -1.538  10.991  17.195  0.00  0.00    +0.000 A 
ATOM     10  C   UNL     1      -1.199  11.427  18.491  0.00  0.00    +0.000 A 
ATOM     11  C   UNL     1       0.252  11.416  18.948  0.00  0.00    +0.000 C 
ATOM     12  C   UNL     1       0.367  12.326  20.203  0.00  0.00    +0.000 C 
ENDROOT
BRANCH  11  13
ATOM     13  N   UNL     1       0.689  10.028  19.133  0.00  0.00    +0.000 N 
ATOM     14  C   UNL     1       1.661   9.425  18.366  0.00  0.00    +0.000 C 
ATOM     15  O   UNL     1       2.197   9.979  17.415  0.00  0.00    +0.000 OA
ATOM     16  H   UNL     1       0.380   9.563  19.975  0.00  0.00    +0.000 HD
BRANCH  14  17
ATOM     17  C   UNL     1       2.130   8.090  18.809  0.00  0.00    +0.000 A 
ATOM     18  C   UNL     1       1.805   7.581  20.072  0.00  0.00    +0.000 A 
ATOM     19  C   UNL     1       2.292   6.331  20.461  0.00  0.00    +0.000 A 
ATOM     20  C   UNL     1       3.099   5.592  19.595  0.00  0.00    +0.000 A 
ATOM     21  C   UNL     1       3.409   6.099  18.333  0.00  0.00    +0.000 A 
ATOM     22 CL   UNL     1       4.413   5.187  17.274  0.00  0.00    +0.000 Cl
ATOM     23  C   UNL     1       2.923   7.339  17.930  0.00  0.00    +0.000 A 
ENDBRANCH  14  17
ENDBRANCH  11  13
BRANCH   8  24
ATOM     24  C   UNL     1      -3.242  10.543  15.475  0.00  0.00    +0.000 C 
ATOM     25  N   UNL     1      -3.515  10.158  14.414  0.00  0.00    +0.000 NA
ENDBRANCH   8  24
BRANCH  12  26
ATOM     26  O   UNL     1       1.650  12.414  20.816  0.00  0.00    +0.000 OA
ATOM     27  H   UNL     1       1.694  13.216  21.376  0.00  0.00    +0.000 HD
ENDBRANCH  12  26
TORSDOF 4
ENDMDL
MODEL 5
REMARK VINA RESULT:      -7.1      4.780      7.652
REMARK  Name = 
REMARK  6 active torsions:
REMARK  status: ('A' for Active; 'I' for Inactive)
REMARK    1  A    between atoms: C_1  and  C_2
REMARK    2  A    between atoms: C_2  and  C_3
REMARK    3  A    between atoms: C_8  and  C_9
REMARK    4  A    between atoms: C_13  and  N_14
REMARK    5  A    between atoms: C_15  and  C_17
REMARK    6  A    between atoms: C_24  and  O_25
REMARK                            x       y       z     vdW  Elec       q    Type
REMARK                         _______ _______ _______ _____ _____    ______ ____
ROOT
ATOM      1  C   UNL     1       8.131   6.229  19.325  0.00  0.00    +0.000 C 
ATOM      2  C   UNL     1       6.974   5.446  18.679  0.00  0.00    +0.000 C 
ATOM      3  C   UNL     1       7.612   4.409  17.736  0.00  0.00    +0.000 C 
ATOM      4  O   UNL     1       6.289   4.734  19.729  0.00  0.00    +0.000 OA
ATOM      5  C   UNL     1       5.032   4.268  19.418  0.00  0.00    +0.000 A 
ATOM      6  C   UNL     1       4.506   3.358  20.336  0.00  0.00    +0.000 A 
ATOM      7  C   UNL     1       3.253   2.783  20.114  0.00  0.00    +0.000 A 
ATOM      8  C   UNL     1       2.519   3.124  18.966  0.00  0.00    +0.000 A 
ATOM      9  C   UNL     1       3.027   4.069  18.055  0.00  0.00    +0.000 A 
ATOM     10  C   UNL     1       4.288   4.654  18.283  0.00  0.00    +0.000 A 
ATOM     11  C   UNL     1       4.843   5.681  17.307  0.00  0.00    +0.000 C 
ATOM     12  C   UNL     1       5.996   6.443  18.018  0.00  0.00    +0.000 C 
ENDROOT
BRANCH  11  13
ATOM     13  N   UNL     1       5.209   5.009  16.055  0.00  0.00    +0.000 N 
ATOM     14  C   UNL     1       5.410   5.670  14.865  0.00  0.00    +0.000 C 
ATOM     15  O   UNL     1       5.235   6.875  14.735  0.00  0.00    +0.000 OA
ATOM     16  H   UNL     1       5.492   4.041  16.125  0.00  0.00    +0.000 HD
BRANCH  14  17
ATOM     17  C   UNL     1       5.971   4.876  13.745  0.00  0.00    +0.000 A 
ATOM     18  C   UNL     1       7.301   5.026  13.334  0.00  0.00    +0.000 A 
ATOM     19  C   UNL     1       7.782   4.279  12.257  0.00  0.00    +0.000 A 
ATOM     20  C   UNL     1       6.940   3.387  11.591  0.00  0.00    +0.000 A 
ATOM     21  C   UNL     1       5.619   3.232  12.013  0.00  0.00    +0.000 A 
ATOM     22 CL   UNL     1       4.584   2.137  11.182  0.00  0.00    +0.000 Cl
ATOM     23  C   UNL     1       5.131   3.964  13.091  0.00  0.00    +0.000 A 
ENDBRANCH  14  17
ENDBRANCH  11  13
BRANCH   8  24
ATOM     24  C   UNL     1       1.251   2.502  18.729  0.00  0.00    +0.000 C 
ATOM     25  N   UNL     1       0.220   1.997  18.556  0.00  0.00    +0.000 NA
ENDBRANCH   8  24
BRANCH  12  26
ATOM     26  O   UNL     1       6.684   7.427  17.249  0.00  0.00    +0.000 OA
ATOM     27  H   UNL     1       6.498   8.317  17.611  0.00  0.00    +0.000 HD
ENDBRANCH  12  26
TORSDOF 4
ENDMDL
MODEL 6
REMARK VINA RESULT:      -7.1      3.538      5.638
REMARK  Name = 
REMARK  6 active torsions:
REMARK  status: ('A' for Active; 'I' for Inactive)
REMARK    1  A    between atoms: C_1  and  C_2
REMARK    2  A    between atoms: C_2  and  C_3
REMARK    3  A    between atoms: C_8  and  C_9
REMARK    4  A    between atoms: C_13  and  N_14
REMARK    5  A    between atoms: C_15  and  C_17
REMARK    6  A    between atoms: C_24  and  O_25
REMARK                            x       y       z     vdW  Elec       q    Type
REMARK                         _______ _______ _______ _____ _____    ______ ____
ROOT
ATOM      1  C   UNL     1       8.209   7.418  18.422  0.00  0.00    +0.000 C 
ATOM      2  C   UNL     1       7.289   6.484  17.615  0.00  0.00    +0.000 C 
ATOM      3  C   UNL     1       5.854   7.015  17.791  0.00  0.00    +0.000 C 
ATOM      4  O   UNL     1       7.647   6.614  16.225  0.00  0.00    +0.000 OA
ATOM      5  C   UNL     1       7.193   5.618  15.391  0.00  0.00    +0.000 A 
ATOM      6  C   UNL     1       7.311   5.899  14.030  0.00  0.00    +0.000 A 
ATOM      7  C   UNL     1       6.851   4.983  13.082  0.00  0.00    +0.000 A 
ATOM      8  C   UNL     1       6.272   3.773  13.500  0.00  0.00    +0.000 A 
ATOM      9  C   UNL     1       6.185   3.465  14.871  0.00  0.00    +0.000 A 
ATOM     10  C   UNL     1       6.655   4.387  15.827  0.00  0.00    +0.000 A 
ATOM     11  C   UNL     1       6.571   4.062  17.310  0.00  0.00    +0.000 C 
ATOM     12  C   UNL     1       7.526   5.026  18.068  0.00  0.00    +0.000 C 
ENDROOT
BRANCH  11  13
ATOM     13  N   UNL     1       5.167   4.103  17.734  0.00  0.00    +0.000 N 
ATOM     14  C   UNL     1       4.686   3.451  18.848  0.00  0.00    +0.000 C 
ATOM     15  O   UNL     1       5.382   2.723  19.545  0.00  0.00    +0.000 OA
ATOM     16  H   UNL     1       4.575   4.784  17.279  0.00  0.00    +0.000 HD
BRANCH  14  17
ATOM     17  C   UNL     1       3.293   3.756  19.253  0.00  0.00    +0.000 A 
ATOM     18  C   UNL     1       2.254   2.840  19.053  0.00  0.00    +0.000 A 
ATOM     19  C   UNL     1       0.951   3.178  19.423  0.00  0.00    +0.000 A 
ATOM     20  C   UNL     1       0.684   4.427  19.990  0.00  0.00    +0.000 A 
ATOM     21  C   UNL     1       1.726   5.331  20.198  0.00  0.00    +0.000 A 
ATOM     22 CL   UNL     1       1.389   6.870  20.888  0.00  0.00    +0.000 Cl
ATOM     23  C   UNL     1       3.030   5.001  19.842  0.00  0.00    +0.000 A 
ENDBRANCH  14  17
ENDBRANCH  11  13
BRANCH   8  24
ATOM     24  C   UNL     1       5.771   2.855  12.521  0.00  0.00    +0.000 C 
ATOM     25  N   UNL     1       5.376   2.098  11.736  0.00  0.00    +0.000 NA
ENDBRANCH   8  24
BRANCH  12  26
ATOM     26  O   UNL     1       7.557   4.913  19.488  0.00  0.00    +0.000 OA
ATOM     27  H   UNL     1       8.091   5.643  19.865  0.00  0.00    +0.000 HD
ENDBRANCH  12  26
TORSDOF 4
ENDMDL
MODEL 7
REMARK VINA RESULT:      -7.0      3.792      8.338
REMARK  Name = 
REMARK  6 active torsions:
REMARK  status: ('A' for Active; 'I' for Inactive)
REMARK    1  A    between atoms: C_1  and  C_2
REMARK    2  A    between atoms: C_2  and  C_3
REMARK    3  A    between atoms: C_8  and  C_9
REMARK    4  A    between atoms: C_13  and  N_14
REMARK    5  A    between atoms: C_15  and  C_17
REMARK    6  A    between atoms: C_24  and  O_25
REMARK                            x       y       z     vdW  Elec       q    Type
REMARK                         _______ _______ _______ _____ _____    ______ ____
ROOT
ATOM      1  C   UNL     1      -0.670  12.370  22.218  0.00  0.00    +0.000 C 
ATOM      2  C   UNL     1      -0.842  11.608  20.892  0.00  0.00    +0.000 C 
ATOM      3  C   UNL     1      -0.694  10.110  21.218  0.00  0.00    +0.000 C 
ATOM      4  O   UNL     1      -2.188  11.834  20.430  0.00  0.00    +0.000 OA
ATOM      5  C   UNL     1      -2.428  11.539  19.108  0.00  0.00    +0.000 A 
ATOM      6  C   UNL     1      -3.778  11.500  18.755  0.00  0.00    +0.000 A 
ATOM      7  C   UNL     1      -4.153  11.175  17.451  0.00  0.00    +0.000 A 
ATOM      8  C   UNL     1      -3.169  10.888  16.489  0.00  0.00    +0.000 A 
ATOM      9  C   UNL     1      -1.805  10.962  16.828  0.00  0.00    +0.000 A 
ATOM     10  C   UNL     1      -1.427  11.297  18.142  0.00  0.00    +0.000 A 
ATOM     11  C   UNL     1       0.045  11.385  18.517  0.00  0.00    +0.000 C 
ATOM     12  C   UNL     1       0.154  12.171  19.853  0.00  0.00    +0.000 C 
ENDROOT
BRANCH  11  13
ATOM     13  N   UNL     1       0.621  10.035  18.530  0.00  0.00    +0.000 N 
ATOM     14  C   UNL     1       1.876   9.736  18.050  0.00  0.00    +0.000 C 
ATOM     15  O   UNL     1       2.596  10.565  17.507  0.00  0.00    +0.000 OA
ATOM     16  H   UNL     1       0.134   9.339  19.077  0.00  0.00    +0.000 HD
BRANCH  14  17
ATOM     17  C   UNL     1       2.388   8.371  18.321  0.00  0.00    +0.000 A 
ATOM     18  C   UNL     1       3.337   7.766  17.488  0.00  0.00    +0.000 A 
ATOM     19  C   UNL     1       3.772   6.468  17.762  0.00  0.00    +0.000 A 
ATOM     20  C   UNL     1       3.263   5.775  18.863  0.00  0.00    +0.000 A 
ATOM     21  C   UNL     1       2.327   6.389  19.696  0.00  0.00    +0.000 A 
ATOM     22 CL   UNL     1       1.697   5.526  21.045  0.00  0.00    +0.000 Cl
ATOM     23  C   UNL     1       1.893   7.685  19.438  0.00  0.00    +0.000 A 
ENDBRANCH  14  17
ENDBRANCH  11  13
BRANCH   8  24
ATOM     24  C   UNL     1      -3.565  10.520  15.163  0.00  0.00    +0.000 C 
ATOM     25  N   UNL     1      -3.869  10.216  14.085  0.00  0.00    +0.000 NA
ENDBRANCH   8  24
BRANCH  12  26
ATOM     26  O   UNL     1       1.460  12.324  20.403  0.00  0.00    +0.000 OA
ATOM     27  H   UNL     1       1.592  13.252  20.684  0.00  0.00    +0.000 HD
ENDBRANCH  12  26
TORSDOF 4
ENDMDL
MODEL 8
REMARK VINA RESULT:      -6.8      4.051      6.077
REMARK  Name = 
REMARK  6 active torsions:
REMARK  status: ('A' for Active; 'I' for Inactive)
REMARK    1  A    between atoms: C_1  and  C_2
REMARK    2  A    between atoms: C_2  and  C_3
REMARK    3  A    between atoms: C_8  and  C_9
REMARK    4  A    between atoms: C_13  and  N_14
REMARK    5  A    between atoms: C_15  and  C_17
REMARK    6  A    between atoms: C_24  and  O_25
REMARK                            x       y       z     vdW  Elec       q    Type
REMARK                         _______ _______ _______ _____ _____    ______ ____
ROOT
ATOM      1  C   UNL     1       8.023   7.383  18.138  0.00  0.00    +0.000 C 
ATOM      2  C   UNL     1       7.163   6.396  17.328  0.00  0.00    +0.000 C 
ATOM      3  C   UNL     1       5.698   6.839  17.500  0.00  0.00    +0.000 C 
ATOM      4  O   UNL     1       7.516   6.549  15.938  0.00  0.00    +0.000 OA
ATOM      5  C   UNL     1       7.126   5.528  15.103  0.00  0.00    +0.000 A 
ATOM      6  C   UNL     1       7.230   5.817  13.742  0.00  0.00    +0.000 A 
ATOM      7  C   UNL     1       6.829   4.876  12.792  0.00  0.00    +0.000 A 
ATOM      8  C   UNL     1       6.324   3.632  13.208  0.00  0.00    +0.000 A 
ATOM      9  C   UNL     1       6.252   3.319  14.577  0.00  0.00    +0.000 A 
ATOM     10  C   UNL     1       6.662   4.266  15.536  0.00  0.00    +0.000 A 
ATOM     11  C   UNL     1       6.594   3.935  17.019  0.00  0.00    +0.000 C 
ATOM     12  C   UNL     1       7.486   4.955  17.780  0.00  0.00    +0.000 C 
ENDROOT
BRANCH  11  13
ATOM     13  N   UNL     1       5.188   3.890  17.439  0.00  0.00    +0.000 N 
ATOM     14  C   UNL     1       4.759   3.299  18.606  0.00  0.00    +0.000 C 
ATOM     15  O   UNL     1       5.511   2.699  19.363  0.00  0.00    +0.000 OA
ATOM     16  H   UNL     1       4.542   4.475  16.926  0.00  0.00    +0.000 HD
BRANCH  14  17
ATOM     17  C   UNL     1       3.342   3.516  18.983  0.00  0.00    +0.000 A 
ATOM     18  C   UNL     1       2.466   4.237  18.162  0.00  0.00    +0.000 A 
ATOM     19  C   UNL     1       1.147   4.443  18.568  0.00  0.00    +0.000 A 
ATOM     20  C   UNL     1       0.701   3.933  19.790  0.00  0.00    +0.000 A 
ATOM     21  C   UNL     1       1.574   3.205  20.598  0.00  0.00    +0.000 A 
ATOM     22 CL   UNL     1       1.021   2.588  22.106  0.00  0.00    +0.000 Cl
ATOM     23  C   UNL     1       2.889   2.986  20.199  0.00  0.00    +0.000 A 
ENDBRANCH  14  17
ENDBRANCH  11  13
BRANCH   8  24
ATOM     24  C   UNL     1       5.882   2.687  12.226  0.00  0.00    +0.000 C 
ATOM     25  N   UNL     1       5.518   1.910  11.445  0.00  0.00    +0.000 NA
ENDBRANCH   8  24
BRANCH  12  26
ATOM     26  O   UNL     1       7.521   4.842  19.200  0.00  0.00    +0.000 OA
ATOM     27  H   UNL     1       7.824   5.687  19.590  0.00  0.00    +0.000 HD
ENDBRANCH  12  26
TORSDOF 4
ENDMDL
MODEL 9
REMARK VINA RESULT:      -6.7      4.064      6.981
REMARK  Name = 
REMARK  6 active torsions:
REMARK  status: ('A' for Active; 'I' for Inactive)
REMARK    1  A    between atoms: C_1  and  C_2
REMARK    2  A    between atoms: C_2  and  C_3
REMARK    3  A    between atoms: C_8  and  C_9
REMARK    4  A    between atoms: C_13  and  N_14
REMARK    5  A    between atoms: C_15  and  C_17
REMARK    6  A    between atoms: C_24  and  O_25
REMARK                            x       y       z     vdW  Elec       q    Type
REMARK                         _______ _______ _______ _____ _____    ______ ____
ROOT
ATOM      1  C   UNL     1       3.550   2.156  19.052  0.00  0.00    +0.000 C 
ATOM      2  C   UNL     1       3.643   3.514  18.336  0.00  0.00    +0.000 C 
ATOM      3  C   UNL     1       3.492   3.233  16.829  0.00  0.00    +0.000 C 
ATOM      4  O   UNL     1       2.515   4.308  18.757  0.00  0.00    +0.000 OA
ATOM      5  C   UNL     1       2.605   5.658  18.512  0.00  0.00    +0.000 A 
ATOM      6  C   UNL     1       1.409   6.360  18.671  0.00  0.00    +0.000 A 
ATOM      7  C   UNL     1       1.361   7.731  18.415  0.00  0.00    +0.000 A 
ATOM      8  C   UNL     1       2.520   8.408  17.999  0.00  0.00    +0.000 A 
ATOM      9  C   UNL     1       3.738   7.715  17.873  0.00  0.00    +0.000 A 
ATOM     10  C   UNL     1       3.788   6.332  18.138  0.00  0.00    +0.000 A 
ATOM     11  C   UNL     1       5.101   5.575  18.010  0.00  0.00    +0.000 C 
ATOM     12  C   UNL     1       4.950   4.222  18.760  0.00  0.00    +0.000 C 
ENDROOT
BRANCH  11  13
ATOM     13  N   UNL     1       5.463   5.473  16.592  0.00  0.00    +0.000 N 
ATOM     14  C   UNL     1       6.726   5.152  16.147  0.00  0.00    +0.000 C 
ATOM     15  O   UNL     1       7.676   4.989  16.903  0.00  0.00    +0.000 OA
ATOM     16  H   UNL     1       4.701   5.469  15.928  0.00  0.00    +0.000 HD
BRANCH  14  17
ATOM     17  C   UNL     1       6.879   4.891  14.696  0.00  0.00    +0.000 A 
ATOM     18  C   UNL     1       7.846   5.552  13.929  0.00  0.00    +0.000 A 
ATOM     19  C   UNL     1       7.937   5.297  12.560  0.00  0.00    +0.000 A 
ATOM     20  C   UNL     1       7.067   4.388  11.956  0.00  0.00    +0.000 A 
ATOM     21  C   UNL     1       6.113   3.723  12.727  0.00  0.00    +0.000 A 
ATOM     22 CL   UNL     1       5.038   2.610  11.974  0.00  0.00    +0.000 Cl
ATOM     23  C   UNL     1       6.019   3.961  14.094  0.00  0.00    +0.000 A 
ENDBRANCH  14  17
ENDBRANCH  11  13
BRANCH   8  24
ATOM     24  C   UNL     1       2.452   9.808  17.705  0.00  0.00    +0.000 C 
ATOM     25  N   UNL     1       2.404  10.939  17.449  0.00  0.00    +0.000 NA
ENDBRANCH   8  24
BRANCH  12  26
ATOM     26  O   UNL     1       6.066   3.337  18.718  0.00  0.00    +0.000 OA
ATOM     27  H   UNL     1       6.765   3.715  18.147  0.00  0.00    +0.000 HD
ENDBRANCH  12  26
TORSDOF 4
ENDMDL
