MODEL 1
REMARK VINA RESULT:      -8.1      0.000      0.000
REMARK  Name = 
REMARK  6 active torsions:
REMARK  status: ('A' for Active; 'I' for Inactive)
REMARK    1  A    between atoms: C_1  and  O_2
REMARK    2  A    between atoms: O_2  and  C_3
REMARK    3  A    between atoms: C_6  and  N_7
REMARK    4  A    between atoms: N_10  and  S_11
REMARK    5  A    between atoms: S_11  and  C_14
REMARK    6  A    between atoms: C_23  and  C_24
REMARK                            x       y       z     vdW  Elec       q    Type
REMARK                         _______ _______ _______ _____ _____    ______ ____
ROOT
ATOM      1  S   UNL     1      -0.154  11.191  21.845  0.00  0.00    +0.000 S 
ATOM      2  O   UNL     1      -0.250  10.768  23.223  0.00  0.00    +0.000 OA
ATOM      3  O   UNL     1       1.036  11.823  21.339  0.00  0.00    +0.000 OA
ENDROOT
BRANCH   1   4
ATOM      4  C   UNL     1      -1.523  12.275  21.531  0.00  0.00    +0.000 A 
ATOM      5  C   UNL     1      -2.135  12.404  20.275  0.00  0.00    +0.000 A 
ATOM      6  C   UNL     1      -3.449  12.912  20.196  0.00  0.00    +0.000 A 
ATOM      7  C   UNL     1      -4.105  13.298  21.377  0.00  0.00    +0.000 A 
ATOM      8  C   UNL     1      -3.332  13.442  22.534  0.00  0.00    +0.000 A 
ATOM      9  C   UNL     1      -2.068  12.884  22.648  0.00  0.00    +0.000 A 
ATOM     10  N   UNL     1      -3.911  13.911  23.728  0.00  0.00    +0.000 N 
ATOM     11  C   UNL     1      -4.934  13.037  24.061  0.00  0.00    +0.000 C 
ATOM     12  O   UNL     1      -4.740  11.941  24.580  0.00  0.00    +0.000 OA
ATOM     13  C   UNL     1      -6.217  13.476  23.383  0.00  0.00    +0.000 C 
ATOM     14  C   UNL     1      -7.377  12.829  24.135  0.00  0.00    +0.000 C 
ATOM     15  S   UNL     1      -5.948  13.236  21.516  0.00  0.00    +0.000 S 
ATOM     16  H   UNL     1      -4.311  14.826  23.536  0.00  0.00    +0.000 HD
ENDBRANCH   1   4
BRANCH   1  20
ATOM     17  N   UNL     1       1.580   8.241  19.765  0.00  0.00    +0.000 N 
ATOM     18  C   UNL     1       1.342   9.565  19.177  0.00  0.00    +0.000 C 
ATOM     19  C   UNL     1      -0.141   9.974  19.392  0.00  0.00    +0.000 C 
ATOM     20  N   UNL     1      -0.549   9.877  20.838  0.00  0.00    +0.000 NA
ATOM     21  C   UNL     1      -0.268   8.502  21.361  0.00  0.00    +0.000 C 
ATOM     22  C   UNL     1       1.219   8.132  21.199  0.00  0.00    +0.000 C 
BRANCH  17  26
ATOM     23  C   UNL     1       4.173   5.352  18.107  0.00  0.00    +0.000 A 
ATOM     24  C   UNL     1       3.939   6.553  17.439  0.00  0.00    +0.000 A 
ATOM     25  C   UNL     1       3.098   7.538  17.974  0.00  0.00    +0.000 A 
ATOM     26  C   UNL     1       2.458   7.331  19.212  0.00  0.00    +0.000 A 
ATOM     27  C   UNL     1       2.695   6.099  19.853  0.00  0.00    +0.000 A 
ATOM     28  C   UNL     1       3.539   5.125  19.318  0.00  0.00    +0.000 A 
BRANCH  23  30
ATOM     29  C   UNL     1       5.196   4.686  16.077  0.00  0.00    +0.000 C 
ATOM     30  O   UNL     1       4.998   4.465  17.471  0.00  0.00    +0.000 OA
ENDBRANCH  23  30
ENDBRANCH  17  26
ENDBRANCH   1  20
TORSDOF 4
ENDMDL
MODEL 2
REMARK VINA RESULT:      -7.8      0.864      1.131
REMARK  Name = 
REMARK  6 active torsions:
REMARK  status: ('A' for Active; 'I' for Inactive)
REMARK    1  A    between atoms: C_1  and  O_2
REMARK    2  A    between atoms: O_2  and  C_3
REMARK    3  A    between atoms: C_6  and  N_7
REMARK    4  A    between atoms: N_10  and  S_11
REMARK    5  A    between atoms: S_11  and  C_14
REMARK    6  A    between atoms: C_23  and  C_24
REMARK                            x       y       z     vdW  Elec       q    Type
REMARK                         _______ _______ _______ _____ _____    ______ ____
ROOT
ATOM      1  S   UNL     1      -0.020  11.203  21.713  0.00  0.00    +0.000 S 
ATOM      2  O   UNL     1      -0.055  10.818  23.105  0.00  0.00    +0.000 OA
ATOM      3  O   UNL     1       1.153  11.802  21.133  0.00  0.00    +0.000 OA
ENDROOT
BRANCH   1   4
ATOM      4  C   UNL     1      -1.386  12.303  21.438  0.00  0.00    +0.000 A 
ATOM      5  C   UNL     1      -2.012  12.461  20.193  0.00  0.00    +0.000 A 
ATOM      6  C   UNL     1      -3.323  12.980  20.141  0.00  0.00    +0.000 A 
ATOM      7  C   UNL     1      -3.962  13.347  21.337  0.00  0.00    +0.000 A 
ATOM      8  C   UNL     1      -3.173  13.462  22.487  0.00  0.00    +0.000 A 
ATOM      9  C   UNL     1      -1.912  12.893  22.574  0.00  0.00    +0.000 A 
ATOM     10  N   UNL     1      -3.734  13.911  23.697  0.00  0.00    +0.000 N 
ATOM     11  C   UNL     1      -4.759  13.037  24.026  0.00  0.00    +0.000 C 
ATOM     12  O   UNL     1      -4.567  11.930  24.520  0.00  0.00    +0.000 OA
ATOM     13  C   UNL     1      -6.048  13.499  23.373  0.00  0.00    +0.000 C 
ATOM     14  C   UNL     1      -7.202  12.846  24.126  0.00  0.00    +0.000 C 
ATOM     15  S   UNL     1      -5.803  13.295  21.498  0.00  0.00    +0.000 S 
ATOM     16  H   UNL     1      -4.130  14.833  23.529  0.00  0.00    +0.000 HD
ENDBRANCH   1   4
BRANCH   1  20
ATOM     17  N   UNL     1       1.446   7.790  20.220  0.00  0.00    +0.000 N 
ATOM     18  C   UNL     1       1.555   9.061  19.493  0.00  0.00    +0.000 C 
ATOM     19  C   UNL     1       0.159   9.736  19.408  0.00  0.00    +0.000 C 
ATOM     20  N   UNL     1      -0.486   9.871  20.762  0.00  0.00    +0.000 NA
ATOM     21  C   UNL     1      -0.552   8.535  21.437  0.00  0.00    +0.000 C 
ATOM     22  C   UNL     1       0.847   7.903  21.571  0.00  0.00    +0.000 C 
BRANCH  17  26
ATOM     23  C   UNL     1       3.686   4.340  19.272  0.00  0.00    +0.000 A 
ATOM     24  C   UNL     1       3.882   5.523  18.560  0.00  0.00    +0.000 A 
ATOM     25  C   UNL     1       3.167   6.688  18.866  0.00  0.00    +0.000 A 
ATOM     26  C   UNL     1       2.217   6.689  19.906  0.00  0.00    +0.000 A 
ATOM     27  C   UNL     1       2.024   5.473  20.592  0.00  0.00    +0.000 A 
ATOM     28  C   UNL     1       2.744   4.318  20.288  0.00  0.00    +0.000 A 
BRANCH  23  30
ATOM     29  C   UNL     1       4.433   2.140  19.738  0.00  0.00    +0.000 C 
ATOM     30  O   UNL     1       4.431   3.267  18.864  0.00  0.00    +0.000 OA
ENDBRANCH  23  30
ENDBRANCH  17  26
ENDBRANCH   1  20
TORSDOF 4
ENDMDL
MODEL 3
REMARK VINA RESULT:      -7.4      1.848      2.528
REMARK  Name = 
REMARK  6 active torsions:
REMARK  status: ('A' for Active; 'I' for Inactive)
REMARK    1  A    between atoms: C_1  and  O_2
REMARK    2  A    between atoms: O_2  and  C_3
REMARK    3  A    between atoms: C_6  and  N_7
REMARK    4  A    between atoms: N_10  and  S_11
REMARK    5  A    between atoms: S_11  and  C_14
REMARK    6  A    between atoms: C_23  and  C_24
REMARK                            x       y       z     vdW  Elec       q    Type
REMARK                         _______ _______ _______ _____ _____    ______ ____
ROOT
ATOM      1  S   UNL     1      -0.861  11.879  19.231  0.00  0.00    +0.000 S 
ATOM      2  O   UNL     1      -0.909  12.773  18.097  0.00  0.00    +0.000 OA
ATOM      3  O   UNL     1      -1.632  10.664  19.257  0.00  0.00    +0.000 OA
ENDROOT
BRANCH   1   4
ATOM      4  C   UNL     1      -1.289  12.828  20.668  0.00  0.00    +0.000 A 
ATOM      5  C   UNL     1      -0.959  14.182  20.825  0.00  0.00    +0.000 A 
ATOM      6  C   UNL     1      -1.690  14.968  21.742  0.00  0.00    +0.000 A 
ATOM      7  C   UNL     1      -2.718  14.369  22.490  0.00  0.00    +0.000 A 
ATOM      8  C   UNL     1      -2.774  12.972  22.515  0.00  0.00    +0.000 A 
ATOM      9  C   UNL     1      -2.118  12.192  21.575  0.00  0.00    +0.000 A 
ATOM     10  N   UNL     1      -3.723  12.308  23.315  0.00  0.00    +0.000 N 
ATOM     11  C   UNL     1      -4.977  12.732  22.904  0.00  0.00    +0.000 C 
ATOM     12  O   UNL     1      -5.531  12.312  21.892  0.00  0.00    +0.000 OA
ATOM     13  C   UNL     1      -5.362  13.987  23.662  0.00  0.00    +0.000 C 
ATOM     14  C   UNL     1      -6.878  14.132  23.568  0.00  0.00    +0.000 C 
ATOM     15  S   UNL     1      -4.166  15.350  23.090  0.00  0.00    +0.000 S 
ATOM     16  H   UNL     1      -3.575  12.606  24.277  0.00  0.00    +0.000 HD
ENDBRANCH   1   4
BRANCH   1  20
ATOM     17  N   UNL     1       1.686   8.789  19.200  0.00  0.00    +0.000 N 
ATOM     18  C   UNL     1       0.867   9.105  20.378  0.00  0.00    +0.000 C 
ATOM     19  C   UNL     1       1.032  10.605  20.744  0.00  0.00    +0.000 C 
ATOM     20  N   UNL     1       0.765  11.505  19.567  0.00  0.00    +0.000 NA
ATOM     21  C   UNL     1       1.633  11.114  18.411  0.00  0.00    +0.000 C 
ATOM     22  C   UNL     1       1.415   9.640  18.018  0.00  0.00    +0.000 C 
BRANCH  17  26
ATOM     23  C   UNL     1       3.696   5.119  18.647  0.00  0.00    +0.000 A 
ATOM     24  C   UNL     1       2.912   5.327  19.780  0.00  0.00    +0.000 A 
ATOM     25  C   UNL     1       2.218   6.527  19.981  0.00  0.00    +0.000 A 
ATOM     26  C   UNL     1       2.304   7.567  19.034  0.00  0.00    +0.000 A 
ATOM     27  C   UNL     1       3.123   7.337  17.910  0.00  0.00    +0.000 A 
ATOM     28  C   UNL     1       3.806   6.137  17.713  0.00  0.00    +0.000 A 
BRANCH  23  30
ATOM     29  C   UNL     1       4.151   3.040  19.689  0.00  0.00    +0.000 C 
ATOM     30  O   UNL     1       4.338   3.913  18.577  0.00  0.00    +0.000 OA
ENDBRANCH  23  30
ENDBRANCH  17  26
ENDBRANCH   1  20
TORSDOF 4
ENDMDL
MODEL 4
REMARK VINA RESULT:      -7.3      4.034      7.149
REMARK  Name = 
REMARK  6 active torsions:
REMARK  status: ('A' for Active; 'I' for Inactive)
REMARK    1  A    between atoms: C_1  and  O_2
REMARK    2  A    between atoms: O_2  and  C_3
REMARK    3  A    between atoms: C_6  and  N_7
REMARK    4  A    between atoms: N_10  and  S_11
REMARK    5  A    between atoms: S_11  and  C_14
REMARK    6  A    between atoms: C_23  and  C_24
REMARK                            x       y       z     vdW  Elec       q    Type
REMARK                         _______ _______ _______ _____ _____    ______ ____
ROOT
ATOM      1  S   UNL     1       1.385   3.446  20.006  0.00  0.00    +0.000 S 
ATOM      2  O   UNL     1       0.302   3.152  19.096  0.00  0.00    +0.000 OA
ATOM      3  O   UNL     1       1.225   3.301  21.429  0.00  0.00    +0.000 OA
ENDROOT
BRANCH   1   4
ATOM      4  C   UNL     1       1.905   5.111  19.683  0.00  0.00    +0.000 A 
ATOM      5  C   UNL     1       2.168   5.602  18.395  0.00  0.00    +0.000 A 
ATOM      6  C   UNL     1       2.135   6.995  18.168  0.00  0.00    +0.000 A 
ATOM      7  C   UNL     1       1.862   7.857  19.243  0.00  0.00    +0.000 A 
ATOM      8  C   UNL     1       1.929   7.327  20.536  0.00  0.00    +0.000 A 
ATOM      9  C   UNL     1       1.888   5.962  20.774  0.00  0.00    +0.000 A 
ATOM     10  N   UNL     1       1.753   8.156  21.659  0.00  0.00    +0.000 N 
ATOM     11  C   UNL     1       0.499   8.736  21.551  0.00  0.00    +0.000 C 
ATOM     12  O   UNL     1      -0.542   8.144  21.821  0.00  0.00    +0.000 OA
ATOM     13  C   UNL     1       0.600  10.017  20.746  0.00  0.00    +0.000 C 
ATOM     14  C   UNL     1      -0.635  10.855  21.061  0.00  0.00    +0.000 C 
ATOM     15  S   UNL     1       1.063   9.503  18.975  0.00  0.00    +0.000 S 
ATOM     16  H   UNL     1       2.458   8.889  21.614  0.00  0.00    +0.000 HD
ENDBRANCH   1   4
BRANCH   1  20
ATOM     17  N   UNL     1       4.499   3.718  17.504  0.00  0.00    +0.000 N 
ATOM     18  C   UNL     1       3.219   3.133  17.084  0.00  0.00    +0.000 C 
ATOM     19  C   UNL     1       2.779   2.050  18.107  0.00  0.00    +0.000 C 
ATOM     20  N   UNL     1       2.765   2.578  19.517  0.00  0.00    +0.000 NA
ATOM     21  C   UNL     1       4.101   3.162  19.863  0.00  0.00    +0.000 C 
ATOM     22  C   UNL     1       4.498   4.277  18.877  0.00  0.00    +0.000 C 
BRANCH  17  26
ATOM     23  C   UNL     1       7.325   4.994  14.640  0.00  0.00    +0.000 A 
ATOM     24  C   UNL     1       7.376   5.483  15.944  0.00  0.00    +0.000 A 
ATOM     25  C   UNL     1       6.463   5.063  16.920  0.00  0.00    +0.000 A 
ATOM     26  C   UNL     1       5.457   4.131  16.600  0.00  0.00    +0.000 A 
ATOM     27  C   UNL     1       5.415   3.672  15.269  0.00  0.00    +0.000 A 
ATOM     28  C   UNL     1       6.332   4.089  14.303  0.00  0.00    +0.000 A 
BRANCH  23  30
ATOM     29  C   UNL     1       7.926   5.438  12.392  0.00  0.00    +0.000 C 
ATOM     30  O   UNL     1       8.260   5.496  13.776  0.00  0.00    +0.000 OA
ENDBRANCH  23  30
ENDBRANCH  17  26
ENDBRANCH   1  20
TORSDOF 4
ENDMDL
MODEL 5
REMARK VINA RESULT:      -7.3      1.950      2.583
REMARK  Name = 
REMARK  6 active torsions:
REMARK  status: ('A' for Active; 'I' for Inactive)
REMARK    1  A    between atoms: C_1  and  O_2
REMARK    2  A    between atoms: O_2  and  C_3
REMARK    3  A    between atoms: C_6  and  N_7
REMARK    4  A    between atoms: N_10  and  S_11
REMARK    5  A    between atoms: S_11  and  C_14
REMARK    6  A    between atoms: C_23  and  C_24
REMARK                            x       y       z     vdW  Elec       q    Type
REMARK                         _______ _______ _______ _____ _____    ______ ____
ROOT
ATOM      1  S   UNL     1      -0.336  11.211  22.150  0.00  0.00    +0.000 S 
ATOM      2  O   UNL     1      -0.117  10.666  23.470  0.00  0.00    +0.000 OA
ATOM      3  O   UNL     1       0.639  12.065  21.523  0.00  0.00    +0.000 OA
ENDROOT
BRANCH   1   4
ATOM      4  C   UNL     1      -1.880  12.085  22.191  0.00  0.00    +0.000 A 
ATOM      5  C   UNL     1      -2.803  11.972  23.241  0.00  0.00    +0.000 A 
ATOM      6  C   UNL     1      -3.759  12.993  23.432  0.00  0.00    +0.000 A 
ATOM      7  C   UNL     1      -3.777  14.088  22.551  0.00  0.00    +0.000 A 
ATOM      8  C   UNL     1      -3.052  13.975  21.359  0.00  0.00    +0.000 A 
ATOM      9  C   UNL     1      -2.061  13.022  21.189  0.00  0.00    +0.000 A 
ATOM     10  N   UNL     1      -3.099  14.998  20.395  0.00  0.00    +0.000 N 
ATOM     11  C   UNL     1      -2.650  16.160  21.003  0.00  0.00    +0.000 C 
ATOM     12  O   UNL     1      -1.463  16.399  21.205  0.00  0.00    +0.000 OA
ATOM     13  C   UNL     1      -3.816  16.868  21.666  0.00  0.00    +0.000 C 
ATOM     14  C   UNL     1      -3.409  18.323  21.877  0.00  0.00    +0.000 C 
ATOM     15  S   UNL     1      -4.385  15.748  23.093  0.00  0.00    +0.000 S 
ATOM     16  H   UNL     1      -4.073  15.124  20.127  0.00  0.00    +0.000 HD
ENDBRANCH   1   4
BRANCH   1  20
ATOM     17  N   UNL     1       1.430   8.488  19.806  0.00  0.00    +0.000 N 
ATOM     18  C   UNL     1       1.092   9.829  19.312  0.00  0.00    +0.000 C 
ATOM     19  C   UNL     1      -0.396  10.143  19.629  0.00  0.00    +0.000 C 
ATOM     20  N   UNL     1      -0.718   9.938  21.086  0.00  0.00    +0.000 NA
ATOM     21  C   UNL     1      -0.338   8.552  21.509  0.00  0.00    +0.000 C 
ATOM     22  C   UNL     1       1.155   8.275  21.246  0.00  0.00    +0.000 C 
BRANCH  17  26
ATOM     23  C   UNL     1       4.071   5.849  17.835  0.00  0.00    +0.000 A 
ATOM     24  C   UNL     1       3.778   7.094  17.281  0.00  0.00    +0.000 A 
ATOM     25  C   UNL     1       2.921   7.998  17.922  0.00  0.00    +0.000 A 
ATOM     26  C   UNL     1       2.322   7.661  19.152  0.00  0.00    +0.000 A 
ATOM     27  C   UNL     1       2.618   6.387  19.676  0.00  0.00    +0.000 A 
ATOM     28  C   UNL     1       3.478   5.495  19.036  0.00  0.00    +0.000 A 
BRANCH  23  30
ATOM     29  C   UNL     1       4.484   3.700  16.927  0.00  0.00    +0.000 C 
ATOM     30  O   UNL     1       4.906   5.050  17.103  0.00  0.00    +0.000 OA
ENDBRANCH  23  30
ENDBRANCH  17  26
ENDBRANCH   1  20
TORSDOF 4
ENDMDL
MODEL 6
REMARK VINA RESULT:      -7.3      1.850      2.310
REMARK  Name = 
REMARK  6 active torsions:
REMARK  status: ('A' for Active; 'I' for Inactive)
REMARK    1  A    between atoms: C_1  and  O_2
REMARK    2  A    between atoms: O_2  and  C_3
REMARK    3  A    between atoms: C_6  and  N_7
REMARK    4  A    between atoms: N_10  and  S_11
REMARK    5  A    between atoms: S_11  and  C_14
REMARK    6  A    between atoms: C_23  and  C_24
REMARK                            x       y       z     vdW  Elec       q    Type
REMARK                         _______ _______ _______ _____ _____    ______ ____
ROOT
ATOM      1  S   UNL     1      -0.864  12.149  19.305  0.00  0.00    +0.000 S 
ATOM      2  O   UNL     1      -0.819  13.102  18.220  0.00  0.00    +0.000 OA
ATOM      3  O   UNL     1      -1.664  10.956  19.218  0.00  0.00    +0.000 OA
ENDROOT
BRANCH   1   4
ATOM      4  C   UNL     1      -1.361  13.034  20.761  0.00  0.00    +0.000 A 
ATOM      5  C   UNL     1      -1.080  14.391  20.973  0.00  0.00    +0.000 A 
ATOM      6  C   UNL     1      -1.860  15.122  21.895  0.00  0.00    +0.000 A 
ATOM      7  C   UNL     1      -2.887  14.465  22.595  0.00  0.00    +0.000 A 
ATOM      8  C   UNL     1      -2.898  13.066  22.571  0.00  0.00    +0.000 A 
ATOM      9  C   UNL     1      -2.192  12.341  21.624  0.00  0.00    +0.000 A 
ATOM     10  N   UNL     1      -3.845  12.345  23.321  0.00  0.00    +0.000 N 
ATOM     11  C   UNL     1      -5.102  12.742  22.891  0.00  0.00    +0.000 C 
ATOM     12  O   UNL     1      -5.614  12.340  21.850  0.00  0.00    +0.000 OA
ATOM     13  C   UNL     1      -5.548  13.958  23.680  0.00  0.00    +0.000 C 
ATOM     14  C   UNL     1      -7.064  14.058  23.549  0.00  0.00    +0.000 C 
ATOM     15  S   UNL     1      -4.382  15.377  23.187  0.00  0.00    +0.000 S 
ATOM     16  H   UNL     1      -3.733  12.614  24.297  0.00  0.00    +0.000 HD
ENDBRANCH   1   4
BRANCH   1  20
ATOM     17  N   UNL     1       1.588   8.984  19.325  0.00  0.00    +0.000 N 
ATOM     18  C   UNL     1       0.711   9.290  20.463  0.00  0.00    +0.000 C 
ATOM     19  C   UNL     1       0.899  10.773  20.884  0.00  0.00    +0.000 C 
ATOM     20  N   UNL     1       0.728  11.715  19.722  0.00  0.00    +0.000 NA
ATOM     21  C   UNL     1       1.650  11.331  18.606  0.00  0.00    +0.000 C 
ATOM     22  C   UNL     1       1.411   9.877  18.155  0.00  0.00    +0.000 C 
BRANCH  17  26
ATOM     23  C   UNL     1       3.275   5.142  18.859  0.00  0.00    +0.000 A 
ATOM     24  C   UNL     1       3.433   6.105  17.863  0.00  0.00    +0.000 A 
ATOM     25  C   UNL     1       2.901   7.394  17.999  0.00  0.00    +0.000 A 
ATOM     26  C   UNL     1       2.178   7.748  19.156  0.00  0.00    +0.000 A 
ATOM     27  C   UNL     1       2.015   6.747  20.134  0.00  0.00    +0.000 A 
ATOM     28  C   UNL     1       2.553   5.468  19.996  0.00  0.00    +0.000 A 
BRANCH  23  30
ATOM     29  C   UNL     1       4.739   3.862  17.506  0.00  0.00    +0.000 C 
ATOM     30  O   UNL     1       3.824   3.917  18.598  0.00  0.00    +0.000 OA
ENDBRANCH  23  30
ENDBRANCH  17  26
ENDBRANCH   1  20
TORSDOF 4
ENDMDL
MODEL 7
REMARK VINA RESULT:      -7.3      2.197      2.454
REMARK  Name = 
REMARK  6 active torsions:
REMARK  status: ('A' for Active; 'I' for Inactive)
REMARK    1  A    between atoms: C_1  and  O_2
REMARK    2  A    between atoms: O_2  and  C_3
REMARK    3  A    between atoms: C_6  and  N_7
REMARK    4  A    between atoms: N_10  and  S_11
REMARK    5  A    between atoms: S_11  and  C_14
REMARK    6  A    between atoms: C_23  and  C_24
REMARK                            x       y       z     vdW  Elec       q    Type
REMARK                         _______ _______ _______ _____ _____    ______ ____
ROOT
ATOM      1  S   UNL     1       0.908  11.709  20.158  0.00  0.00    +0.000 S 
ATOM      2  O   UNL     1       1.410  11.511  21.498  0.00  0.00    +0.000 OA
ATOM      3  O   UNL     1       1.749  12.236  19.115  0.00  0.00    +0.000 OA
ENDROOT
BRANCH   1   4
ATOM      4  C   UNL     1      -0.524  12.749  20.281  0.00  0.00    +0.000 A 
ATOM      5  C   UNL     1      -1.808  12.345  19.886  0.00  0.00    +0.000 A 
ATOM      6  C   UNL     1      -2.934  13.017  20.410  0.00  0.00    +0.000 A 
ATOM      7  C   UNL     1      -2.740  14.089  21.297  0.00  0.00    +0.000 A 
ATOM      8  C   UNL     1      -1.454  14.632  21.390  0.00  0.00    +0.000 A 
ATOM      9  C   UNL     1      -0.333  13.948  20.945  0.00  0.00    +0.000 A 
ATOM     10  N   UNL     1      -1.210  15.761  22.193  0.00  0.00    +0.000 N 
ATOM     11  C   UNL     1      -1.579  15.434  23.489  0.00  0.00    +0.000 C 
ATOM     12  O   UNL     1      -0.884  14.750  24.233  0.00  0.00    +0.000 OA
ATOM     13  C   UNL     1      -3.053  15.734  23.687  0.00  0.00    +0.000 C 
ATOM     14  C   UNL     1      -3.300  15.841  25.189  0.00  0.00    +0.000 C 
ATOM     15  S   UNL     1      -4.003  14.517  22.578  0.00  0.00    +0.000 S 
ATOM     16  H   UNL     1      -1.813  16.511  21.860  0.00  0.00    +0.000 HD
ENDBRANCH   1   4
BRANCH   1  20
ATOM     17  N   UNL     1       1.866   7.909  19.336  0.00  0.00    +0.000 N 
ATOM     18  C   UNL     1       1.962   8.967  18.322  0.00  0.00    +0.000 C 
ATOM     19  C   UNL     1       0.626   9.755  18.260  0.00  0.00    +0.000 C 
ATOM     20  N   UNL     1       0.204  10.257  19.615  0.00  0.00    +0.000 NA
ATOM     21  C   UNL     1       0.136   9.121  20.589  0.00  0.00    +0.000 C 
ATOM     22  C   UNL     1       1.487   8.385  20.687  0.00  0.00    +0.000 C 
BRANCH  17  26
ATOM     23  C   UNL     1       3.662   4.109  18.937  0.00  0.00    +0.000 A 
ATOM     24  C   UNL     1       3.925   5.113  18.006  0.00  0.00    +0.000 A 
ATOM     25  C   UNL     1       3.359   6.389  18.124  0.00  0.00    +0.000 A 
ATOM     26  C   UNL     1       2.494   6.688  19.195  0.00  0.00    +0.000 A 
ATOM     27  C   UNL     1       2.227   5.647  20.106  0.00  0.00    +0.000 A 
ATOM     28  C   UNL     1       2.800   4.381  19.987  0.00  0.00    +0.000 A 
BRANCH  23  30
ATOM     29  C   UNL     1       3.385   1.824  18.378  0.00  0.00    +0.000 C 
ATOM     30  O   UNL     1       4.260   2.902  18.700  0.00  0.00    +0.000 OA
ENDBRANCH  23  30
ENDBRANCH  17  26
ENDBRANCH   1  20
TORSDOF 4
ENDMDL
MODEL 8
REMARK VINA RESULT:      -7.3      1.663      2.012
REMARK  Name = 
REMARK  6 active torsions:
REMARK  status: ('A' for Active; 'I' for Inactive)
REMARK    1  A    between atoms: C_1  and  O_2
REMARK    2  A    between atoms: O_2  and  C_3
REMARK    3  A    between atoms: C_6  and  N_7
REMARK    4  A    between atoms: N_10  and  S_11
REMARK    5  A    between atoms: S_11  and  C_14
REMARK    6  A    between atoms: C_23  and  C_24
REMARK                            x       y       z     vdW  Elec       q    Type
REMARK                         _______ _______ _______ _____ _____    ______ ____
ROOT
ATOM      1  S   UNL     1      -0.197  12.486  21.034  0.00  0.00    +0.000 S 
ATOM      2  O   UNL     1       1.142  12.452  21.575  0.00  0.00    +0.000 OA
ATOM      3  O   UNL     1      -0.518  13.284  19.880  0.00  0.00    +0.000 OA
ENDROOT
BRANCH   1   4
ATOM      4  C   UNL     1      -1.283  12.970  22.351  0.00  0.00    +0.000 A 
ATOM      5  C   UNL     1      -0.985  13.996  23.261  0.00  0.00    +0.000 A 
ATOM      6  C   UNL     1      -2.035  14.616  23.970  0.00  0.00    +0.000 A 
ATOM      7  C   UNL     1      -3.354  14.176  23.764  0.00  0.00    +0.000 A 
ATOM      8  C   UNL     1      -3.537  12.959  23.100  0.00  0.00    +0.000 A 
ATOM      9  C   UNL     1      -2.534  12.377  22.341  0.00  0.00    +0.000 A 
ATOM     10  N   UNL     1      -4.826  12.419  22.939  0.00  0.00    +0.000 N 
ATOM     11  C   UNL     1      -5.579  13.349  22.240  0.00  0.00    +0.000 C 
ATOM     12  O   UNL     1      -5.491  13.511  21.027  0.00  0.00    +0.000 OA
ATOM     13  C   UNL     1      -6.216  14.321  23.215  0.00  0.00    +0.000 C 
ATOM     14  C   UNL     1      -7.388  14.986  22.499  0.00  0.00    +0.000 C 
ATOM     15  S   UNL     1      -4.793  15.315  23.990  0.00  0.00    +0.000 S 
ATOM     16  H   UNL     1      -5.228  12.301  23.866  0.00  0.00    +0.000 HD
ENDBRANCH   1   4
BRANCH   1  20
ATOM     17  N   UNL     1       1.194   8.923  19.849  0.00  0.00    +0.000 N 
ATOM     18  C   UNL     1       0.688   9.913  18.890  0.00  0.00    +0.000 C 
ATOM     19  C   UNL     1      -0.717  10.402  19.335  0.00  0.00    +0.000 C 
ATOM     20  N   UNL     1      -0.720  10.889  20.760  0.00  0.00    +0.000 NA
ATOM     21  C   UNL     1      -0.185   9.826  21.669  0.00  0.00    +0.000 C 
ATOM     22  C   UNL     1       1.235   9.393  21.254  0.00  0.00    +0.000 C 
BRANCH  17  26
ATOM     23  C   UNL     1       3.479   5.559  18.716  0.00  0.00    +0.000 A 
ATOM     24  C   UNL     1       3.446   6.693  17.905  0.00  0.00    +0.000 A 
ATOM     25  C   UNL     1       2.712   7.830  18.265  0.00  0.00    +0.000 A 
ATOM     26  C   UNL     1       1.976   7.852  19.466  0.00  0.00    +0.000 A 
ATOM     27  C   UNL     1       2.009   6.684  20.253  0.00  0.00    +0.000 A 
ATOM     28  C   UNL     1       2.747   5.557  19.893  0.00  0.00    +0.000 A 
BRANCH  23  30
ATOM     29  C   UNL     1       5.628   4.700  18.208  0.00  0.00    +0.000 C 
ATOM     30  O   UNL     1       4.216   4.507  18.244  0.00  0.00    +0.000 OA
ENDBRANCH  23  30
ENDBRANCH  17  26
ENDBRANCH   1  20
TORSDOF 4
ENDMDL
MODEL 9
REMARK VINA RESULT:      -7.2      1.949      2.868
REMARK  Name = 
REMARK  6 active torsions:
REMARK  status: ('A' for Active; 'I' for Inactive)
REMARK    1  A    between atoms: C_1  and  O_2
REMARK    2  A    between atoms: O_2  and  C_3
REMARK    3  A    between atoms: C_6  and  N_7
REMARK    4  A    between atoms: N_10  and  S_11
REMARK    5  A    between atoms: S_11  and  C_14
REMARK    6  A    between atoms: C_23  and  C_24
REMARK                            x       y       z     vdW  Elec       q    Type
REMARK                         _______ _______ _______ _____ _____    ______ ____
ROOT
ATOM      1  S   UNL     1       0.174  10.828  21.936  0.00  0.00    +0.000 S 
ATOM      2  O   UNL     1       0.403  10.199  23.216  0.00  0.00    +0.000 OA
ATOM      3  O   UNL     1       1.178  11.655  21.320  0.00  0.00    +0.000 OA
ENDROOT
BRANCH   1   4
ATOM      4  C   UNL     1      -1.311  11.790  22.081  0.00  0.00    +0.000 A 
ATOM      5  C   UNL     1      -2.161  11.733  23.195  0.00  0.00    +0.000 A 
ATOM      6  C   UNL     1      -3.041  12.808  23.447  0.00  0.00    +0.000 A 
ATOM      7  C   UNL     1      -3.059  13.899  22.562  0.00  0.00    +0.000 A 
ATOM      8  C   UNL     1      -2.429  13.742  21.322  0.00  0.00    +0.000 A 
ATOM      9  C   UNL     1      -1.508  12.732  21.088  0.00  0.00    +0.000 A 
ATOM     10  N   UNL     1      -2.486  14.763  20.356  0.00  0.00    +0.000 N 
ATOM     11  C   UNL     1      -1.930  15.899  20.924  0.00  0.00    +0.000 C 
ATOM     12  O   UNL     1      -0.720  16.070  21.039  0.00  0.00    +0.000 OA
ATOM     13  C   UNL     1      -3.003  16.674  21.663  0.00  0.00    +0.000 C 
ATOM     14  C   UNL     1      -2.499  18.104  21.834  0.00  0.00    +0.000 C 
ATOM     15  S   UNL     1      -3.532  15.592  23.134  0.00  0.00    +0.000 S 
ATOM     16  H   UNL     1      -3.468  14.943  20.157  0.00  0.00    +0.000 HD
ENDBRANCH   1   4
BRANCH   1  20
ATOM     17  N   UNL     1       1.686   8.054  19.476  0.00  0.00    +0.000 N 
ATOM     18  C   UNL     1       1.473   9.440  19.040  0.00  0.00    +0.000 C 
ATOM     19  C   UNL     1       0.020   9.876  19.373  0.00  0.00    +0.000 C 
ATOM     20  N   UNL     1      -0.321   9.641  20.821  0.00  0.00    +0.000 NA
ATOM     21  C   UNL     1      -0.071   8.210  21.185  0.00  0.00    +0.000 C 
ATOM     22  C   UNL     1       1.391   7.807  20.908  0.00  0.00    +0.000 C 
BRANCH  17  26
ATOM     23  C   UNL     1       4.281   5.465  17.382  0.00  0.00    +0.000 A 
ATOM     24  C   UNL     1       3.407   4.959  18.343  0.00  0.00    +0.000 A 
ATOM     25  C   UNL     1       2.522   5.791  19.040  0.00  0.00    +0.000 A 
ATOM     26  C   UNL     1       2.499   7.177  18.787  0.00  0.00    +0.000 A 
ATOM     27  C   UNL     1       3.409   7.664  17.828  0.00  0.00    +0.000 A 
ATOM     28  C   UNL     1       4.283   6.828  17.132  0.00  0.00    +0.000 A 
BRANCH  23  30
ATOM     29  C   UNL     1       6.506   4.813  16.896  0.00  0.00    +0.000 C 
ATOM     30  O   UNL     1       5.109   4.553  16.787  0.00  0.00    +0.000 OA
ENDBRANCH  23  30
ENDBRANCH  17  26
ENDBRANCH   1  20
TORSDOF 4
ENDMDL
