MODEL 1
REMARK VINA RESULT:      -7.8      0.000      0.000
REMARK  Name = 
REMARK  5 active torsions:
REMARK  status: ('A' for Active; 'I' for Inactive)
REMARK    1  A    between atoms: C_1  and  O_2
REMARK    2  A    between atoms: O_2  and  C_3
REMARK    3  A    between atoms: C_5  and  C_6
REMARK    4  A    between atoms: C_16  and  O_17
REMARK    5  A    between atoms: O_17  and  C_18
REMARK                            x       y       z     vdW  Elec       q    Type
REMARK                         _______ _______ _______ _____ _____    ______ ____
ROOT
ATOM      1  C   UNL     1       5.006   4.511  18.816  0.00  0.00    +0.000 A 
ATOM      2  C   UNL     1       5.748   4.470  17.629  0.00  0.00    +0.000 A 
ATOM      3  C   UNL     1       5.686   5.507  16.696  0.00  0.00    +0.000 A 
ATOM      4  C   UNL     1       4.762   6.530  16.876  0.00  0.00    +0.000 A 
ATOM      5  C   UNL     1       3.927   6.507  17.993  0.00  0.00    +0.000 A 
ATOM      6  C   UNL     1       4.050   5.516  18.986  0.00  0.00    +0.000 A 
ENDROOT
BRANCH   3   7
ATOM      7  C   UNL     1       6.729   5.563  15.667  0.00  0.00    +0.000 C 
ATOM      8  C   UNL     1       6.631   4.863  14.528  0.00  0.00    +0.000 C 
ATOM      9  S   UNL     1       5.409   3.715  14.091  0.00  0.00    +0.000 S 
ATOM     10  C   UNL     1       6.114   3.429  12.522  0.00  0.00    +0.000 C 
ATOM     11  S   UNL     1       5.550   2.387  11.367  0.00  0.00    +0.000 S 
ATOM     12  N   UNL     1       7.220   4.205  12.369  0.00  0.00    +0.000 N 
ATOM     13  C   UNL     1       7.583   5.028  13.399  0.00  0.00    +0.000 C 
ATOM     14  O   UNL     1       8.529   5.800  13.375  0.00  0.00    +0.000 OA
ATOM     15  H   UNL     1       7.752   4.202  11.511  0.00  0.00    +0.000 HD
ENDBRANCH   3   7
BRANCH   1  17
ATOM     16  C   UNL     1       4.595   2.314  19.545  0.00  0.00    +0.000 C 
ATOM     17  O   UNL     1       5.216   3.579  19.803  0.00  0.00    +0.000 OA
ENDBRANCH   1  17
BRANCH   6  18
ATOM     18  O   UNL     1       3.149   5.687  19.993  0.00  0.00    +0.000 OA
BRANCH  18  19
ATOM     19  C   UNL     1       1.879   5.036  20.004  0.00  0.00    +0.000 C 
ATOM     20  C   UNL     1       1.664   4.137  18.790  0.00  0.00    +0.000 C 
ATOM     21  C   UNL     1       0.828   2.964  19.284  0.00  0.00    +0.000 C 
ATOM     22  C   UNL     1       1.129   2.816  20.766  0.00  0.00    +0.000 C 
ATOM     23  C   UNL     1       1.913   4.051  21.181  0.00  0.00    +0.000 C 
ENDBRANCH  18  19
ENDBRANCH   6  18
TORSDOF 4
ENDMDL
MODEL 2
REMARK VINA RESULT:      -7.3      0.926      2.050
REMARK  Name = 
REMARK  5 active torsions:
REMARK  status: ('A' for Active; 'I' for Inactive)
REMARK    1  A    between atoms: C_1  and  O_2
REMARK    2  A    between atoms: O_2  and  C_3
REMARK    3  A    between atoms: C_5  and  C_6
REMARK    4  A    between atoms: C_16  and  O_17
REMARK    5  A    between atoms: O_17  and  C_18
REMARK                            x       y       z     vdW  Elec       q    Type
REMARK                         _______ _______ _______ _____ _____    ______ ____
ROOT
ATOM      1  C   UNL     1       3.975   6.424  17.777  0.00  0.00    +0.000 A 
ATOM      2  C   UNL     1       5.051   6.586  16.894  0.00  0.00    +0.000 A 
ATOM      3  C   UNL     1       6.214   5.823  17.015  0.00  0.00    +0.000 A 
ATOM      4  C   UNL     1       6.368   4.990  18.117  0.00  0.00    +0.000 A 
ATOM      5  C   UNL     1       5.352   4.922  19.071  0.00  0.00    +0.000 A 
ATOM      6  C   UNL     1       4.138   5.616  18.905  0.00  0.00    +0.000 A 
ENDROOT
BRANCH   3   7
ATOM      7  C   UNL     1       7.136   5.798  15.876  0.00  0.00    +0.000 C 
ATOM      8  C   UNL     1       6.868   5.089  14.771  0.00  0.00    +0.000 C 
ATOM      9  S   UNL     1       5.538   4.013  14.498  0.00  0.00    +0.000 S 
ATOM     10  C   UNL     1       6.044   3.660  12.867  0.00  0.00    +0.000 C 
ATOM     11  S   UNL     1       5.293   2.638  11.804  0.00  0.00    +0.000 S 
ATOM     12  N   UNL     1       7.171   4.362  12.575  0.00  0.00    +0.000 N 
ATOM     13  C   UNL     1       7.696   5.176  13.540  0.00  0.00    +0.000 C 
ATOM     14  O   UNL     1       8.679   5.887  13.395  0.00  0.00    +0.000 OA
ATOM     15  H   UNL     1       7.603   4.313  11.664  0.00  0.00    +0.000 HD
ENDBRANCH   3   7
BRANCH   1  17
ATOM     16  C   UNL     1       2.728   8.406  17.983  0.00  0.00    +0.000 C 
ATOM     17  O   UNL     1       2.775   7.046  17.536  0.00  0.00    +0.000 OA
ENDBRANCH   1  17
BRANCH   6  18
ATOM     18  O   UNL     1       3.282   5.402  19.943  0.00  0.00    +0.000 OA
BRANCH  18  19
ATOM     19  C   UNL     1       2.024   4.749  19.777  0.00  0.00    +0.000 C 
ATOM     20  C   UNL     1       2.054   3.670  18.700  0.00  0.00    +0.000 C 
ATOM     21  C   UNL     1       1.101   2.582  19.174  0.00  0.00    +0.000 C 
ATOM     22  C   UNL     1       1.068   2.670  20.691  0.00  0.00    +0.000 C 
ATOM     23  C   UNL     1       1.776   3.961  21.071  0.00  0.00    +0.000 C 
ENDBRANCH  18  19
ENDBRANCH   6  18
TORSDOF 4
ENDMDL
MODEL 3
REMARK VINA RESULT:      -6.9      5.947      7.771
REMARK  Name = 
REMARK  5 active torsions:
REMARK  status: ('A' for Active; 'I' for Inactive)
REMARK    1  A    between atoms: C_1  and  O_2
REMARK    2  A    between atoms: O_2  and  C_3
REMARK    3  A    between atoms: C_5  and  C_6
REMARK    4  A    between atoms: C_16  and  O_17
REMARK    5  A    between atoms: O_17  and  C_18
REMARK                            x       y       z     vdW  Elec       q    Type
REMARK                         _______ _______ _______ _____ _____    ______ ____
ROOT
ATOM      1  C   UNL     1       2.442   7.262  18.583  0.00  0.00    +0.000 A 
ATOM      2  C   UNL     1       1.870   8.494  18.237  0.00  0.00    +0.000 A 
ATOM      3  C   UNL     1       1.273   9.315  19.196  0.00  0.00    +0.000 A 
ATOM      4  C   UNL     1       1.112   8.839  20.493  0.00  0.00    +0.000 A 
ATOM      5  C   UNL     1       1.564   7.559  20.812  0.00  0.00    +0.000 A 
ATOM      6  C   UNL     1       2.252   6.764  19.875  0.00  0.00    +0.000 A 
ENDROOT
BRANCH   3   7
ATOM      7  C   UNL     1       1.013  10.711  18.834  0.00  0.00    +0.000 C 
ATOM      8  C   UNL     1      -0.196  11.118  18.425  0.00  0.00    +0.000 C 
ATOM      9  S   UNL     1      -1.596  10.143  18.126  0.00  0.00    +0.000 S 
ATOM     10  C   UNL     1      -2.578  11.523  17.710  0.00  0.00    +0.000 C 
ATOM     11  S   UNL     1      -4.167  11.497  17.249  0.00  0.00    +0.000 S 
ATOM     12  N   UNL     1      -1.840  12.660  17.822  0.00  0.00    +0.000 N 
ATOM     13  C   UNL     1      -0.534  12.549  18.214  0.00  0.00    +0.000 C 
ATOM     14  O   UNL     1       0.224  13.490  18.390  0.00  0.00    +0.000 OA
ATOM     15  H   UNL     1      -2.242  13.569  17.651  0.00  0.00    +0.000 HD
ENDBRANCH   3   7
BRANCH   1  17
ATOM     16  C   UNL     1       4.412   7.192  17.303  0.00  0.00    +0.000 C 
ATOM     17  O   UNL     1       3.182   6.556  17.668  0.00  0.00    +0.000 OA
ENDBRANCH   1  17
BRANCH   6  18
ATOM     18  O   UNL     1       2.614   5.559  20.395  0.00  0.00    +0.000 OA
BRANCH  18  19
ATOM     19  C   UNL     1       1.671   4.517  20.645  0.00  0.00    +0.000 C 
ATOM     20  C   UNL     1       1.479   3.593  19.446  0.00  0.00    +0.000 C 
ATOM     21  C   UNL     1       1.219   2.209  20.025  0.00  0.00    +0.000 C 
ATOM     22  C   UNL     1       1.898   2.177  21.385  0.00  0.00    +0.000 C 
ATOM     23  C   UNL     1       2.309   3.606  21.704  0.00  0.00    +0.000 C 
ENDBRANCH  18  19
ENDBRANCH   6  18
TORSDOF 4
ENDMDL
MODEL 4
REMARK VINA RESULT:      -6.8      5.831      7.694
REMARK  Name = 
REMARK  5 active torsions:
REMARK  status: ('A' for Active; 'I' for Inactive)
REMARK    1  A    between atoms: C_1  and  O_2
REMARK    2  A    between atoms: O_2  and  C_3
REMARK    3  A    between atoms: C_5  and  C_6
REMARK    4  A    between atoms: C_16  and  O_17
REMARK    5  A    between atoms: O_17  and  C_18
REMARK                            x       y       z     vdW  Elec       q    Type
REMARK                         _______ _______ _______ _____ _____    ______ ____
ROOT
ATOM      1  C   UNL     1       2.788   7.331  18.180  0.00  0.00    +0.000 A 
ATOM      2  C   UNL     1       2.149   8.565  17.999  0.00  0.00    +0.000 A 
ATOM      3  C   UNL     1       1.480   9.199  19.047  0.00  0.00    +0.000 A 
ATOM      4  C   UNL     1       1.318   8.529  20.255  0.00  0.00    +0.000 A 
ATOM      5  C   UNL     1       1.841   7.243  20.398  0.00  0.00    +0.000 A 
ATOM      6  C   UNL     1       2.599   6.637  19.378  0.00  0.00    +0.000 A 
ENDROOT
BRANCH   3   7
ATOM      7  C   UNL     1       1.142  10.615  18.884  0.00  0.00    +0.000 C 
ATOM      8  C   UNL     1      -0.063  11.005  18.445  0.00  0.00    +0.000 C 
ATOM      9  S   UNL     1      -1.360  10.004  17.884  0.00  0.00    +0.000 S 
ATOM     10  C   UNL     1      -2.411  11.368  17.606  0.00  0.00    +0.000 C 
ATOM     11  S   UNL     1      -3.956  11.315  17.017  0.00  0.00    +0.000 S 
ATOM     12  N   UNL     1      -1.770  12.517  17.953  0.00  0.00    +0.000 N 
ATOM     13  C   UNL     1      -0.491  12.427  18.429  0.00  0.00    +0.000 C 
ATOM     14  O   UNL     1       0.179  13.375  18.811  0.00  0.00    +0.000 OA
ATOM     15  H   UNL     1      -2.226  13.415  17.891  0.00  0.00    +0.000 HD
ENDBRANCH   3   7
BRANCH   1  17
ATOM     16  C   UNL     1       4.991   7.019  17.422  0.00  0.00    +0.000 C 
ATOM     17  O   UNL     1       3.592   6.811  17.196  0.00  0.00    +0.000 OA
ENDBRANCH   1  17
BRANCH   6  18
ATOM     18  O   UNL     1       3.023   5.391  19.728  0.00  0.00    +0.000 OA
BRANCH  18  19
ATOM     19  C   UNL     1       2.878   4.262  18.868  0.00  0.00    +0.000 C 
ATOM     20  C   UNL     1       3.445   2.981  19.471  0.00  0.00    +0.000 C 
ATOM     21  C   UNL     1       2.551   1.854  18.973  0.00  0.00    +0.000 C 
ATOM     22  C   UNL     1       1.191   2.474  18.699  0.00  0.00    +0.000 C 
ATOM     23  C   UNL     1       1.371   3.982  18.777  0.00  0.00    +0.000 C 
ENDBRANCH  18  19
ENDBRANCH   6  18
TORSDOF 4
ENDMDL
MODEL 5
REMARK VINA RESULT:      -6.8      1.180      1.479
REMARK  Name = 
REMARK  5 active torsions:
REMARK  status: ('A' for Active; 'I' for Inactive)
REMARK    1  A    between atoms: C_1  and  O_2
REMARK    2  A    between atoms: O_2  and  C_3
REMARK    3  A    between atoms: C_5  and  C_6
REMARK    4  A    between atoms: C_16  and  O_17
REMARK    5  A    between atoms: O_17  and  C_18
REMARK                            x       y       z     vdW  Elec       q    Type
REMARK                         _______ _______ _______ _____ _____    ______ ____
ROOT
ATOM      1  C   UNL     1       6.036   5.230  18.867  0.00  0.00    +0.000 A 
ATOM      2  C   UNL     1       6.712   5.095  17.647  0.00  0.00    +0.000 A 
ATOM      3  C   UNL     1       6.113   5.459  16.440  0.00  0.00    +0.000 A 
ATOM      4  C   UNL     1       4.772   5.826  16.429  0.00  0.00    +0.000 A 
ATOM      5  C   UNL     1       4.057   5.837  17.627  0.00  0.00    +0.000 A 
ATOM      6  C   UNL     1       4.680   5.563  18.860  0.00  0.00    +0.000 A 
ENDROOT
BRANCH   3   7
ATOM      7  C   UNL     1       6.979   5.617  15.268  0.00  0.00    +0.000 C 
ATOM      8  C   UNL     1       6.828   4.856  14.175  0.00  0.00    +0.000 C 
ATOM      9  S   UNL     1       5.744   3.523  13.953  0.00  0.00    +0.000 S 
ATOM     10  C   UNL     1       6.256   3.267  12.305  0.00  0.00    +0.000 C 
ATOM     11  S   UNL     1       5.699   2.099  11.274  0.00  0.00    +0.000 S 
ATOM     12  N   UNL     1       7.200   4.187  11.971  0.00  0.00    +0.000 N 
ATOM     13  C   UNL     1       7.575   5.103  12.915  0.00  0.00    +0.000 C 
ATOM     14  O   UNL     1       8.381   6.003  12.732  0.00  0.00    +0.000 OA
ATOM     15  H   UNL     1       7.600   4.221  11.045  0.00  0.00    +0.000 HD
ENDBRANCH   3   7
BRANCH   1  17
ATOM     16  C   UNL     1       8.053   5.509  20.043  0.00  0.00    +0.000 C 
ATOM     17  O   UNL     1       6.699   5.043  20.055  0.00  0.00    +0.000 OA
ENDBRANCH   1  17
BRANCH   6  18
ATOM     18  O   UNL     1       3.805   5.640  19.902  0.00  0.00    +0.000 OA
BRANCH  18  19
ATOM     19  C   UNL     1       3.072   4.510  20.372  0.00  0.00    +0.000 C 
ATOM     20  C   UNL     1       1.568   4.757  20.417  0.00  0.00    +0.000 C 
ATOM     21  C   UNL     1       0.917   3.421  20.085  0.00  0.00    +0.000 C 
ATOM     22  C   UNL     1       1.916   2.655  19.233  0.00  0.00    +0.000 C 
ATOM     23  C   UNL     1       3.228   3.421  19.301  0.00  0.00    +0.000 C 
ENDBRANCH  18  19
ENDBRANCH   6  18
TORSDOF 4
ENDMDL
MODEL 6
REMARK VINA RESULT:      -6.6      4.772      6.554
REMARK  Name = 
REMARK  5 active torsions:
REMARK  status: ('A' for Active; 'I' for Inactive)
REMARK    1  A    between atoms: C_1  and  O_2
REMARK    2  A    between atoms: O_2  and  C_3
REMARK    3  A    between atoms: C_5  and  C_6
REMARK    4  A    between atoms: C_16  and  O_17
REMARK    5  A    between atoms: O_17  and  C_18
REMARK                            x       y       z     vdW  Elec       q    Type
REMARK                         _______ _______ _______ _____ _____    ______ ____
ROOT
ATOM      1  C   UNL     1       1.429   9.147  18.962  0.00  0.00    +0.000 A 
ATOM      2  C   UNL     1       1.939   8.000  18.341  0.00  0.00    +0.000 A 
ATOM      3  C   UNL     1       2.075   6.796  19.034  0.00  0.00    +0.000 A 
ATOM      4  C   UNL     1       1.840   6.770  20.404  0.00  0.00    +0.000 A 
ATOM      5  C   UNL     1       1.457   7.943  21.054  0.00  0.00    +0.000 A 
ATOM      6  C   UNL     1       1.225   9.137  20.344  0.00  0.00    +0.000 A 
ENDROOT
BRANCH   3   7
ATOM      7  C   UNL     1       2.281   5.575  18.249  0.00  0.00    +0.000 C 
ATOM      8  C   UNL     1       3.508   5.132  17.947  0.00  0.00    +0.000 C 
ATOM      9  S   UNL     1       5.024   5.905  18.272  0.00  0.00    +0.000 S 
ATOM     10  C   UNL     1       5.942   4.598  17.573  0.00  0.00    +0.000 C 
ATOM     11  S   UNL     1       7.590   4.512  17.446  0.00  0.00    +0.000 S 
ATOM     12  N   UNL     1       5.096   3.626  17.137  0.00  0.00    +0.000 N 
ATOM     13  C   UNL     1       3.752   3.816  17.301  0.00  0.00    +0.000 C 
ATOM     14  O   UNL     1       2.890   3.008  16.990  0.00  0.00    +0.000 OA
ATOM     15  H   UNL     1       5.441   2.771  16.727  0.00  0.00    +0.000 HD
ENDBRANCH   3   7
BRANCH   1  17
ATOM     16  C   UNL     1       2.192  11.224  18.170  0.00  0.00    +0.000 C 
ATOM     17  O   UNL     1       1.130  10.266  18.224  0.00  0.00    +0.000 OA
ENDBRANCH   1  17
BRANCH   6  18
ATOM     18  O   UNL     1       0.849  10.155  21.167  0.00  0.00    +0.000 OA
BRANCH  18  19
ATOM     19  C   UNL     1      -0.519  10.443  21.454  0.00  0.00    +0.000 C 
ATOM     20  C   UNL     1      -0.812  10.500  22.950  0.00  0.00    +0.000 C 
ATOM     21  C   UNL     1      -1.891  11.560  23.123  0.00  0.00    +0.000 C 
ATOM     22  C   UNL     1      -1.734  12.527  21.961  0.00  0.00    +0.000 C 
ATOM     23  C   UNL     1      -0.761  11.885  20.984  0.00  0.00    +0.000 C 
ENDBRANCH  18  19
ENDBRANCH   6  18
TORSDOF 4
ENDMDL
MODEL 7
REMARK VINA RESULT:      -6.6      4.337      7.675
REMARK  Name = 
REMARK  5 active torsions:
REMARK  status: ('A' for Active; 'I' for Inactive)
REMARK    1  A    between atoms: C_1  and  O_2
REMARK    2  A    between atoms: O_2  and  C_3
REMARK    3  A    between atoms: C_5  and  C_6
REMARK    4  A    between atoms: C_16  and  O_17
REMARK    5  A    between atoms: O_17  and  C_18
REMARK                            x       y       z     vdW  Elec       q    Type
REMARK                         _______ _______ _______ _____ _____    ______ ____
ROOT
ATOM      1  C   UNL     1       5.166   6.253  16.925  0.00  0.00    +0.000 A 
ATOM      2  C   UNL     1       4.304   6.886  17.830  0.00  0.00    +0.000 A 
ATOM      3  C   UNL     1       3.267   6.191  18.455  0.00  0.00    +0.000 A 
ATOM      4  C   UNL     1       2.990   4.885  18.064  0.00  0.00    +0.000 A 
ATOM      5  C   UNL     1       3.765   4.292  17.067  0.00  0.00    +0.000 A 
ATOM      6  C   UNL     1       4.872   4.954  16.502  0.00  0.00    +0.000 A 
ENDROOT
BRANCH   3   7
ATOM      7  C   UNL     1       2.638   6.810  19.625  0.00  0.00    +0.000 C 
ATOM      8  C   UNL     1       1.945   7.953  19.529  0.00  0.00    +0.000 C 
ATOM      9  S   UNL     1       1.754   8.962  18.134  0.00  0.00    +0.000 S 
ATOM     10  C   UNL     1       0.724  10.087  18.978  0.00  0.00    +0.000 C 
ATOM     11  S   UNL     1       0.046  11.460  18.352  0.00  0.00    +0.000 S 
ATOM     12  N   UNL     1       0.544   9.669  20.260  0.00  0.00    +0.000 N 
ATOM     13  C   UNL     1       1.159   8.514  20.658  0.00  0.00    +0.000 C 
ATOM     14  O   UNL     1       1.048   8.010  21.765  0.00  0.00    +0.000 OA
ATOM     15  H   UNL     1      -0.048  10.175  20.902  0.00  0.00    +0.000 HD
ENDBRANCH   3   7
BRANCH   1  17
ATOM     16  C   UNL     1       7.389   6.869  17.375  0.00  0.00    +0.000 C 
ATOM     17  O   UNL     1       6.286   6.897  16.462  0.00  0.00    +0.000 OA
ENDBRANCH   1  17
BRANCH   6  18
ATOM     18  O   UNL     1       5.494   4.193  15.559  0.00  0.00    +0.000 OA
BRANCH  18  19
ATOM     19  C   UNL     1       5.705   4.649  14.223  0.00  0.00    +0.000 C 
ATOM     20  C   UNL     1       7.182   4.824  13.883  0.00  0.00    +0.000 C 
ATOM     21  C   UNL     1       7.316   4.463  12.410  0.00  0.00    +0.000 C 
ATOM     22  C   UNL     1       6.189   3.491  12.102  0.00  0.00    +0.000 C 
ATOM     23  C   UNL     1       5.257   3.504  13.303  0.00  0.00    +0.000 C 
ENDBRANCH  18  19
ENDBRANCH   6  18
TORSDOF 4
ENDMDL
MODEL 8
REMARK VINA RESULT:      -6.5      5.281      7.932
REMARK  Name = 
REMARK  5 active torsions:
REMARK  status: ('A' for Active; 'I' for Inactive)
REMARK    1  A    between atoms: C_1  and  O_2
REMARK    2  A    between atoms: O_2  and  C_3
REMARK    3  A    between atoms: C_5  and  C_6
REMARK    4  A    between atoms: C_16  and  O_17
REMARK    5  A    between atoms: O_17  and  C_18
REMARK                            x       y       z     vdW  Elec       q    Type
REMARK                         _______ _______ _______ _____ _____    ______ ____
ROOT
ATOM      1  C   UNL     1       1.810   4.962  19.845  0.00  0.00    +0.000 A 
ATOM      2  C   UNL     1       1.669   5.996  20.780  0.00  0.00    +0.000 A 
ATOM      3  C   UNL     1       1.870   7.331  20.425  0.00  0.00    +0.000 A 
ATOM      4  C   UNL     1       2.360   7.632  19.159  0.00  0.00    +0.000 A 
ATOM      5  C   UNL     1       2.627   6.594  18.265  0.00  0.00    +0.000 A 
ATOM      6  C   UNL     1       2.336   5.254  18.584  0.00  0.00    +0.000 A 
ENDROOT
BRANCH   3   7
ATOM      7  C   UNL     1       1.377   8.363  21.341  0.00  0.00    +0.000 C 
ATOM      8  C   UNL     1       0.678   9.419  20.901  0.00  0.00    +0.000 C 
ATOM      9  S   UNL     1       0.331   9.850  19.260  0.00  0.00    +0.000 S 
ATOM     10  C   UNL     1      -0.597  11.249  19.730  0.00  0.00    +0.000 C 
ATOM     11  S   UNL     1      -1.341  12.322  18.714  0.00  0.00    +0.000 S 
ATOM     12  N   UNL     1      -0.632  11.340  21.087  0.00  0.00    +0.000 N 
ATOM     13  C   UNL     1       0.024  10.388  21.818  0.00  0.00    +0.000 C 
ATOM     14  O   UNL     1       0.038  10.333  23.038  0.00  0.00    +0.000 OA
ATOM     15  H   UNL     1      -1.148  12.071  21.554  0.00  0.00    +0.000 HD
ENDBRANCH   3   7
BRANCH   1  17
ATOM     16  C   UNL     1       1.914   3.232  21.432  0.00  0.00    +0.000 C 
ATOM     17  O   UNL     1       1.432   3.680  20.160  0.00  0.00    +0.000 OA
ENDBRANCH   1  17
BRANCH   6  18
ATOM     18  O   UNL     1       2.661   4.406  17.569  0.00  0.00    +0.000 OA
BRANCH  18  19
ATOM     19  C   UNL     1       3.967   3.847  17.425  0.00  0.00    +0.000 C 
ATOM     20  C   UNL     1       4.749   4.458  16.267  0.00  0.00    +0.000 C 
ATOM     21  C   UNL     1       6.205   4.471  16.709  0.00  0.00    +0.000 C 
ATOM     22  C   UNL     1       6.193   4.533  18.227  0.00  0.00    +0.000 C 
ATOM     23  C   UNL     1       4.759   4.283  18.666  0.00  0.00    +0.000 C 
ENDBRANCH  18  19
ENDBRANCH   6  18
TORSDOF 4
ENDMDL
MODEL 9
REMARK VINA RESULT:      -6.5      5.518      7.973
REMARK  Name = 
REMARK  5 active torsions:
REMARK  status: ('A' for Active; 'I' for Inactive)
REMARK    1  A    between atoms: C_1  and  O_2
REMARK    2  A    between atoms: O_2  and  C_3
REMARK    3  A    between atoms: C_5  and  C_6
REMARK    4  A    between atoms: C_16  and  O_17
REMARK    5  A    between atoms: O_17  and  C_18
REMARK                            x       y       z     vdW  Elec       q    Type
REMARK                         _______ _______ _______ _____ _____    ______ ____
ROOT
ATOM      1  C   UNL     1       1.487   5.074  19.807  0.00  0.00    +0.000 A 
ATOM      2  C   UNL     1       1.380   6.055  20.801  0.00  0.00    +0.000 A 
ATOM      3  C   UNL     1       1.742   7.381  20.557  0.00  0.00    +0.000 A 
ATOM      4  C   UNL     1       2.357   7.708  19.354  0.00  0.00    +0.000 A 
ATOM      5  C   UNL     1       2.585   6.707  18.409  0.00  0.00    +0.000 A 
ATOM      6  C   UNL     1       2.136   5.388  18.610  0.00  0.00    +0.000 A 
ENDROOT
BRANCH   3   7
ATOM      7  C   UNL     1       1.287   8.399  21.508  0.00  0.00    +0.000 C 
ATOM      8  C   UNL     1       0.502   9.417  21.127  0.00  0.00    +0.000 C 
ATOM      9  S   UNL     1      -0.013   9.814  19.521  0.00  0.00    +0.000 S 
ATOM     10  C   UNL     1      -0.959  11.174  20.065  0.00  0.00    +0.000 C 
ATOM     11  S   UNL     1      -1.842  12.200  19.115  0.00  0.00    +0.000 S 
ATOM     12  N   UNL     1      -0.875  11.278  21.419  0.00  0.00    +0.000 N 
ATOM     13  C   UNL     1      -0.111  10.365  22.093  0.00  0.00    +0.000 C 
ATOM     14  O   UNL     1       0.017  10.323  23.307  0.00  0.00    +0.000 OA
ATOM     15  H   UNL     1      -1.379  11.989  21.926  0.00  0.00    +0.000 HD
ENDBRANCH   3   7
BRANCH   1  17
ATOM     16  C   UNL     1       1.376   3.202  21.223  0.00  0.00    +0.000 C 
ATOM     17  O   UNL     1       0.958   3.822  20.002  0.00  0.00    +0.000 OA
ENDBRANCH   1  17
BRANCH   6  18
ATOM     18  O   UNL     1       2.452   4.576  17.562  0.00  0.00    +0.000 OA
BRANCH  18  19
ATOM     19  C   UNL     1       3.464   3.574  17.647  0.00  0.00    +0.000 C 
ATOM     20  C   UNL     1       4.246   3.630  18.955  0.00  0.00    +0.000 C 
ATOM     21  C   UNL     1       4.598   2.187  19.292  0.00  0.00    +0.000 C 
ATOM     22  C   UNL     1       3.530   1.322  18.644  0.00  0.00    +0.000 C 
ATOM     23  C   UNL     1       2.730   2.227  17.722  0.00  0.00    +0.000 C 
ENDBRANCH  18  19
ENDBRANCH   6  18
TORSDOF 4
ENDMDL
