MODEL 1
REMARK VINA RESULT:      -7.2      0.000      0.000
REMARK  Name = 
REMARK  10 active torsions:
REMARK  status: ('A' for Active; 'I' for Inactive)
REMARK    1  A    between atoms: C_1  and  O_2
REMARK    2  A    between atoms: O_2  and  C_3
REMARK    3  A    between atoms: C_6  and  C_7
REMARK    4  A    between atoms: C_9  and  C_10
REMARK    5  A    between atoms: C_10  and  S_11
REMARK    6  A    between atoms: S_11  and  C_12
REMARK    7  A    between atoms: C_16  and  C_17
REMARK    8  A    between atoms: C_19  and  C_20
REMARK    9  A    between atoms: C_23  and  O_24
REMARK   10  A    between atoms: C_27  and  C_28
REMARK                            x       y       z     vdW  Elec       q    Type
REMARK                         _______ _______ _______ _____ _____    ______ ____
ROOT
ATOM      1  C   UNL     1      -0.985  11.560  19.707  0.00  0.00    +0.000 A 
ATOM      2  N   UNL     1      -1.551  11.209  18.532  0.00  0.00    +0.000 NA
ATOM      3  C   UNL     1      -2.855  11.453  18.344  0.00  0.00    +0.000 A 
ATOM      4  N   UNL     1      -3.395  10.846  17.217  0.00  0.00    +0.000 N 
ATOM      5  C   UNL     1      -3.634  12.142  19.281  0.00  0.00    +0.000 A 
ATOM      6  C   UNL     1      -3.080  12.505  20.541  0.00  0.00    +0.000 A 
ATOM      7  C   UNL     1      -1.724  12.125  20.758  0.00  0.00    +0.000 A 
ATOM      8  H   UNL     1      -2.658  10.459  16.633  0.00  0.00    +0.000 HD
ATOM      9  H   UNL     1      -4.084  11.375  16.694  0.00  0.00    +0.000 HD
ENDROOT
BRANCH   6  10
ATOM     10  C   UNL     1      -3.877  13.267  21.573  0.00  0.00    +0.000 A 
ATOM     11  C   UNL     1      -4.648  12.620  22.561  0.00  0.00    +0.000 A 
ATOM     12  C   UNL     1      -5.473  13.324  23.449  0.00  0.00    +0.000 A 
ATOM     13  C   UNL     1      -5.471  14.707  23.434  0.00  0.00    +0.000 A 
ATOM     14  C   UNL     1      -4.684  15.389  22.523  0.00  0.00    +0.000 A 
ATOM     15  C   UNL     1      -3.930  14.677  21.580  0.00  0.00    +0.000 A 
BRANCH  13  16
ATOM     16  O   UNL     1      -6.229  15.434  24.299  0.00  0.00    +0.000 OA
ATOM     17  H   UNL     1      -6.220  14.995  25.166  0.00  0.00    +0.000 HD
ENDBRANCH  13  16
ENDBRANCH   6  10
BRANCH   5  18
ATOM     18  C   UNL     1      -4.972  12.471  18.880  0.00  0.00    +0.000 C 
ATOM     19  N   UNL     1      -6.039  12.764  18.526  0.00  0.00    +0.000 NA
ENDBRANCH   5  18
BRANCH   7  20
ATOM     20  C   UNL     1      -1.096  12.243  22.052  0.00  0.00    +0.000 C 
ATOM     21  N   UNL     1      -0.583  12.333  23.084  0.00  0.00    +0.000 NA
ENDBRANCH   7  20
BRANCH   1  22
ATOM     22  S   UNL     1       0.782  11.267  19.825  0.00  0.00    +0.000 S 
BRANCH  22  23
ATOM     23  C   UNL     1       1.069  10.225  18.350  0.00  0.00    +0.000 C 
BRANCH  23  26
ATOM     24  C   UNL     1       2.931   7.108  18.233  0.00  0.00    +0.000 A 
ATOM     25  N   UNL     1       2.537   8.286  17.782  0.00  0.00    +0.000 NA
ATOM     26  C   UNL     1       1.714   8.920  18.710  0.00  0.00    +0.000 A 
ATOM     27  C   UNL     1       1.526   8.210  19.881  0.00  0.00    +0.000 A 
ATOM     28  S   UNL     1       2.408   6.751  19.840  0.00  0.00    +0.000 S 
BRANCH  24  32
ATOM     29  C   UNL     1       5.290   4.313  15.965  0.00  0.00    +0.000 A 
ATOM     30  C   UNL     1       5.427   5.687  15.768  0.00  0.00    +0.000 A 
ATOM     31  C   UNL     1       4.669   6.595  16.519  0.00  0.00    +0.000 A 
ATOM     32  C   UNL     1       3.749   6.143  17.475  0.00  0.00    +0.000 A 
ATOM     33  C   UNL     1       3.605   4.756  17.642  0.00  0.00    +0.000 A 
ATOM     34  C   UNL     1       4.369   3.849  16.899  0.00  0.00    +0.000 A 
BRANCH  29  36
ATOM     35  C   UNL     1       6.404   4.061  13.896  0.00  0.00    +0.000 C 
ATOM     36  O   UNL     1       6.071   3.518  15.169  0.00  0.00    +0.000 OA
ENDBRANCH  29  36
ENDBRANCH  24  32
ENDBRANCH  23  26
ENDBRANCH  22  23
ENDBRANCH   1  22
TORSDOF 9
ENDMDL
MODEL 2
REMARK VINA RESULT:      -7.1      2.878     11.734
REMARK  Name = 
REMARK  10 active torsions:
REMARK  status: ('A' for Active; 'I' for Inactive)
REMARK    1  A    between atoms: C_1  and  O_2
REMARK    2  A    between atoms: O_2  and  C_3
REMARK    3  A    between atoms: C_6  and  C_7
REMARK    4  A    between atoms: C_9  and  C_10
REMARK    5  A    between atoms: C_10  and  S_11
REMARK    6  A    between atoms: S_11  and  C_12
REMARK    7  A    between atoms: C_16  and  C_17
REMARK    8  A    between atoms: C_19  and  C_20
REMARK    9  A    between atoms: C_23  and  O_24
REMARK   10  A    between atoms: C_27  and  C_28
REMARK                            x       y       z     vdW  Elec       q    Type
REMARK                         _______ _______ _______ _____ _____    ______ ____
ROOT
ATOM      1  C   UNL     1       1.595   6.020  20.450  0.00  0.00    +0.000 A 
ATOM      2  N   UNL     1       1.537   4.923  21.236  0.00  0.00    +0.000 NA
ATOM      3  C   UNL     1       2.388   3.914  21.002  0.00  0.00    +0.000 A 
ATOM      4  N   UNL     1       2.095   2.746  21.694  0.00  0.00    +0.000 N 
ATOM      5  C   UNL     1       3.397   3.991  20.035  0.00  0.00    +0.000 A 
ATOM      6  C   UNL     1       3.474   5.119  19.171  0.00  0.00    +0.000 A 
ATOM      7  C   UNL     1       2.481   6.122  19.366  0.00  0.00    +0.000 A 
ATOM      8  H   UNL     1       1.379   2.918  22.395  0.00  0.00    +0.000 HD
ATOM      9  H   UNL     1       2.880   2.211  22.048  0.00  0.00    +0.000 HD
ENDROOT
BRANCH   6  10
ATOM     10  C   UNL     1       4.559   5.253  18.129  0.00  0.00    +0.000 A 
ATOM     11  C   UNL     1       4.466   4.645  16.859  0.00  0.00    +0.000 A 
ATOM     12  C   UNL     1       5.518   4.677  15.933  0.00  0.00    +0.000 A 
ATOM     13  C   UNL     1       6.658   5.407  16.219  0.00  0.00    +0.000 A 
ATOM     14  C   UNL     1       6.772   6.071  17.427  0.00  0.00    +0.000 A 
ATOM     15  C   UNL     1       5.753   5.961  18.383  0.00  0.00    +0.000 A 
BRANCH  13  16
ATOM     16  O   UNL     1       7.691   5.495  15.337  0.00  0.00    +0.000 OA
ATOM     17  H   UNL     1       7.873   6.434  15.164  0.00  0.00    +0.000 HD
ENDBRANCH  13  16
ENDBRANCH   6  10
BRANCH   5  18
ATOM     18  C   UNL     1       4.333   2.903  20.002  0.00  0.00    +0.000 C 
ATOM     19  N   UNL     1       5.058   1.997  19.962  0.00  0.00    +0.000 NA
ENDBRANCH   5  18
BRANCH   7  20
ATOM     20  C   UNL     1       2.309   7.216  18.440  0.00  0.00    +0.000 C 
ATOM     21  N   UNL     1       2.161   8.094  17.703  0.00  0.00    +0.000 NA
ENDBRANCH   7  20
BRANCH   1  22
ATOM     22  S   UNL     1       0.472   7.346  20.899  0.00  0.00    +0.000 S 
BRANCH  22  23
ATOM     23  C   UNL     1       1.648   8.674  21.341  0.00  0.00    +0.000 C 
BRANCH  23  26
ATOM     24  C   UNL     1      -0.239  11.748  21.765  0.00  0.00    +0.000 A 
ATOM     25  N   UNL     1       0.285  10.601  22.157  0.00  0.00    +0.000 NA
ATOM     26  C   UNL     1       1.050  10.034  21.141  0.00  0.00    +0.000 A 
ATOM     27  C   UNL     1       1.118  10.796  19.989  0.00  0.00    +0.000 A 
ATOM     28  S   UNL     1       0.245  12.248  20.184  0.00  0.00    +0.000 S 
BRANCH  24  32
ATOM     29  C   UNL     1      -2.888  14.162  24.148  0.00  0.00    +0.000 A 
ATOM     30  C   UNL     1      -1.673  14.673  23.692  0.00  0.00    +0.000 A 
ATOM     31  C   UNL     1      -0.820  13.890  22.903  0.00  0.00    +0.000 A 
ATOM     32  C   UNL     1      -1.163  12.574  22.565  0.00  0.00    +0.000 A 
ATOM     33  C   UNL     1      -2.378  12.067  23.054  0.00  0.00    +0.000 A 
ATOM     34  C   UNL     1      -3.235  12.852  23.834  0.00  0.00    +0.000 A 
BRANCH  29  36
ATOM     35  C   UNL     1      -3.018  16.247  25.253  0.00  0.00    +0.000 C 
ATOM     36  O   UNL     1      -3.637  15.010  24.920  0.00  0.00    +0.000 OA
ENDBRANCH  29  36
ENDBRANCH  24  32
ENDBRANCH  23  26
ENDBRANCH  22  23
ENDBRANCH   1  22
TORSDOF 9
ENDMDL
MODEL 3
REMARK VINA RESULT:      -7.0      1.209      1.455
REMARK  Name = 
REMARK  10 active torsions:
REMARK  status: ('A' for Active; 'I' for Inactive)
REMARK    1  A    between atoms: C_1  and  O_2
REMARK    2  A    between atoms: O_2  and  C_3
REMARK    3  A    between atoms: C_6  and  C_7
REMARK    4  A    between atoms: C_9  and  C_10
REMARK    5  A    between atoms: C_10  and  S_11
REMARK    6  A    between atoms: S_11  and  C_12
REMARK    7  A    between atoms: C_16  and  C_17
REMARK    8  A    between atoms: C_19  and  C_20
REMARK    9  A    between atoms: C_23  and  O_24
REMARK   10  A    between atoms: C_27  and  C_28
REMARK                            x       y       z     vdW  Elec       q    Type
REMARK                         _______ _______ _______ _____ _____    ______ ____
ROOT
ATOM      1  C   UNL     1      -0.482  10.497  19.257  0.00  0.00    +0.000 A 
ATOM      2  N   UNL     1      -1.023  10.049  18.103  0.00  0.00    +0.000 NA
ATOM      3  C   UNL     1      -2.255  10.453  17.767  0.00  0.00    +0.000 A 
ATOM      4  N   UNL     1      -2.816   9.759  16.702  0.00  0.00    +0.000 N 
ATOM      5  C   UNL     1      -2.968  11.395  18.518  0.00  0.00    +0.000 A 
ATOM      6  C   UNL     1      -2.442  11.870  19.752  0.00  0.00    +0.000 A 
ATOM      7  C   UNL     1      -1.183  11.331  20.142  0.00  0.00    +0.000 A 
ATOM      8  H   UNL     1      -2.116   9.176  16.250  0.00  0.00    +0.000 HD
ATOM      9  H   UNL     1      -3.375  10.294  16.047  0.00  0.00    +0.000 HD
ENDROOT
BRANCH   6  10
ATOM     10  C   UNL     1      -3.167  12.901  20.584  0.00  0.00    +0.000 A 
ATOM     11  C   UNL     1      -4.271  12.575  21.399  0.00  0.00    +0.000 A 
ATOM     12  C   UNL     1      -5.012  13.548  22.085  0.00  0.00    +0.000 A 
ATOM     13  C   UNL     1      -4.602  14.869  22.050  0.00  0.00    +0.000 A 
ATOM     14  C   UNL     1      -3.489  15.231  21.313  0.00  0.00    +0.000 A 
ATOM     15  C   UNL     1      -2.807  14.266  20.559  0.00  0.00    +0.000 A 
BRANCH  13  16
ATOM     16  O   UNL     1      -5.269  15.843  22.727  0.00  0.00    +0.000 OA
ATOM     17  H   UNL     1      -6.214  15.617  22.748  0.00  0.00    +0.000 HD
ENDBRANCH  13  16
ENDBRANCH   6  10
BRANCH   5  18
ATOM     18  C   UNL     1      -4.207  11.853  17.957  0.00  0.00    +0.000 C 
ATOM     19  N   UNL     1      -5.230  12.213  17.539  0.00  0.00    +0.000 NA
ENDBRANCH   5  18
BRANCH   7  20
ATOM     20  C   UNL     1      -0.626  11.561  21.453  0.00  0.00    +0.000 C 
ATOM     21  N   UNL     1      -0.181  11.734  22.506  0.00  0.00    +0.000 NA
ENDBRANCH   7  20
BRANCH   1  22
ATOM     22  S   UNL     1       1.203   9.964  19.571  0.00  0.00    +0.000 S 
BRANCH  22  23
ATOM     23  C   UNL     1       0.928   8.583  20.737  0.00  0.00    +0.000 C 
BRANCH  23  26
ATOM     24  C   UNL     1       3.023   6.210  18.954  0.00  0.00    +0.000 A 
ATOM     25  N   UNL     1       2.546   7.409  19.240  0.00  0.00    +0.000 NA
ATOM     26  C   UNL     1       1.666   7.347  20.318  0.00  0.00    +0.000 A 
ATOM     27  C   UNL     1       1.518   6.083  20.858  0.00  0.00    +0.000 A 
ATOM     28  S   UNL     1       2.509   4.965  20.035  0.00  0.00    +0.000 S 
BRANCH  24  32
ATOM     29  C   UNL     1       5.598   5.345  15.617  0.00  0.00    +0.000 A 
ATOM     30  C   UNL     1       5.239   6.658  15.919  0.00  0.00    +0.000 A 
ATOM     31  C   UNL     1       4.412   6.938  17.015  0.00  0.00    +0.000 A 
ATOM     32  C   UNL     1       3.921   5.905  17.825  0.00  0.00    +0.000 A 
ATOM     33  C   UNL     1       4.272   4.587  17.492  0.00  0.00    +0.000 A 
ATOM     34  C   UNL     1       5.105   4.307  16.402  0.00  0.00    +0.000 A 
BRANCH  29  36
ATOM     35  C   UNL     1       6.209   3.977  13.789  0.00  0.00    +0.000 C 
ATOM     36  O   UNL     1       6.399   5.185  14.518  0.00  0.00    +0.000 OA
ENDBRANCH  29  36
ENDBRANCH  24  32
ENDBRANCH  23  26
ENDBRANCH  22  23
ENDBRANCH   1  22
TORSDOF 9
ENDMDL
MODEL 4
REMARK VINA RESULT:      -7.0      4.050     10.790
REMARK  Name = 
REMARK  10 active torsions:
REMARK  status: ('A' for Active; 'I' for Inactive)
REMARK    1  A    between atoms: C_1  and  O_2
REMARK    2  A    between atoms: O_2  and  C_3
REMARK    3  A    between atoms: C_6  and  C_7
REMARK    4  A    between atoms: C_9  and  C_10
REMARK    5  A    between atoms: C_10  and  S_11
REMARK    6  A    between atoms: S_11  and  C_12
REMARK    7  A    between atoms: C_16  and  C_17
REMARK    8  A    between atoms: C_19  and  C_20
REMARK    9  A    between atoms: C_23  and  O_24
REMARK   10  A    between atoms: C_27  and  C_28
REMARK                            x       y       z     vdW  Elec       q    Type
REMARK                         _______ _______ _______ _____ _____    ______ ____
ROOT
ATOM      1  C   UNL     1       1.991   6.981  20.124  0.00  0.00    +0.000 A 
ATOM      2  N   UNL     1       1.647   5.930  20.900  0.00  0.00    +0.000 NA
ATOM      3  C   UNL     1       2.204   4.736  20.655  0.00  0.00    +0.000 A 
ATOM      4  N   UNL     1       1.614   3.679  21.336  0.00  0.00    +0.000 N 
ATOM      5  C   UNL     1       3.198   4.555  19.687  0.00  0.00    +0.000 A 
ATOM      6  C   UNL     1       3.569   5.632  18.833  0.00  0.00    +0.000 A 
ATOM      7  C   UNL     1       2.873   6.858  19.039  0.00  0.00    +0.000 A 
ATOM      8  H   UNL     1       0.968   4.026  22.041  0.00  0.00    +0.000 HD
ATOM      9  H   UNL     1       2.232   2.953  21.683  0.00  0.00    +0.000 HD
ENDROOT
BRANCH   6  10
ATOM     10  C   UNL     1       4.651   5.486  17.790  0.00  0.00    +0.000 A 
ATOM     11  C   UNL     1       5.964   5.962  17.991  0.00  0.00    +0.000 A 
ATOM     12  C   UNL     1       6.938   5.925  16.983  0.00  0.00    +0.000 A 
ATOM     13  C   UNL     1       6.648   5.318  15.775  0.00  0.00    +0.000 A 
ATOM     14  C   UNL     1       5.392   4.781  15.551  0.00  0.00    +0.000 A 
ATOM     15  C   UNL     1       4.398   4.901  16.531  0.00  0.00    +0.000 A 
BRANCH  13  16
ATOM     16  O   UNL     1       7.572   5.228  14.779  0.00  0.00    +0.000 OA
ATOM     17  H   UNL     1       8.359   5.734  15.039  0.00  0.00    +0.000 HD
ENDBRANCH  13  16
ENDBRANCH   6  10
BRANCH   5  18
ATOM     18  C   UNL     1       3.816   3.260  19.642  0.00  0.00    +0.000 C 
ATOM     19  N   UNL     1       4.296   2.202  19.642  0.00  0.00    +0.000 NA
ENDBRANCH   5  18
BRANCH   7  20
ATOM     20  C   UNL     1       2.995   7.967  18.124  0.00  0.00    +0.000 C 
ATOM     21  N   UNL     1       3.082   8.860  17.395  0.00  0.00    +0.000 NA
ENDBRANCH   7  20
BRANCH   1  22
ATOM     22  S   UNL     1       1.255   8.551  20.588  0.00  0.00    +0.000 S 
BRANCH  22  23
ATOM     23  C   UNL     1       0.291   8.950  19.087  0.00  0.00    +0.000 C 
BRANCH  23  26
ATOM     24  C   UNL     1       0.665  12.549  18.762  0.00  0.00    +0.000 A 
ATOM     25  N   UNL     1       1.076  11.293  18.725  0.00  0.00    +0.000 NA
ATOM     26  C   UNL     1       0.020  10.420  18.976  0.00  0.00    +0.000 A 
ATOM     27  C   UNL     1      -1.199  11.044  19.169  0.00  0.00    +0.000 A 
ATOM     28  S   UNL     1      -1.035  12.734  19.005  0.00  0.00    +0.000 S 
BRANCH  24  32
ATOM     29  C   UNL     1       3.250  15.968  18.377  0.00  0.00    +0.000 A 
ATOM     30  C   UNL     1       3.736  14.679  18.162  0.00  0.00    +0.000 A 
ATOM     31  C   UNL     1       2.888  13.568  18.273  0.00  0.00    +0.000 A 
ATOM     32  C   UNL     1       1.537  13.728  18.613  0.00  0.00    +0.000 A 
ATOM     33  C   UNL     1       1.071  15.031  18.851  0.00  0.00    +0.000 A 
ATOM     34  C   UNL     1       1.915  16.142  18.732  0.00  0.00    +0.000 A 
BRANCH  29  36
ATOM     35  C   UNL     1       5.126  17.068  19.302  0.00  0.00    +0.000 C 
ATOM     36  O   UNL     1       4.167  16.977  18.254  0.00  0.00    +0.000 OA
ENDBRANCH  29  36
ENDBRANCH  24  32
ENDBRANCH  23  26
ENDBRANCH  22  23
ENDBRANCH   1  22
TORSDOF 9
ENDMDL
MODEL 5
REMARK VINA RESULT:      -7.0      3.065     11.092
REMARK  Name = 
REMARK  10 active torsions:
REMARK  status: ('A' for Active; 'I' for Inactive)
REMARK    1  A    between atoms: C_1  and  O_2
REMARK    2  A    between atoms: O_2  and  C_3
REMARK    3  A    between atoms: C_6  and  C_7
REMARK    4  A    between atoms: C_9  and  C_10
REMARK    5  A    between atoms: C_10  and  S_11
REMARK    6  A    between atoms: S_11  and  C_12
REMARK    7  A    between atoms: C_16  and  C_17
REMARK    8  A    between atoms: C_19  and  C_20
REMARK    9  A    between atoms: C_23  and  O_24
REMARK   10  A    between atoms: C_27  and  C_28
REMARK                            x       y       z     vdW  Elec       q    Type
REMARK                         _______ _______ _______ _____ _____    ______ ____
ROOT
ATOM      1  C   UNL     1       1.609   5.772  20.471  0.00  0.00    +0.000 A 
ATOM      2  N   UNL     1       1.547   4.684  21.269  0.00  0.00    +0.000 NA
ATOM      3  C   UNL     1       2.409   3.679  21.061  0.00  0.00    +0.000 A 
ATOM      4  N   UNL     1       2.114   2.517  21.762  0.00  0.00    +0.000 N 
ATOM      5  C   UNL     1       3.433   3.752  20.109  0.00  0.00    +0.000 A 
ATOM      6  C   UNL     1       3.515   4.870  19.233  0.00  0.00    +0.000 A 
ATOM      7  C   UNL     1       2.511   5.868  19.400  0.00  0.00    +0.000 A 
ATOM      8  H   UNL     1       1.386   2.692  22.450  0.00  0.00    +0.000 HD
ATOM      9  H   UNL     1       2.898   1.992  22.134  0.00  0.00    +0.000 HD
ENDROOT
BRANCH   6  10
ATOM     10  C   UNL     1       4.614   5.000  18.206  0.00  0.00    +0.000 A 
ATOM     11  C   UNL     1       5.825   5.672  18.475  0.00  0.00    +0.000 A 
ATOM     12  C   UNL     1       6.799   5.886  17.490  0.00  0.00    +0.000 A 
ATOM     13  C   UNL     1       6.627   5.344  16.229  0.00  0.00    +0.000 A 
ATOM     14  C   UNL     1       5.483   4.624  15.934  0.00  0.00    +0.000 A 
ATOM     15  C   UNL     1       4.475   4.489  16.897  0.00  0.00    +0.000 A 
BRANCH  13  16
ATOM     16  O   UNL     1       7.561   5.497  15.251  0.00  0.00    +0.000 OA
ATOM     17  H   UNL     1       7.117   5.794  14.439  0.00  0.00    +0.000 HD
ENDBRANCH  13  16
ENDBRANCH   6  10
BRANCH   5  18
ATOM     18  C   UNL     1       4.376   2.671  20.103  0.00  0.00    +0.000 C 
ATOM     19  N   UNL     1       5.146   1.801  20.141  0.00  0.00    +0.000 NA
ENDBRANCH   5  18
BRANCH   7  20
ATOM     20  C   UNL     1       2.346   6.949  18.459  0.00  0.00    +0.000 C 
ATOM     21  N   UNL     1       2.204   7.810  17.700  0.00  0.00    +0.000 NA
ENDBRANCH   7  20
BRANCH   1  22
ATOM     22  S   UNL     1       0.470   7.095  20.888  0.00  0.00    +0.000 S 
BRANCH  22  23
ATOM     23  C   UNL     1       1.586   8.543  20.875  0.00  0.00    +0.000 C 
BRANCH  23  26
ATOM     24  C   UNL     1      -0.842  10.923  19.595  0.00  0.00    +0.000 A 
ATOM     25  N   UNL     1      -0.399   9.721  19.921  0.00  0.00    +0.000 NA
ATOM     26  C   UNL     1       0.854   9.804  20.523  0.00  0.00    +0.000 A 
ATOM     27  C   UNL     1       1.328  11.094  20.674  0.00  0.00    +0.000 A 
ATOM     28  S   UNL     1       0.188  12.219  20.088  0.00  0.00    +0.000 S 
BRANCH  24  32
ATOM     29  C   UNL     1      -4.547  11.684  17.541  0.00  0.00    +0.000 A 
ATOM     30  C   UNL     1      -4.296  12.246  18.792  0.00  0.00    +0.000 A 
ATOM     31  C   UNL     1      -3.083  12.009  19.452  0.00  0.00    +0.000 A 
ATOM     32  C   UNL     1      -2.100  11.193  18.874  0.00  0.00    +0.000 A 
ATOM     33  C   UNL     1      -2.379  10.615  17.625  0.00  0.00    +0.000 A 
ATOM     34  C   UNL     1      -3.588  10.858  16.962  0.00  0.00    +0.000 A 
BRANCH  29  36
ATOM     35  C   UNL     1      -6.876  11.888  17.883  0.00  0.00    +0.000 C 
ATOM     36  O   UNL     1      -5.768  11.972  16.993  0.00  0.00    +0.000 OA
ENDBRANCH  29  36
ENDBRANCH  24  32
ENDBRANCH  23  26
ENDBRANCH  22  23
ENDBRANCH   1  22
TORSDOF 9
ENDMDL
MODEL 6
REMARK VINA RESULT:      -7.0      3.449      5.631
REMARK  Name = 
REMARK  10 active torsions:
REMARK  status: ('A' for Active; 'I' for Inactive)
REMARK    1  A    between atoms: C_1  and  O_2
REMARK    2  A    between atoms: O_2  and  C_3
REMARK    3  A    between atoms: C_6  and  C_7
REMARK    4  A    between atoms: C_9  and  C_10
REMARK    5  A    between atoms: C_10  and  S_11
REMARK    6  A    between atoms: S_11  and  C_12
REMARK    7  A    between atoms: C_16  and  C_17
REMARK    8  A    between atoms: C_19  and  C_20
REMARK    9  A    between atoms: C_23  and  O_24
REMARK   10  A    between atoms: C_27  and  C_28
REMARK                            x       y       z     vdW  Elec       q    Type
REMARK                         _______ _______ _______ _____ _____    ______ ____
ROOT
ATOM      1  C   UNL     1      -2.598  13.212  20.676  0.00  0.00    +0.000 A 
ATOM      2  N   UNL     1      -3.783  13.165  21.325  0.00  0.00    +0.000 NA
ATOM      3  C   UNL     1      -4.822  12.563  20.731  0.00  0.00    +0.000 A 
ATOM      4  N   UNL     1      -6.043  12.776  21.359  0.00  0.00    +0.000 N 
ATOM      5  C   UNL     1      -4.705  11.898  19.505  0.00  0.00    +0.000 A 
ATOM      6  C   UNL     1      -3.481  11.946  18.780  0.00  0.00    +0.000 A 
ATOM      7  C   UNL     1      -2.430  12.696  19.382  0.00  0.00    +0.000 A 
ATOM      8  H   UNL     1      -5.904  13.214  22.266  0.00  0.00    +0.000 HD
ATOM      9  H   UNL     1      -6.689  11.995  21.387  0.00  0.00    +0.000 HD
ENDROOT
BRANCH   6  10
ATOM     10  C   UNL     1      -3.305  11.226  17.465  0.00  0.00    +0.000 A 
ATOM     11  C   UNL     1      -2.400  10.156  17.304  0.00  0.00    +0.000 A 
ATOM     12  C   UNL     1      -2.156   9.560  16.058  0.00  0.00    +0.000 A 
ATOM     13  C   UNL     1      -2.891   9.957  14.955  0.00  0.00    +0.000 A 
ATOM     14  C   UNL     1      -3.835  10.961  15.075  0.00  0.00    +0.000 A 
ATOM     15  C   UNL     1      -4.009  11.612  16.304  0.00  0.00    +0.000 A 
BRANCH  13  16
ATOM     16  O   UNL     1      -2.714   9.384  13.734  0.00  0.00    +0.000 OA
ATOM     17  H   UNL     1      -1.818   9.011  13.692  0.00  0.00    +0.000 HD
ENDBRANCH  13  16
ENDBRANCH   6  10
BRANCH   5  18
ATOM     18  C   UNL     1      -5.857  11.164  19.066  0.00  0.00    +0.000 C 
ATOM     19  N   UNL     1      -6.813  10.588  18.741  0.00  0.00    +0.000 NA
ENDBRANCH   5  18
BRANCH   7  20
ATOM     20  C   UNL     1      -1.210  13.002  18.675  0.00  0.00    +0.000 C 
ATOM     21  N   UNL     1      -0.238  13.249  18.099  0.00  0.00    +0.000 NA
ENDBRANCH   7  20
BRANCH   1  22
ATOM     22  S   UNL     1      -1.251  13.964  21.593  0.00  0.00    +0.000 S 
BRANCH  22  23
ATOM     23  C   UNL     1      -1.177  12.885  23.067  0.00  0.00    +0.000 C 
BRANCH  23  26
ATOM     24  C   UNL     1       0.244   9.997  21.382  0.00  0.00    +0.000 A 
ATOM     25  N   UNL     1       0.052  11.287  21.592  0.00  0.00    +0.000 NA
ATOM     26  C   UNL     1      -0.748  11.492  22.714  0.00  0.00    +0.000 A 
ATOM     27  C   UNL     1      -1.126  10.330  23.361  0.00  0.00    +0.000 A 
ATOM     28  S   UNL     1      -0.451   8.970  22.585  0.00  0.00    +0.000 S 
BRANCH  24  32
ATOM     29  C   UNL     1       2.447   8.330  18.082  0.00  0.00    +0.000 A 
ATOM     30  C   UNL     1       2.322   7.631  19.283  0.00  0.00    +0.000 A 
ATOM     31  C   UNL     1       1.591   8.169  20.350  0.00  0.00    +0.000 A 
ATOM     32  C   UNL     1       0.980   9.426  20.239  0.00  0.00    +0.000 A 
ATOM     33  C   UNL     1       1.136  10.127  19.032  0.00  0.00    +0.000 A 
ATOM     34  C   UNL     1       1.859   9.586  17.962  0.00  0.00    +0.000 A 
BRANCH  29  36
ATOM     35  C   UNL     1       3.813   6.494  17.494  0.00  0.00    +0.000 C 
ATOM     36  O   UNL     1       3.192   7.716  17.111  0.00  0.00    +0.000 OA
ENDBRANCH  29  36
ENDBRANCH  24  32
ENDBRANCH  23  26
ENDBRANCH  22  23
ENDBRANCH   1  22
TORSDOF 9
ENDMDL
MODEL 7
REMARK VINA RESULT:      -6.9      0.580      1.309
REMARK  Name = 
REMARK  10 active torsions:
REMARK  status: ('A' for Active; 'I' for Inactive)
REMARK    1  A    between atoms: C_1  and  O_2
REMARK    2  A    between atoms: O_2  and  C_3
REMARK    3  A    between atoms: C_6  and  C_7
REMARK    4  A    between atoms: C_9  and  C_10
REMARK    5  A    between atoms: C_10  and  S_11
REMARK    6  A    between atoms: S_11  and  C_12
REMARK    7  A    between atoms: C_16  and  C_17
REMARK    8  A    between atoms: C_19  and  C_20
REMARK    9  A    between atoms: C_23  and  O_24
REMARK   10  A    between atoms: C_27  and  C_28
REMARK                            x       y       z     vdW  Elec       q    Type
REMARK                         _______ _______ _______ _____ _____    ______ ____
ROOT
ATOM      1  C   UNL     1      -0.998  11.169  19.807  0.00  0.00    +0.000 A 
ATOM      2  N   UNL     1      -1.424  10.669  18.626  0.00  0.00    +0.000 NA
ATOM      3  C   UNL     1      -2.670  10.947  18.218  0.00  0.00    +0.000 A 
ATOM      4  N   UNL     1      -3.095  10.199  17.128  0.00  0.00    +0.000 N 
ATOM      5  C   UNL     1      -3.516  11.811  18.923  0.00  0.00    +0.000 A 
ATOM      6  C   UNL     1      -3.113  12.337  20.182  0.00  0.00    +0.000 A 
ATOM      7  C   UNL     1      -1.829  11.928  20.646  0.00  0.00    +0.000 A 
ATOM      8  H   UNL     1      -2.315   9.690  16.719  0.00  0.00    +0.000 HD
ATOM      9  H   UNL     1      -3.667  10.675  16.438  0.00  0.00    +0.000 HD
ENDROOT
BRANCH   6  10
ATOM     10  C   UNL     1      -3.985  13.289  20.965  0.00  0.00    +0.000 A 
ATOM     11  C   UNL     1      -3.807  14.688  20.921  0.00  0.00    +0.000 A 
ATOM     12  C   UNL     1      -4.544  15.564  21.730  0.00  0.00    +0.000 A 
ATOM     13  C   UNL     1      -5.552  15.065  22.536  0.00  0.00    +0.000 A 
ATOM     14  C   UNL     1      -5.806  13.705  22.568  0.00  0.00    +0.000 A 
ATOM     15  C   UNL     1      -5.007  12.828  21.823  0.00  0.00    +0.000 A 
BRANCH  13  16
ATOM     16  O   UNL     1      -6.316  15.881  23.313  0.00  0.00    +0.000 OA
ATOM     17  H   UNL     1      -6.169  15.651  24.245  0.00  0.00    +0.000 HD
ENDBRANCH  13  16
ENDBRANCH   6  10
BRANCH   5  18
ATOM     18  C   UNL     1      -4.761  12.141  18.289  0.00  0.00    +0.000 C 
ATOM     19  N   UNL     1      -5.765  12.447  17.791  0.00  0.00    +0.000 NA
ENDBRANCH   5  18
BRANCH   7  20
ATOM     20  C   UNL     1      -1.375  12.213  21.985  0.00  0.00    +0.000 C 
ATOM     21  N   UNL     1      -1.005  12.432  23.059  0.00  0.00    +0.000 NA
ENDBRANCH   7  20
BRANCH   1  22
ATOM     22  S   UNL     1       0.711  10.810  20.219  0.00  0.00    +0.000 S 
BRANCH  22  23
ATOM     23  C   UNL     1       1.324  10.130  18.637  0.00  0.00    +0.000 C 
BRANCH  23  26
ATOM     24  C   UNL     1       3.134   7.026  18.104  0.00  0.00    +0.000 A 
ATOM     25  N   UNL     1       2.766   8.262  17.818  0.00  0.00    +0.000 NA
ATOM     26  C   UNL     1       1.942   8.776  18.817  0.00  0.00    +0.000 A 
ATOM     27  C   UNL     1       1.727   7.913  19.875  0.00  0.00    +0.000 A 
ATOM     28  S   UNL     1       2.584   6.457  19.639  0.00  0.00    +0.000 S 
BRANCH  24  32
ATOM     29  C   UNL     1       5.529   4.477  15.597  0.00  0.00    +0.000 A 
ATOM     30  C   UNL     1       4.673   3.934  16.555  0.00  0.00    +0.000 A 
ATOM     31  C   UNL     1       3.883   4.767  17.359  0.00  0.00    +0.000 A 
ATOM     32  C   UNL     1       3.944   6.161  17.227  0.00  0.00    +0.000 A 
ATOM     33  C   UNL     1       4.830   6.690  16.275  0.00  0.00    +0.000 A 
ATOM     34  C   UNL     1       5.614   5.860  15.465  0.00  0.00    +0.000 A 
BRANCH  29  36
ATOM     35  C   UNL     1       6.190   3.713  13.461  0.00  0.00    +0.000 C 
ATOM     36  O   UNL     1       6.263   3.573  14.875  0.00  0.00    +0.000 OA
ENDBRANCH  29  36
ENDBRANCH  24  32
ENDBRANCH  23  26
ENDBRANCH  22  23
ENDBRANCH   1  22
TORSDOF 9
ENDMDL
MODEL 8
REMARK VINA RESULT:      -6.9      4.057     10.744
REMARK  Name = 
REMARK  10 active torsions:
REMARK  status: ('A' for Active; 'I' for Inactive)
REMARK    1  A    between atoms: C_1  and  O_2
REMARK    2  A    between atoms: O_2  and  C_3
REMARK    3  A    between atoms: C_6  and  C_7
REMARK    4  A    between atoms: C_9  and  C_10
REMARK    5  A    between atoms: C_10  and  S_11
REMARK    6  A    between atoms: S_11  and  C_12
REMARK    7  A    between atoms: C_16  and  C_17
REMARK    8  A    between atoms: C_19  and  C_20
REMARK    9  A    between atoms: C_23  and  O_24
REMARK   10  A    between atoms: C_27  and  C_28
REMARK                            x       y       z     vdW  Elec       q    Type
REMARK                         _______ _______ _______ _____ _____    ______ ____
ROOT
ATOM      1  C   UNL     1       1.995   7.077  20.132  0.00  0.00    +0.000 A 
ATOM      2  N   UNL     1       1.688   6.019  20.915  0.00  0.00    +0.000 NA
ATOM      3  C   UNL     1       2.252   4.833  20.649  0.00  0.00    +0.000 A 
ATOM      4  N   UNL     1       1.697   3.766  21.344  0.00  0.00    +0.000 N 
ATOM      5  C   UNL     1       3.218   4.667  19.649  0.00  0.00    +0.000 A 
ATOM      6  C   UNL     1       3.548   5.751  18.788  0.00  0.00    +0.000 A 
ATOM      7  C   UNL     1       2.844   6.967  19.020  0.00  0.00    +0.000 A 
ATOM      8  H   UNL     1       1.069   4.103  22.070  0.00  0.00    +0.000 HD
ATOM      9  H   UNL     1       2.334   3.047  21.669  0.00  0.00    +0.000 HD
ENDROOT
BRANCH   6  10
ATOM     10  C   UNL     1       4.598   5.622  17.711  0.00  0.00    +0.000 A 
ATOM     11  C   UNL     1       4.376   4.895  16.521  0.00  0.00    +0.000 A 
ATOM     12  C   UNL     1       5.386   4.684  15.572  0.00  0.00    +0.000 A 
ATOM     13  C   UNL     1       6.621   5.282  15.744  0.00  0.00    +0.000 A 
ATOM     14  C   UNL     1       6.869   6.054  16.864  0.00  0.00    +0.000 A 
ATOM     15  C   UNL     1       5.883   6.188  17.851  0.00  0.00    +0.000 A 
BRANCH  13  16
ATOM     16  O   UNL     1       7.621   5.133  14.832  0.00  0.00    +0.000 OA
ATOM     17  H   UNL     1       8.066   4.284  14.993  0.00  0.00    +0.000 HD
ENDBRANCH  13  16
ENDBRANCH   6  10
BRANCH   5  18
ATOM     18  C   UNL     1       3.849   3.380  19.580  0.00  0.00    +0.000 C 
ATOM     19  N   UNL     1       4.347   2.335  19.483  0.00  0.00    +0.000 NA
ENDBRANCH   5  18
BRANCH   7  20
ATOM     20  C   UNL     1       2.923   8.081  18.105  0.00  0.00    +0.000 C 
ATOM     21  N   UNL     1       2.984   8.980  17.382  0.00  0.00    +0.000 NA
ENDBRANCH   7  20
BRANCH   1  22
ATOM     22  S   UNL     1       1.255   8.635  20.625  0.00  0.00    +0.000 S 
BRANCH  22  23
ATOM     23  C   UNL     1       0.109   8.941  19.233  0.00  0.00    +0.000 C 
BRANCH  23  26
ATOM     24  C   UNL     1       0.674  12.496  18.743  0.00  0.00    +0.000 A 
ATOM     25  N   UNL     1       1.035  11.230  18.856  0.00  0.00    +0.000 NA
ATOM     26  C   UNL     1      -0.082  10.407  18.984  0.00  0.00    +0.000 A 
ATOM     27  C   UNL     1      -1.290  11.077  18.929  0.00  0.00    +0.000 A 
ATOM     28  S   UNL     1      -1.034  12.746  18.685  0.00  0.00    +0.000 S 
BRANCH  24  32
ATOM     29  C   UNL     1       3.352  15.854  18.474  0.00  0.00    +0.000 A 
ATOM     30  C   UNL     1       2.025  16.029  18.867  0.00  0.00    +0.000 A 
ATOM     31  C   UNL     1       1.160  14.932  18.968  0.00  0.00    +0.000 A 
ATOM     32  C   UNL     1       1.605  13.637  18.666  0.00  0.00    +0.000 A 
ATOM     33  C   UNL     1       2.936  13.483  18.248  0.00  0.00    +0.000 A 
ATOM     34  C   UNL     1       3.804  14.577  18.155  0.00  0.00    +0.000 A 
BRANCH  29  36
ATOM     35  C   UNL     1       5.075  17.162  19.426  0.00  0.00    +0.000 C 
ATOM     36  O   UNL     1       4.105  16.995  18.397  0.00  0.00    +0.000 OA
ENDBRANCH  29  36
ENDBRANCH  24  32
ENDBRANCH  23  26
ENDBRANCH  22  23
ENDBRANCH   1  22
TORSDOF 9
ENDMDL
MODEL 9
REMARK VINA RESULT:      -6.9      2.650     11.688
REMARK  Name = 
REMARK  10 active torsions:
REMARK  status: ('A' for Active; 'I' for Inactive)
REMARK    1  A    between atoms: C_1  and  O_2
REMARK    2  A    between atoms: O_2  and  C_3
REMARK    3  A    between atoms: C_6  and  C_7
REMARK    4  A    between atoms: C_9  and  C_10
REMARK    5  A    between atoms: C_10  and  S_11
REMARK    6  A    between atoms: S_11  and  C_12
REMARK    7  A    between atoms: C_16  and  C_17
REMARK    8  A    between atoms: C_19  and  C_20
REMARK    9  A    between atoms: C_23  and  O_24
REMARK   10  A    between atoms: C_27  and  C_28
REMARK                            x       y       z     vdW  Elec       q    Type
REMARK                         _______ _______ _______ _____ _____    ______ ____
ROOT
ATOM      1  C   UNL     1       1.591   5.785  20.439  0.00  0.00    +0.000 A 
ATOM      2  N   UNL     1       1.518   4.705  21.248  0.00  0.00    +0.000 NA
ATOM      3  C   UNL     1       2.383   3.699  21.064  0.00  0.00    +0.000 A 
ATOM      4  N   UNL     1       2.078   2.544  21.773  0.00  0.00    +0.000 N 
ATOM      5  C   UNL     1       3.420   3.761  20.126  0.00  0.00    +0.000 A 
ATOM      6  C   UNL     1       3.515   4.870  19.238  0.00  0.00    +0.000 A 
ATOM      7  C   UNL     1       2.509   5.869  19.379  0.00  0.00    +0.000 A 
ATOM      8  H   UNL     1       1.340   2.727  22.449  0.00  0.00    +0.000 HD
ATOM      9  H   UNL     1       2.856   2.024  22.163  0.00  0.00    +0.000 HD
ENDROOT
BRANCH   6  10
ATOM     10  C   UNL     1       4.628   4.988  18.226  0.00  0.00    +0.000 A 
ATOM     11  C   UNL     1       5.849   5.633  18.516  0.00  0.00    +0.000 A 
ATOM     12  C   UNL     1       6.839   5.839  17.545  0.00  0.00    +0.000 A 
ATOM     13  C   UNL     1       6.671   5.313  16.276  0.00  0.00    +0.000 A 
ATOM     14  C   UNL     1       5.518   4.618  15.960  0.00  0.00    +0.000 A 
ATOM     15  C   UNL     1       4.495   4.494  16.910  0.00  0.00    +0.000 A 
BRANCH  13  16
ATOM     16  O   UNL     1       7.620   5.457  15.311  0.00  0.00    +0.000 OA
ATOM     17  H   UNL     1       7.445   6.279  14.823  0.00  0.00    +0.000 HD
ENDBRANCH  13  16
ENDBRANCH   6  10
BRANCH   5  18
ATOM     18  C   UNL     1       4.364   2.681  20.146  0.00  0.00    +0.000 C 
ATOM     19  N   UNL     1       5.125   1.803  20.120  0.00  0.00    +0.000 NA
ENDBRANCH   5  18
BRANCH   7  20
ATOM     20  C   UNL     1       2.356   6.939  18.424  0.00  0.00    +0.000 C 
ATOM     21  N   UNL     1       2.241   7.804  17.665  0.00  0.00    +0.000 NA
ENDBRANCH   7  20
BRANCH   1  22
ATOM     22  S   UNL     1       0.446   7.111  20.824  0.00  0.00    +0.000 S 
BRANCH  22  23
ATOM     23  C   UNL     1       1.598   8.490  21.162  0.00  0.00    +0.000 C 
BRANCH  23  26
ATOM     24  C   UNL     1      -0.663  11.328  21.332  0.00  0.00    +0.000 A 
ATOM     25  N   UNL     1      -0.164  10.168  21.723  0.00  0.00    +0.000 NA
ATOM     26  C   UNL     1       0.945   9.823  20.954  0.00  0.00    +0.000 A 
ATOM     27  C   UNL     1       1.289  10.763  20.000  0.00  0.00    +0.000 A 
ATOM     28  S   UNL     1       0.240  12.106  20.082  0.00  0.00    +0.000 S 
BRANCH  24  32
ATOM     29  C   UNL     1      -4.192  13.209  22.921  0.00  0.00    +0.000 A 
ATOM     30  C   UNL     1      -3.806  13.419  21.598  0.00  0.00    +0.000 A 
ATOM     31  C   UNL     1      -2.665  12.793  21.079  0.00  0.00    +0.000 A 
ATOM     32  C   UNL     1      -1.881  11.952  21.881  0.00  0.00    +0.000 A 
ATOM     33  C   UNL     1      -2.270  11.772  23.218  0.00  0.00    +0.000 A 
ATOM     34  C   UNL     1      -3.415  12.390  23.735  0.00  0.00    +0.000 A 
BRANCH  29  36
ATOM     35  C   UNL     1      -6.351  13.069  23.873  0.00  0.00    +0.000 C 
ATOM     36  O   UNL     1      -5.315  13.879  23.327  0.00  0.00    +0.000 OA
ENDBRANCH  29  36
ENDBRANCH  24  32
ENDBRANCH  23  26
ENDBRANCH  22  23
ENDBRANCH   1  22
TORSDOF 9
ENDMDL
