MODEL 1
REMARK VINA RESULT:      -9.0      0.000      0.000
REMARK  Name = 
REMARK  5 active torsions:
REMARK  status: ('A' for Active; 'I' for Inactive)
REMARK    1  A    between atoms: C_2  and  C_3
REMARK    2  A    between atoms: N_5  and  C_6
REMARK    3  A    between atoms: C_10  and  N_11
REMARK    4  A    between atoms: C_14  and  N_15
REMARK    5  A    between atoms: N_15  and  C_16
REMARK                            x       y       z     vdW  Elec       q    Type
REMARK                         _______ _______ _______ _____ _____    ______ ____
ROOT
ATOM      1  N   UNL     1       3.874   5.043  18.924  0.00  0.00    +0.000 N 
ATOM      2  C   UNL     1       3.197   6.285  18.980  0.00  0.00    +0.000 A 
ATOM      3  C   UNL     1       2.359   6.541  20.047  0.00  0.00    +0.000 A 
ATOM      4  C   UNL     1       1.686   7.751  20.061  0.00  0.00    +0.000 A 
ATOM      5  N   UNL     1       1.798   8.621  19.048  0.00  0.00    +0.000 NA
ATOM      6  C   UNL     1       2.595   8.273  18.036  0.00  0.00    +0.000 A 
ATOM      7  N   UNL     1       3.310   7.150  17.959  0.00  0.00    +0.000 NA
ATOM      8  H   UNL     1       3.995   4.645  19.847  0.00  0.00    +0.000 HD
ENDROOT
BRANCH   1  13
ATOM      9  C   UNL     1       6.215   4.152  16.133  0.00  0.00    +0.000 A 
ATOM     10  C   UNL     1       7.427   4.489  16.730  0.00  0.00    +0.000 A 
ATOM     11  C   UNL     1       7.462   5.011  18.025  0.00  0.00    +0.000 A 
ATOM     12  C   UNL     1       6.281   5.186  18.738  0.00  0.00    +0.000 A 
ATOM     13  C   UNL     1       5.056   4.822  18.174  0.00  0.00    +0.000 A 
ATOM     14  C   UNL     1       5.026   4.364  16.843  0.00  0.00    +0.000 A 
BRANCH   9  17
ATOM     15  C   UNL     1       6.605   4.213  13.684  0.00  0.00    +0.000 C 
ATOM     16  O   UNL     1       7.222   5.273  13.615  0.00  0.00    +0.000 OA
ATOM     17  N   UNL     1       6.121   3.613  14.828  0.00  0.00    +0.000 N 
ATOM     18  H   UNL     1       5.774   2.666  14.757  0.00  0.00    +0.000 HD
BRANCH  15  20
ATOM     19  C   UNL     1       5.095   3.318  11.988  0.00  0.00    +0.000 C 
ATOM     20  C   UNL     1       6.348   3.414  12.455  0.00  0.00    +0.000 C 
ENDBRANCH  15  20
ENDBRANCH   9  17
ENDBRANCH   1  13
BRANCH   4  21
ATOM     21  N   UNL     1       0.939   8.073  21.216  0.00  0.00    +0.000 N 
ATOM     22  H   UNL     1       0.668   7.245  21.733  0.00  0.00    +0.000 HD
BRANCH  21  23
ATOM     23  C   UNL     1       0.117   9.193  21.464  0.00  0.00    +0.000 A 
ATOM     24  C   UNL     1      -0.278   9.469  22.783  0.00  0.00    +0.000 A 
ATOM     25  C   UNL     1      -0.975  10.640  23.099  0.00  0.00    +0.000 A 
ATOM     26  C   UNL     1      -1.279  11.561  22.103  0.00  0.00    +0.000 A 
ATOM     27  C   UNL     1      -0.894  11.300  20.792  0.00  0.00    +0.000 A 
ATOM     28 BR   UNL     1      -1.278  12.555  19.429  0.00  0.00    +0.000 Br
ATOM     29  C   UNL     1      -0.201  10.133  20.475  0.00  0.00    +0.000 A 
ENDBRANCH  21  23
ENDBRANCH   4  21
TORSDOF 5
ENDMDL
MODEL 2
REMARK VINA RESULT:      -8.3      3.453      5.358
REMARK  Name = 
REMARK  5 active torsions:
REMARK  status: ('A' for Active; 'I' for Inactive)
REMARK    1  A    between atoms: C_2  and  C_3
REMARK    2  A    between atoms: N_5  and  C_6
REMARK    3  A    between atoms: C_10  and  N_11
REMARK    4  A    between atoms: C_14  and  N_15
REMARK    5  A    between atoms: N_15  and  C_16
REMARK                            x       y       z     vdW  Elec       q    Type
REMARK                         _______ _______ _______ _____ _____    ______ ____
ROOT
ATOM      1  N   UNL     1       2.327   8.870  17.923  0.00  0.00    +0.000 N 
ATOM      2  C   UNL     1       1.399   9.278  18.912  0.00  0.00    +0.000 A 
ATOM      3  C   UNL     1       0.493  10.275  18.606  0.00  0.00    +0.000 A 
ATOM      4  C   UNL     1      -0.382  10.676  19.602  0.00  0.00    +0.000 A 
ATOM      5  N   UNL     1      -0.316  10.157  20.836  0.00  0.00    +0.000 NA
ATOM      6  C   UNL     1       0.619   9.232  21.055  0.00  0.00    +0.000 A 
ATOM      7  N   UNL     1       1.474   8.759  20.148  0.00  0.00    +0.000 NA
ATOM      8  H   UNL     1       1.978   9.052  16.990  0.00  0.00    +0.000 HD
ENDROOT
BRANCH   1  13
ATOM      9  C   UNL     1       3.158   5.281  18.622  0.00  0.00    +0.000 A 
ATOM     10  C   UNL     1       4.290   5.145  17.822  0.00  0.00    +0.000 A 
ATOM     11  C   UNL     1       4.757   6.219  17.061  0.00  0.00    +0.000 A 
ATOM     12  C   UNL     1       4.099   7.443  17.105  0.00  0.00    +0.000 A 
ATOM     13  C   UNL     1       2.983   7.615  17.928  0.00  0.00    +0.000 A 
ATOM     14  C   UNL     1       2.480   6.507  18.636  0.00  0.00    +0.000 A 
BRANCH   9  17
ATOM     15  C   UNL     1       1.671   3.337  19.025  0.00  0.00    +0.000 C 
ATOM     16  O   UNL     1       1.128   3.281  17.925  0.00  0.00    +0.000 OA
ATOM     17  N   UNL     1       2.645   4.231  19.420  0.00  0.00    +0.000 N 
ATOM     18  H   UNL     1       3.117   4.062  20.298  0.00  0.00    +0.000 HD
BRANCH  15  20
ATOM     19  C   UNL     1       1.399   2.719  21.371  0.00  0.00    +0.000 C 
ATOM     20  C   UNL     1       1.326   2.349  20.084  0.00  0.00    +0.000 C 
ENDBRANCH  15  20
ENDBRANCH   9  17
ENDBRANCH   1  13
BRANCH   4  21
ATOM     21  N   UNL     1      -1.398  11.593  19.252  0.00  0.00    +0.000 N 
ATOM     22  H   UNL     1      -1.528  12.301  19.964  0.00  0.00    +0.000 HD
BRANCH  21  23
ATOM     23  C   UNL     1      -2.525  11.404  18.425  0.00  0.00    +0.000 A 
ATOM     24  C   UNL     1      -3.771  11.890  18.851  0.00  0.00    +0.000 A 
ATOM     25  C   UNL     1      -4.889  11.850  18.010  0.00  0.00    +0.000 A 
ATOM     26  C   UNL     1      -4.776  11.334  16.723  0.00  0.00    +0.000 A 
ATOM     27  C   UNL     1      -3.548  10.850  16.289  0.00  0.00    +0.000 A 
ATOM     28 BR   UNL     1      -3.371  10.168  14.532  0.00  0.00    +0.000 Br
ATOM     29  C   UNL     1      -2.433  10.887  17.126  0.00  0.00    +0.000 A 
ENDBRANCH  21  23
ENDBRANCH   4  21
TORSDOF 5
ENDMDL
MODEL 3
REMARK VINA RESULT:      -8.2      4.928      9.002
REMARK  Name = 
REMARK  5 active torsions:
REMARK  status: ('A' for Active; 'I' for Inactive)
REMARK    1  A    between atoms: C_2  and  C_3
REMARK    2  A    between atoms: N_5  and  C_6
REMARK    3  A    between atoms: C_10  and  N_11
REMARK    4  A    between atoms: C_14  and  N_15
REMARK    5  A    between atoms: N_15  and  C_16
REMARK                            x       y       z     vdW  Elec       q    Type
REMARK                         _______ _______ _______ _____ _____    ______ ____
ROOT
ATOM      1  N   UNL     1       0.314  10.145  21.006  0.00  0.00    +0.000 N 
ATOM      2  C   UNL     1       1.010   9.264  20.143  0.00  0.00    +0.000 A 
ATOM      3  C   UNL     1       1.653   8.168  20.685  0.00  0.00    +0.000 A 
ATOM      4  C   UNL     1       2.352   7.341  19.822  0.00  0.00    +0.000 A 
ATOM      5  N   UNL     1       2.450   7.622  18.515  0.00  0.00    +0.000 NA
ATOM      6  C   UNL     1       1.836   8.725  18.086  0.00  0.00    +0.000 A 
ATOM      7  N   UNL     1       1.110   9.555  18.836  0.00  0.00    +0.000 NA
ATOM      8  H   UNL     1       0.018   9.677  21.853  0.00  0.00    +0.000 HD
ENDROOT
BRANCH   1  13
ATOM      9  C   UNL     1      -2.259  11.853  18.880  0.00  0.00    +0.000 A 
ATOM     10  C   UNL     1      -2.824  12.697  19.833  0.00  0.00    +0.000 A 
ATOM     11  C   UNL     1      -2.367  12.688  21.153  0.00  0.00    +0.000 A 
ATOM     12  C   UNL     1      -1.329  11.842  21.525  0.00  0.00    +0.000 A 
ATOM     13  C   UNL     1      -0.721  11.012  20.579  0.00  0.00    +0.000 A 
ATOM     14  C   UNL     1      -1.238  10.978  19.269  0.00  0.00    +0.000 A 
BRANCH   9  17
ATOM     15  C   UNL     1      -3.247  10.739  16.896  0.00  0.00    +0.000 C 
ATOM     16  O   UNL     1      -3.517   9.653  17.401  0.00  0.00    +0.000 OA
ATOM     17  N   UNL     1      -2.678  11.825  17.528  0.00  0.00    +0.000 N 
ATOM     18  H   UNL     1      -2.659  12.707  17.034  0.00  0.00    +0.000 HD
BRANCH  15  20
ATOM     19  C   UNL     1      -3.157  10.138  14.532  0.00  0.00    +0.000 C 
ATOM     20  C   UNL     1      -3.573  11.004  15.467  0.00  0.00    +0.000 C 
ENDBRANCH  15  20
ENDBRANCH   9  17
ENDBRANCH   1  13
BRANCH   4  21
ATOM     21  N   UNL     1       2.892   6.147  20.351  0.00  0.00    +0.000 N 
ATOM     22  H   UNL     1       3.879   6.241  20.562  0.00  0.00    +0.000 HD
BRANCH  21  23
ATOM     23  C   UNL     1       2.477   4.814  20.151  0.00  0.00    +0.000 A 
ATOM     24  C   UNL     1       1.168   4.449  20.502  0.00  0.00    +0.000 A 
ATOM     25  C   UNL     1       0.665   3.180  20.196  0.00  0.00    +0.000 A 
ATOM     26  C   UNL     1       1.459   2.257  19.524  0.00  0.00    +0.000 A 
ATOM     27  C   UNL     1       2.758   2.606  19.171  0.00  0.00    +0.000 A 
ATOM     28 BR   UNL     1       3.844   1.371  18.234  0.00  0.00    +0.000 Br
ATOM     29  C   UNL     1       3.262   3.870  19.476  0.00  0.00    +0.000 A 
ENDBRANCH  21  23
ENDBRANCH   4  21
TORSDOF 5
ENDMDL
MODEL 4
REMARK VINA RESULT:      -8.2      3.220      5.006
REMARK  Name = 
REMARK  5 active torsions:
REMARK  status: ('A' for Active; 'I' for Inactive)
REMARK    1  A    between atoms: C_2  and  C_3
REMARK    2  A    between atoms: N_5  and  C_6
REMARK    3  A    between atoms: C_10  and  N_11
REMARK    4  A    between atoms: C_14  and  N_15
REMARK    5  A    between atoms: N_15  and  C_16
REMARK                            x       y       z     vdW  Elec       q    Type
REMARK                         _______ _______ _______ _____ _____    ______ ____
ROOT
ATOM      1  N   UNL     1       3.215   8.150  17.429  0.00  0.00    +0.000 N 
ATOM      2  C   UNL     1       2.212   8.671  18.281  0.00  0.00    +0.000 A 
ATOM      3  C   UNL     1       1.482   9.766  17.862  0.00  0.00    +0.000 A 
ATOM      4  C   UNL     1       0.529  10.275  18.728  0.00  0.00    +0.000 A 
ATOM      5  N   UNL     1       0.358   9.760  19.953  0.00  0.00    +0.000 NA
ATOM      6  C   UNL     1       1.137   8.732  20.292  0.00  0.00    +0.000 A 
ATOM      7  N   UNL     1       2.050   8.154  19.510  0.00  0.00    +0.000 NA
ATOM      8  H   UNL     1       3.025   8.365  16.458  0.00  0.00    +0.000 HD
ENDROOT
BRANCH   1  13
ATOM      9  C   UNL     1       3.629   4.550  18.393  0.00  0.00    +0.000 A 
ATOM     10  C   UNL     1       4.695   4.209  17.563  0.00  0.00    +0.000 A 
ATOM     11  C   UNL     1       5.253   5.152  16.697  0.00  0.00    +0.000 A 
ATOM     12  C   UNL     1       4.755   6.449  16.665  0.00  0.00    +0.000 A 
ATOM     13  C   UNL     1       3.711   6.826  17.513  0.00  0.00    +0.000 A 
ATOM     14  C   UNL     1       3.110   5.849  18.330  0.00  0.00    +0.000 A 
BRANCH   9  17
ATOM     15  C   UNL     1       1.818   3.011  19.100  0.00  0.00    +0.000 C 
ATOM     16  O   UNL     1       1.091   3.105  18.115  0.00  0.00    +0.000 OA
ATOM     17  N   UNL     1       3.031   3.638  19.295  0.00  0.00    +0.000 N 
ATOM     18  H   UNL     1       3.597   3.346  20.080  0.00  0.00    +0.000 HD
BRANCH  15  20
ATOM     19  C   UNL     1       1.499   2.585  21.483  0.00  0.00    +0.000 C 
ATOM     20  C   UNL     1       1.440   2.115  20.228  0.00  0.00    +0.000 C 
ENDBRANCH  15  20
ENDBRANCH   9  17
ENDBRANCH   1  13
BRANCH   4  21
ATOM     21  N   UNL     1      -0.311  11.304  18.248  0.00  0.00    +0.000 N 
ATOM     22  H   UNL     1       0.015  12.220  18.531  0.00  0.00    +0.000 HD
BRANCH  21  23
ATOM     23  C   UNL     1      -1.686  11.261  17.937  0.00  0.00    +0.000 A 
ATOM     24  C   UNL     1      -2.115  10.474  16.857  0.00  0.00    +0.000 A 
ATOM     25  C   UNL     1      -3.477  10.288  16.593  0.00  0.00    +0.000 A 
ATOM     26  C   UNL     1      -4.433  10.877  17.412  0.00  0.00    +0.000 A 
ATOM     27  C   UNL     1      -4.022  11.660  18.486  0.00  0.00    +0.000 A 
ATOM     28 BR   UNL     1      -5.310  12.448  19.626  0.00  0.00    +0.000 Br
ATOM     29  C   UNL     1      -2.666  11.847  18.749  0.00  0.00    +0.000 A 
ENDBRANCH  21  23
ENDBRANCH   4  21
TORSDOF 5
ENDMDL
MODEL 5
REMARK VINA RESULT:      -8.2      1.176      1.468
REMARK  Name = 
REMARK  5 active torsions:
REMARK  status: ('A' for Active; 'I' for Inactive)
REMARK    1  A    between atoms: C_2  and  C_3
REMARK    2  A    between atoms: N_5  and  C_6
REMARK    3  A    between atoms: C_10  and  N_11
REMARK    4  A    between atoms: C_14  and  N_15
REMARK    5  A    between atoms: N_15  and  C_16
REMARK                            x       y       z     vdW  Elec       q    Type
REMARK                         _______ _______ _______ _____ _____    ______ ____
ROOT
ATOM      1  N   UNL     1       3.664   5.504  19.330  0.00  0.00    +0.000 N 
ATOM      2  C   UNL     1       2.969   6.730  19.190  0.00  0.00    +0.000 A 
ATOM      3  C   UNL     1       2.124   7.138  20.203  0.00  0.00    +0.000 A 
ATOM      4  C   UNL     1       1.434   8.326  20.027  0.00  0.00    +0.000 A 
ATOM      5  N   UNL     1       1.537   9.027  18.889  0.00  0.00    +0.000 NA
ATOM      6  C   UNL     1       2.341   8.536  17.945  0.00  0.00    +0.000 A 
ATOM      7  N   UNL     1       3.073   7.425  18.046  0.00  0.00    +0.000 NA
ATOM      8  H   UNL     1       3.787   5.257  20.304  0.00  0.00    +0.000 HD
ENDROOT
BRANCH   1  13
ATOM      9  C   UNL     1       6.024   4.379  16.643  0.00  0.00    +0.000 A 
ATOM     10  C   UNL     1       7.237   4.657  17.269  0.00  0.00    +0.000 A 
ATOM     11  C   UNL     1       7.267   5.216  18.548  0.00  0.00    +0.000 A 
ATOM     12  C   UNL     1       6.079   5.488  19.217  0.00  0.00    +0.000 A 
ATOM     13  C   UNL     1       4.850   5.185  18.625  0.00  0.00    +0.000 A 
ATOM     14  C   UNL     1       4.831   4.688  17.308  0.00  0.00    +0.000 A 
BRANCH   9  17
ATOM     15  C   UNL     1       6.449   4.363  14.199  0.00  0.00    +0.000 C 
ATOM     16  O   UNL     1       7.091   5.406  14.110  0.00  0.00    +0.000 OA
ATOM     17  N   UNL     1       5.935   3.806  15.352  0.00  0.00    +0.000 N 
ATOM     18  H   UNL     1       5.567   2.866  15.302  0.00  0.00    +0.000 HD
BRANCH  15  20
ATOM     19  C   UNL     1       6.937   3.729  11.893  0.00  0.00    +0.000 C 
ATOM     20  C   UNL     1       6.189   3.536  12.989  0.00  0.00    +0.000 C 
ENDBRANCH  15  20
ENDBRANCH   9  17
ENDBRANCH   1  13
BRANCH   4  21
ATOM     21  N   UNL     1       0.679   8.814  21.116  0.00  0.00    +0.000 N 
ATOM     22  H   UNL     1       0.015   8.128  21.452  0.00  0.00    +0.000 HD
BRANCH  21  23
ATOM     23  C   UNL     1       0.336  10.144  21.439  0.00  0.00    +0.000 A 
ATOM     24  C   UNL     1       1.068  11.195  20.864  0.00  0.00    +0.000 A 
ATOM     25  C   UNL     1       0.682  12.528  21.042  0.00  0.00    +0.000 A 
ATOM     26  C   UNL     1      -0.450  12.832  21.789  0.00  0.00    +0.000 A 
ATOM     27  C   UNL     1      -1.185  11.801  22.364  0.00  0.00    +0.000 A 
ATOM     28 BR   UNL     1      -2.743  12.197  23.363  0.00  0.00    +0.000 Br
ATOM     29  C   UNL     1      -0.800  10.472  22.189  0.00  0.00    +0.000 A 
ENDBRANCH  21  23
ENDBRANCH   4  21
TORSDOF 5
ENDMDL
MODEL 6
REMARK VINA RESULT:      -8.1      0.965      1.023
REMARK  Name = 
REMARK  5 active torsions:
REMARK  status: ('A' for Active; 'I' for Inactive)
REMARK    1  A    between atoms: C_2  and  C_3
REMARK    2  A    between atoms: N_5  and  C_6
REMARK    3  A    between atoms: C_10  and  N_11
REMARK    4  A    between atoms: C_14  and  N_15
REMARK    5  A    between atoms: N_15  and  C_16
REMARK                            x       y       z     vdW  Elec       q    Type
REMARK                         _______ _______ _______ _____ _____    ______ ____
ROOT
ATOM      1  N   UNL     1       3.830   5.501  19.118  0.00  0.00    +0.000 N 
ATOM      2  C   UNL     1       3.142   6.724  18.924  0.00  0.00    +0.000 A 
ATOM      3  C   UNL     1       2.256   7.153  19.892  0.00  0.00    +0.000 A 
ATOM      4  C   UNL     1       1.574   8.336  19.662  0.00  0.00    +0.000 A 
ATOM      5  N   UNL     1       1.725   9.014  18.515  0.00  0.00    +0.000 NA
ATOM      6  C   UNL     1       2.567   8.503  17.616  0.00  0.00    +0.000 A 
ATOM      7  N   UNL     1       3.293   7.395  17.770  0.00  0.00    +0.000 NA
ATOM      8  H   UNL     1       3.912   5.276  20.102  0.00  0.00    +0.000 HD
ENDROOT
BRANCH   1  13
ATOM      9  C   UNL     1       6.306   4.398  16.528  0.00  0.00    +0.000 A 
ATOM     10  C   UNL     1       7.488   4.610  17.233  0.00  0.00    +0.000 A 
ATOM     11  C   UNL     1       7.461   5.117  18.533  0.00  0.00    +0.000 A 
ATOM     12  C   UNL     1       6.246   5.405  19.143  0.00  0.00    +0.000 A 
ATOM     13  C   UNL     1       5.044   5.168  18.471  0.00  0.00    +0.000 A 
ATOM     14  C   UNL     1       5.086   4.723  17.135  0.00  0.00    +0.000 A 
BRANCH   9  17
ATOM     15  C   UNL     1       6.851   4.474  14.110  0.00  0.00    +0.000 C 
ATOM     16  O   UNL     1       7.510   5.510  14.094  0.00  0.00    +0.000 OA
ATOM     17  N   UNL     1       6.273   3.879  15.212  0.00  0.00    +0.000 N 
ATOM     18  H   UNL     1       5.896   2.946  15.106  0.00  0.00    +0.000 HD
BRANCH  15  20
ATOM     19  C   UNL     1       5.393   3.515  12.402  0.00  0.00    +0.000 C 
ATOM     20  C   UNL     1       6.642   3.700  12.855  0.00  0.00    +0.000 C 
ENDBRANCH  15  20
ENDBRANCH   9  17
ENDBRANCH   1  13
BRANCH   4  21
ATOM     21  N   UNL     1       0.774   8.847  20.708  0.00  0.00    +0.000 N 
ATOM     22  H   UNL     1       0.390   8.108  21.285  0.00  0.00    +0.000 HD
BRANCH  21  23
ATOM     23  C   UNL     1       0.043  10.052  20.765  0.00  0.00    +0.000 A 
ATOM     24  C   UNL     1       0.492  11.082  21.607  0.00  0.00    +0.000 A 
ATOM     25  C   UNL     1      -0.117  12.342  21.596  0.00  0.00    +0.000 A 
ATOM     26  C   UNL     1      -1.179  12.597  20.735  0.00  0.00    +0.000 A 
ATOM     27  C   UNL     1      -1.634  11.585  19.896  0.00  0.00    +0.000 A 
ATOM     28 BR   UNL     1      -3.061  11.923  18.701  0.00  0.00    +0.000 Br
ATOM     29  C   UNL     1      -1.029  10.329  19.907  0.00  0.00    +0.000 A 
ENDBRANCH  21  23
ENDBRANCH   4  21
TORSDOF 5
ENDMDL
MODEL 7
REMARK VINA RESULT:      -8.1      1.072      1.156
REMARK  Name = 
REMARK  5 active torsions:
REMARK  status: ('A' for Active; 'I' for Inactive)
REMARK    1  A    between atoms: C_2  and  C_3
REMARK    2  A    between atoms: N_5  and  C_6
REMARK    3  A    between atoms: C_10  and  N_11
REMARK    4  A    between atoms: C_14  and  N_15
REMARK    5  A    between atoms: N_15  and  C_16
REMARK                            x       y       z     vdW  Elec       q    Type
REMARK                         _______ _______ _______ _____ _____    ______ ____
ROOT
ATOM      1  N   UNL     1       3.419   5.619  19.427  0.00  0.00    +0.000 N 
ATOM      2  C   UNL     1       2.755   6.866  19.325  0.00  0.00    +0.000 A 
ATOM      3  C   UNL     1       1.960   7.286  20.373  0.00  0.00    +0.000 A 
ATOM      4  C   UNL     1       1.298   8.494  20.234  0.00  0.00    +0.000 A 
ATOM      5  N   UNL     1       1.379   9.205  19.101  0.00  0.00    +0.000 NA
ATOM      6  C   UNL     1       2.133   8.702  18.123  0.00  0.00    +0.000 A 
ATOM      7  N   UNL     1       2.836   7.570  18.185  0.00  0.00    +0.000 NA
ATOM      8  H   UNL     1       3.572   5.358  20.393  0.00  0.00    +0.000 HD
ENDROOT
BRANCH   1  13
ATOM      9  C   UNL     1       5.648   4.483  16.633  0.00  0.00    +0.000 A 
ATOM     10  C   UNL     1       6.890   4.695  17.227  0.00  0.00    +0.000 A 
ATOM     11  C   UNL     1       6.982   5.214  18.520  0.00  0.00    +0.000 A 
ATOM     12  C   UNL     1       5.827   5.513  19.235  0.00  0.00    +0.000 A 
ATOM     13  C   UNL     1       4.570   5.275  18.675  0.00  0.00    +0.000 A 
ATOM     14  C   UNL     1       4.490   4.819  17.346  0.00  0.00    +0.000 A 
BRANCH   9  17
ATOM     15  C   UNL     1       6.149   4.411  14.206  0.00  0.00    +0.000 C 
ATOM     16  O   UNL     1       6.984   5.310  14.156  0.00  0.00    +0.000 OA
ATOM     17  N   UNL     1       5.495   3.953  15.330  0.00  0.00    +0.000 N 
ATOM     18  H   UNL     1       4.954   3.102  15.252  0.00  0.00    +0.000 HD
BRANCH  15  20
ATOM     19  C   UNL     1       6.678   3.541  11.987  0.00  0.00    +0.000 C 
ATOM     20  C   UNL     1       5.777   3.663  12.973  0.00  0.00    +0.000 C 
ENDBRANCH  15  20
ENDBRANCH   9  17
ENDBRANCH   1  13
BRANCH   4  21
ATOM     21  N   UNL     1       0.597   8.992  21.356  0.00  0.00    +0.000 N 
ATOM     22  H   UNL     1       0.088   8.260  21.836  0.00  0.00    +0.000 HD
BRANCH  21  23
ATOM     23  C   UNL     1       0.089  10.286  21.588  0.00  0.00    +0.000 A 
ATOM     24  C   UNL     1      -0.876  10.469  22.592  0.00  0.00    +0.000 A 
ATOM     25  C   UNL     1      -1.309  11.749  22.954  0.00  0.00    +0.000 A 
ATOM     26  C   UNL     1      -0.776  12.870  22.326  0.00  0.00    +0.000 A 
ATOM     27  C   UNL     1       0.179  12.703  21.330  0.00  0.00    +0.000 A 
ATOM     28 BR   UNL     1       0.933  14.219  20.483  0.00  0.00    +0.000 Br
ATOM     29  C   UNL     1       0.611  11.428  20.967  0.00  0.00    +0.000 A 
ENDBRANCH  21  23
ENDBRANCH   4  21
TORSDOF 5
ENDMDL
MODEL 8
REMARK VINA RESULT:      -8.0      2.335      3.447
REMARK  Name = 
REMARK  5 active torsions:
REMARK  status: ('A' for Active; 'I' for Inactive)
REMARK    1  A    between atoms: C_2  and  C_3
REMARK    2  A    between atoms: N_5  and  C_6
REMARK    3  A    between atoms: C_10  and  N_11
REMARK    4  A    between atoms: C_14  and  N_15
REMARK    5  A    between atoms: N_15  and  C_16
REMARK                            x       y       z     vdW  Elec       q    Type
REMARK                         _______ _______ _______ _____ _____    ______ ____
ROOT
ATOM      1  N   UNL     1       1.704   6.128  20.757  0.00  0.00    +0.000 N 
ATOM      2  C   UNL     1       1.713   7.325  20.001  0.00  0.00    +0.000 A 
ATOM      3  C   UNL     1       1.271   8.492  20.592  0.00  0.00    +0.000 A 
ATOM      4  C   UNL     1       1.261   9.642  19.821  0.00  0.00    +0.000 A 
ATOM      5  N   UNL     1       1.615   9.614  18.528  0.00  0.00    +0.000 NA
ATOM      6  C   UNL     1       1.986   8.436  18.027  0.00  0.00    +0.000 A 
ATOM      7  N   UNL     1       2.063   7.290  18.705  0.00  0.00    +0.000 NA
ATOM      8  H   UNL     1       1.762   6.316  21.750  0.00  0.00    +0.000 HD
ENDROOT
BRANCH   1  13
ATOM      9  C   UNL     1       4.415   3.952  19.352  0.00  0.00    +0.000 A 
ATOM     10  C   UNL     1       4.100   2.751  19.984  0.00  0.00    +0.000 A 
ATOM     11  C   UNL     1       3.019   2.673  20.864  0.00  0.00    +0.000 A 
ATOM     12  C   UNL     1       2.236   3.795  21.108  0.00  0.00    +0.000 A 
ATOM     13  C   UNL     1       2.510   5.002  20.459  0.00  0.00    +0.000 A 
ATOM     14  C   UNL     1       3.644   5.087  19.629  0.00  0.00    +0.000 A 
BRANCH   9  17
ATOM     15  C   UNL     1       6.676   4.745  18.711  0.00  0.00    +0.000 C 
ATOM     16  O   UNL     1       7.000   5.276  19.770  0.00  0.00    +0.000 OA
ATOM     17  N   UNL     1       5.494   4.087  18.445  0.00  0.00    +0.000 N 
ATOM     18  H   UNL     1       5.426   3.560  17.585  0.00  0.00    +0.000 HD
BRANCH  15  20
ATOM     19  C   UNL     1       7.144   4.493  16.329  0.00  0.00    +0.000 C 
ATOM     20  C   UNL     1       7.620   4.733  17.559  0.00  0.00    +0.000 C 
ENDBRANCH  15  20
ENDBRANCH   9  17
ENDBRANCH   1  13
BRANCH   4  21
ATOM     21  N   UNL     1       0.942  10.860  20.462  0.00  0.00    +0.000 N 
ATOM     22  H   UNL     1       1.772  11.355  20.765  0.00  0.00    +0.000 HD
BRANCH  21  23
ATOM     23  C   UNL     1      -0.224  11.216  21.171  0.00  0.00    +0.000 A 
ATOM     24  C   UNL     1      -0.422  10.695  22.460  0.00  0.00    +0.000 A 
ATOM     25  C   UNL     1      -1.490  11.123  23.257  0.00  0.00    +0.000 A 
ATOM     26  C   UNL     1      -2.371  12.089  22.782  0.00  0.00    +0.000 A 
ATOM     27  C   UNL     1      -2.186  12.613  21.508  0.00  0.00    +0.000 A 
ATOM     28 BR   UNL     1      -3.360  13.947  20.857  0.00  0.00    +0.000 Br
ATOM     29  C   UNL     1      -1.124  12.186  20.712  0.00  0.00    +0.000 A 
ENDBRANCH  21  23
ENDBRANCH   4  21
TORSDOF 5
ENDMDL
MODEL 9
REMARK VINA RESULT:      -7.9      4.259      9.298
REMARK  Name = 
REMARK  5 active torsions:
REMARK  status: ('A' for Active; 'I' for Inactive)
REMARK    1  A    between atoms: C_2  and  C_3
REMARK    2  A    between atoms: N_5  and  C_6
REMARK    3  A    between atoms: C_10  and  N_11
REMARK    4  A    between atoms: C_14  and  N_15
REMARK    5  A    between atoms: N_15  and  C_16
REMARK                            x       y       z     vdW  Elec       q    Type
REMARK                         _______ _______ _______ _____ _____    ______ ____
ROOT
ATOM      1  N   UNL     1       0.290  10.086  20.994  0.00  0.00    +0.000 N 
ATOM      2  C   UNL     1       1.008   9.328  20.037  0.00  0.00    +0.000 A 
ATOM      3  C   UNL     1       1.629   8.162  20.438  0.00  0.00    +0.000 A 
ATOM      4  C   UNL     1       2.349   7.457  19.489  0.00  0.00    +0.000 A 
ATOM      5  N   UNL     1       2.488   7.918  18.238  0.00  0.00    +0.000 NA
ATOM      6  C   UNL     1       1.892   9.075  17.949  0.00  0.00    +0.000 A 
ATOM      7  N   UNL     1       1.147   9.798  18.787  0.00  0.00    +0.000 NA
ATOM      8  H   UNL     1      -0.033   9.506  21.759  0.00  0.00    +0.000 HD
ENDROOT
BRANCH   1  13
ATOM      9  C   UNL     1      -2.365  11.948  19.112  0.00  0.00    +0.000 A 
ATOM     10  C   UNL     1      -2.789  12.820  20.111  0.00  0.00    +0.000 A 
ATOM     11  C   UNL     1      -2.213  12.780  21.383  0.00  0.00    +0.000 A 
ATOM     12  C   UNL     1      -1.197  11.873  21.659  0.00  0.00    +0.000 A 
ATOM     13  C   UNL     1      -0.728  11.013  20.663  0.00  0.00    +0.000 A 
ATOM     14  C   UNL     1      -1.364  11.013  19.407  0.00  0.00    +0.000 A 
BRANCH   9  17
ATOM     15  C   UNL     1      -3.463  10.855  17.175  0.00  0.00    +0.000 C 
ATOM     16  O   UNL     1      -3.614   9.733  17.649  0.00  0.00    +0.000 OA
ATOM     17  N   UNL     1      -2.907  11.949  17.804  0.00  0.00    +0.000 N 
ATOM     18  H   UNL     1      -2.991  12.851  17.354  0.00  0.00    +0.000 HD
BRANCH  15  20
ATOM     19  C   UNL     1      -3.554  10.368  14.784  0.00  0.00    +0.000 C 
ATOM     20  C   UNL     1      -3.939  11.158  15.797  0.00  0.00    +0.000 C 
ENDBRANCH  15  20
ENDBRANCH   9  17
ENDBRANCH   1  13
BRANCH   4  21
ATOM     21  N   UNL     1       2.868   6.197  19.861  0.00  0.00    +0.000 N 
ATOM     22  H   UNL     1       3.075   6.151  20.851  0.00  0.00    +0.000 HD
BRANCH  21  23
ATOM     23  C   UNL     1       3.590   5.265  19.086  0.00  0.00    +0.000 A 
ATOM     24  C   UNL     1       2.886   4.274  18.382  0.00  0.00    +0.000 A 
ATOM     25  C   UNL     1       3.541   3.415  17.493  0.00  0.00    +0.000 A 
ATOM     26  C   UNL     1       4.910   3.539  17.284  0.00  0.00    +0.000 A 
ATOM     27  C   UNL     1       5.619   4.516  17.974  0.00  0.00    +0.000 A 
ATOM     28 BR   UNL     1       7.478   4.714  17.682  0.00  0.00    +0.000 Br
ATOM     29  C   UNL     1       4.968   5.372  18.862  0.00  0.00    +0.000 A 
ENDBRANCH  21  23
ENDBRANCH   4  21
TORSDOF 5
ENDMDL
