MODEL 1
REMARK VINA RESULT:      -8.7      0.000      0.000
REMARK  Name = 
REMARK  7 active torsions:
REMARK  status: ('A' for Active; 'I' for Inactive)
REMARK    1  A    between atoms: C_1  and  C_2
REMARK    2  A    between atoms: C_5  and  C_6
REMARK    3  A    between atoms: N_10  and  C_11
REMARK    4  A    between atoms: C_11  and  C_12
REMARK    5  A    between atoms: C_12  and  N_13
REMARK    6  A    between atoms: C_17  and  N_18
REMARK    7  A    between atoms: C_24  and  C_25
REMARK                            x       y       z     vdW  Elec       q    Type
REMARK                         _______ _______ _______ _____ _____    ______ ____
ROOT
ATOM      1  C   UNL     1      -0.627  11.282  22.418  0.00  0.00    +0.000 A 
ATOM      2  C   UNL     1      -0.834  10.055  23.024  0.00  0.00    +0.000 A 
ATOM      3  N   UNL     1      -0.265   8.889  22.646  0.00  0.00    +0.000 NA
ATOM      4  C   UNL     1       0.590   8.956  21.629  0.00  0.00    +0.000 A 
ATOM      5  N   UNL     1       1.248   7.790  21.288  0.00  0.00    +0.000 N 
ATOM      6  N   UNL     1       0.862  10.092  20.983  0.00  0.00    +0.000 NA
ATOM      7  C   UNL     1       0.246  11.250  21.328  0.00  0.00    +0.000 A 
ATOM      8  H   UNL     1       0.621   7.006  21.424  0.00  0.00    +0.000 HD
ENDROOT
BRANCH   7   9
ATOM      9  C   UNL     1       0.642  12.405  20.459  0.00  0.00    +0.000 A 
ATOM     10  C   UNL     1       1.903  13.021  20.616  0.00  0.00    +0.000 A 
ATOM     11  C   UNL     1       2.247  14.212  19.965  0.00  0.00    +0.000 A 
ATOM     12  C   UNL     1       1.380  14.760  19.036  0.00  0.00    +0.000 A 
ATOM     13 CL   UNL     1       1.787  16.232  18.247  0.00  0.00    +0.000 Cl
ATOM     14  C   UNL     1       0.185  14.119  18.745  0.00  0.00    +0.000 A 
ATOM     15  C   UNL     1      -0.192  12.967  19.458  0.00  0.00    +0.000 A 
ATOM     16 CL   UNL     1      -1.752  12.335  19.033  0.00  0.00    +0.000 Cl
ENDBRANCH   7   9
BRANCH   1  21
ATOM     17  C   UNL     1      -1.301  15.399  24.974  0.00  0.00    +0.000 C 
ATOM     18  C   UNL     1      -1.671  14.269  24.096  0.00  0.00    +0.000 A 
ATOM     19  C   UNL     1      -2.905  13.722  23.830  0.00  0.00    +0.000 A 
ATOM     20  N   UNL     1      -2.656  12.615  23.067  0.00  0.00    +0.000 N 
ATOM     21  C   UNL     1      -1.282  12.484  22.935  0.00  0.00    +0.000 A 
ATOM     22  N   UNL     1      -0.698  13.541  23.456  0.00  0.00    +0.000 NA
ATOM     23  H   UNL     1      -3.346  11.943  22.764  0.00  0.00    +0.000 HD
ENDBRANCH   1  21
BRANCH   5  24
ATOM     24  C   UNL     1       2.061   7.794  20.075  0.00  0.00    +0.000 C 
BRANCH  24  25
ATOM     25  C   UNL     1       2.327   6.356  19.580  0.00  0.00    +0.000 C 
BRANCH  25  26
ATOM     26  N   UNL     1       3.719   5.945  19.731  0.00  0.00    +0.000 N 
ATOM     27  C   UNL     1       4.411   5.674  18.553  0.00  0.00    +0.000 A 
ATOM     28  C   UNL     1       4.211   6.393  17.374  0.00  0.00    +0.000 A 
ATOM     29  C   UNL     1       4.971   6.104  16.242  0.00  0.00    +0.000 A 
ATOM     30  C   UNL     1       5.944   5.115  16.334  0.00  0.00    +0.000 A 
ATOM     31  C   UNL     1       6.100   4.446  17.535  0.00  0.00    +0.000 A 
ATOM     32  N   UNL     1       5.343   4.703  18.635  0.00  0.00    +0.000 NA
ATOM     33  H   UNL     1       3.874   5.145  20.345  0.00  0.00    +0.000 HD
BRANCH  30  34
ATOM     34  N   UNL     1       6.795   4.801  15.198  0.00  0.00    +0.000 N 
ATOM     35  O   UNL     1       6.501   3.811  14.515  0.00  0.00    +0.000 OA
ATOM     36  O   UNL     1       7.765   5.542  14.983  0.00  0.00    +0.000 OA
ENDBRANCH  30  34
ENDBRANCH  25  26
ENDBRANCH  24  25
ENDBRANCH   5  24
TORSDOF 6
ENDMDL
MODEL 2
REMARK VINA RESULT:      -8.1      4.801     10.198
REMARK  Name = 
REMARK  7 active torsions:
REMARK  status: ('A' for Active; 'I' for Inactive)
REMARK    1  A    between atoms: C_1  and  C_2
REMARK    2  A    between atoms: C_5  and  C_6
REMARK    3  A    between atoms: N_10  and  C_11
REMARK    4  A    between atoms: C_11  and  C_12
REMARK    5  A    between atoms: C_12  and  N_13
REMARK    6  A    between atoms: C_17  and  N_18
REMARK    7  A    between atoms: C_24  and  C_25
REMARK                            x       y       z     vdW  Elec       q    Type
REMARK                         _______ _______ _______ _____ _____    ______ ____
ROOT
ATOM      1  C   UNL     1       5.201   3.740  16.411  0.00  0.00    +0.000 A 
ATOM      2  C   UNL     1       4.252   2.742  16.541  0.00  0.00    +0.000 A 
ATOM      3  N   UNL     1       3.454   2.556  17.616  0.00  0.00    +0.000 NA
ATOM      4  C   UNL     1       3.582   3.440  18.602  0.00  0.00    +0.000 A 
ATOM      5  N   UNL     1       2.712   3.316  19.668  0.00  0.00    +0.000 N 
ATOM      6  N   UNL     1       4.464   4.441  18.568  0.00  0.00    +0.000 NA
ATOM      7  C   UNL     1       5.303   4.590  17.514  0.00  0.00    +0.000 A 
ATOM      8  H   UNL     1       2.533   2.334  19.835  0.00  0.00    +0.000 HD
ENDROOT
BRANCH   7   9
ATOM      9  C   UNL     1       6.252   5.740  17.679  0.00  0.00    +0.000 A 
ATOM     10  C   UNL     1       7.377   5.625  18.524  0.00  0.00    +0.000 A 
ATOM     11  C   UNL     1       8.185   6.719  18.857  0.00  0.00    +0.000 A 
ATOM     12  C   UNL     1       7.962   7.944  18.253  0.00  0.00    +0.000 A 
ATOM     13 CL   UNL     1       8.937   9.297  18.671  0.00  0.00    +0.000 Cl
ATOM     14  C   UNL     1       6.951   8.076  17.312  0.00  0.00    +0.000 A 
ATOM     15  C   UNL     1       6.093   6.996  17.039  0.00  0.00    +0.000 A 
ATOM     16 CL   UNL     1       4.830   7.350  15.901  0.00  0.00    +0.000 Cl
ENDBRANCH   7   9
BRANCH   1  21
ATOM     17  C   UNL     1       8.204   5.646  13.051  0.00  0.00    +0.000 C 
ATOM     18  C   UNL     1       7.250   4.674  13.625  0.00  0.00    +0.000 A 
ATOM     19  C   UNL     1       6.428   3.765  13.000  0.00  0.00    +0.000 A 
ATOM     20  N   UNL     1       5.659   3.226  13.994  0.00  0.00    +0.000 N 
ATOM     21  C   UNL     1       5.990   3.856  15.184  0.00  0.00    +0.000 A 
ATOM     22  N   UNL     1       7.025   4.642  14.980  0.00  0.00    +0.000 NA
ATOM     23  H   UNL     1       4.896   2.578  13.861  0.00  0.00    +0.000 HD
ENDBRANCH   1  21
BRANCH   5  24
ATOM     24  C   UNL     1       2.939   4.163  20.836  0.00  0.00    +0.000 C 
BRANCH  24  25
ATOM     25  C   UNL     1       2.027   5.408  20.806  0.00  0.00    +0.000 C 
BRANCH  25  26
ATOM     26  N   UNL     1       2.600   6.522  20.057  0.00  0.00    +0.000 N 
ATOM     27  C   UNL     1       1.858   7.701  20.046  0.00  0.00    +0.000 A 
ATOM     28  C   UNL     1       1.122   8.144  21.147  0.00  0.00    +0.000 A 
ATOM     29  C   UNL     1       0.441   9.358  21.088  0.00  0.00    +0.000 A 
ATOM     30  C   UNL     1       0.545  10.119  19.930  0.00  0.00    +0.000 A 
ATOM     31  C   UNL     1       1.298   9.629  18.879  0.00  0.00    +0.000 A 
ATOM     32  N   UNL     1       1.943   8.433  18.917  0.00  0.00    +0.000 NA
ATOM     33  H   UNL     1       2.831   6.321  19.084  0.00  0.00    +0.000 HD
BRANCH  30  34
ATOM     34  N   UNL     1      -0.110  11.413  19.829  0.00  0.00    +0.000 N 
ATOM     35  O   UNL     1       0.245  12.301  20.615  0.00  0.00    +0.000 OA
ATOM     36  O   UNL     1      -0.984  11.549  18.962  0.00  0.00    +0.000 OA
ENDBRANCH  30  34
ENDBRANCH  25  26
ENDBRANCH  24  25
ENDBRANCH   5  24
TORSDOF 6
ENDMDL
MODEL 3
REMARK VINA RESULT:      -8.0      2.347      3.280
REMARK  Name = 
REMARK  7 active torsions:
REMARK  status: ('A' for Active; 'I' for Inactive)
REMARK    1  A    between atoms: C_1  and  C_2
REMARK    2  A    between atoms: C_5  and  C_6
REMARK    3  A    between atoms: N_10  and  C_11
REMARK    4  A    between atoms: C_11  and  C_12
REMARK    5  A    between atoms: C_12  and  N_13
REMARK    6  A    between atoms: C_17  and  N_18
REMARK    7  A    between atoms: C_24  and  C_25
REMARK                            x       y       z     vdW  Elec       q    Type
REMARK                         _______ _______ _______ _____ _____    ______ ____
ROOT
ATOM      1  C   UNL     1      -0.997  11.341  21.460  0.00  0.00    +0.000 A 
ATOM      2  C   UNL     1      -0.237  10.967  22.554  0.00  0.00    +0.000 A 
ATOM      3  N   UNL     1       0.658   9.955  22.576  0.00  0.00    +0.000 NA
ATOM      4  C   UNL     1       0.834   9.301  21.431  0.00  0.00    +0.000 A 
ATOM      5  N   UNL     1       1.809   8.323  21.413  0.00  0.00    +0.000 N 
ATOM      6  N   UNL     1       0.153   9.591  20.319  0.00  0.00    +0.000 NA
ATOM      7  C   UNL     1      -0.785  10.569  20.316  0.00  0.00    +0.000 A 
ATOM      8  H   UNL     1       1.829   7.861  22.313  0.00  0.00    +0.000 HD
ENDROOT
BRANCH   7   9
ATOM      9  C   UNL     1      -1.476  10.714  18.993  0.00  0.00    +0.000 A 
ATOM     10  C   UNL     1      -2.423   9.756  18.570  0.00  0.00    +0.000 A 
ATOM     11  C   UNL     1      -2.955   9.742  17.275  0.00  0.00    +0.000 A 
ATOM     12  C   UNL     1      -2.645  10.765  16.396  0.00  0.00    +0.000 A 
ATOM     13 CL   UNL     1      -3.278  10.744  14.798  0.00  0.00    +0.000 Cl
ATOM     14  C   UNL     1      -1.824  11.804  16.808  0.00  0.00    +0.000 A 
ATOM     15  C   UNL     1      -1.230  11.773  18.083  0.00  0.00    +0.000 A 
ATOM     16 CL   UNL     1      -0.164  13.104  18.412  0.00  0.00    +0.000 Cl
ENDBRANCH   7   9
BRANCH   1  21
ATOM     17  C   UNL     1      -5.091  13.977  20.978  0.00  0.00    +0.000 C 
ATOM     18  C   UNL     1      -3.673  13.718  21.300  0.00  0.00    +0.000 A 
ATOM     19  C   UNL     1      -2.608  14.587  21.373  0.00  0.00    +0.000 A 
ATOM     20  N   UNL     1      -1.507  13.799  21.566  0.00  0.00    +0.000 N 
ATOM     21  C   UNL     1      -1.918  12.475  21.551  0.00  0.00    +0.000 A 
ATOM     22  N   UNL     1      -3.232  12.434  21.506  0.00  0.00    +0.000 NA
ATOM     23  H   UNL     1      -0.550  14.121  21.587  0.00  0.00    +0.000 HD
ENDBRANCH   1  21
BRANCH   5  24
ATOM     24  C   UNL     1       1.908   7.479  20.225  0.00  0.00    +0.000 C 
BRANCH  24  25
ATOM     25  C   UNL     1       1.947   5.984  20.607  0.00  0.00    +0.000 C 
BRANCH  25  26
ATOM     26  N   UNL     1       1.994   5.096  19.450  0.00  0.00    +0.000 N 
ATOM     27  C   UNL     1       3.231   4.969  18.824  0.00  0.00    +0.000 A 
ATOM     28  C   UNL     1       4.439   4.967  19.524  0.00  0.00    +0.000 A 
ATOM     29  C   UNL     1       5.641   4.785  18.843  0.00  0.00    +0.000 A 
ATOM     30  C   UNL     1       5.597   4.573  17.470  0.00  0.00    +0.000 A 
ATOM     31  C   UNL     1       4.368   4.577  16.836  0.00  0.00    +0.000 A 
ATOM     32  N   UNL     1       3.193   4.781  17.489  0.00  0.00    +0.000 NA
ATOM     33  H   UNL     1       1.320   5.305  18.713  0.00  0.00    +0.000 HD
BRANCH  30  34
ATOM     34  N   UNL     1       6.817   4.336  16.714  0.00  0.00    +0.000 N 
ATOM     35  O   UNL     1       7.896   4.562  17.277  0.00  0.00    +0.000 OA
ATOM     36  O   UNL     1       6.701   3.923  15.552  0.00  0.00    +0.000 OA
ENDBRANCH  30  34
ENDBRANCH  25  26
ENDBRANCH  24  25
ENDBRANCH   5  24
TORSDOF 6
ENDMDL
MODEL 4
REMARK VINA RESULT:      -8.0      6.356      9.826
REMARK  Name = 
REMARK  7 active torsions:
REMARK  status: ('A' for Active; 'I' for Inactive)
REMARK    1  A    between atoms: C_1  and  C_2
REMARK    2  A    between atoms: C_5  and  C_6
REMARK    3  A    between atoms: N_10  and  C_11
REMARK    4  A    between atoms: C_11  and  C_12
REMARK    5  A    between atoms: C_12  and  N_13
REMARK    6  A    between atoms: C_17  and  N_18
REMARK    7  A    between atoms: C_24  and  C_25
REMARK                            x       y       z     vdW  Elec       q    Type
REMARK                         _______ _______ _______ _____ _____    ______ ____
ROOT
ATOM      1  C   UNL     1       4.829   4.650  17.391  0.00  0.00    +0.000 A 
ATOM      2  C   UNL     1       6.022   4.390  16.740  0.00  0.00    +0.000 A 
ATOM      3  N   UNL     1       7.021   5.279  16.551  0.00  0.00    +0.000 NA
ATOM      4  C   UNL     1       6.837   6.489  17.075  0.00  0.00    +0.000 A 
ATOM      5  N   UNL     1       7.885   7.382  16.968  0.00  0.00    +0.000 N 
ATOM      6  N   UNL     1       5.724   6.835  17.726  0.00  0.00    +0.000 NA
ATOM      7  C   UNL     1       4.700   5.958  17.864  0.00  0.00    +0.000 A 
ATOM      8  H   UNL     1       8.353   7.236  16.082  0.00  0.00    +0.000 HD
ENDROOT
BRANCH   7   9
ATOM      9  C   UNL     1       3.520   6.543  18.580  0.00  0.00    +0.000 A 
ATOM     10  C   UNL     1       2.858   7.678  18.063  0.00  0.00    +0.000 A 
ATOM     11  C   UNL     1       1.877   8.371  18.782  0.00  0.00    +0.000 A 
ATOM     12  C   UNL     1       1.438   7.874  19.997  0.00  0.00    +0.000 A 
ATOM     13 CL   UNL     1       0.248   8.730  20.894  0.00  0.00    +0.000 Cl
ATOM     14  C   UNL     1       1.962   6.686  20.486  0.00  0.00    +0.000 A 
ATOM     15  C   UNL     1       3.002   6.036  19.799  0.00  0.00    +0.000 A 
ATOM     16 CL   UNL     1       3.602   4.609  20.587  0.00  0.00    +0.000 Cl
ENDBRANCH   7   9
BRANCH   1  21
ATOM     17  C   UNL     1       0.575   2.487  18.470  0.00  0.00    +0.000 C 
ATOM     18  C   UNL     1       2.000   2.566  18.088  0.00  0.00    +0.000 A 
ATOM     19  C   UNL     1       2.999   1.626  18.196  0.00  0.00    +0.000 A 
ATOM     20  N   UNL     1       4.147   2.271  17.827  0.00  0.00    +0.000 N 
ATOM     21  C   UNL     1       3.830   3.593  17.557  0.00  0.00    +0.000 A 
ATOM     22  N   UNL     1       2.523   3.739  17.603  0.00  0.00    +0.000 NA
ATOM     23  H   UNL     1       5.078   1.883  17.868  0.00  0.00    +0.000 HD
ENDBRANCH   1  21
BRANCH   5  24
ATOM     24  C   UNL     1       7.651   8.763  17.382  0.00  0.00    +0.000 C 
BRANCH  24  25
ATOM     25  C   UNL     1       8.654   9.193  18.474  0.00  0.00    +0.000 C 
BRANCH  25  26
ATOM     26  N   UNL     1       9.356  10.431  18.154  0.00  0.00    +0.000 N 
ATOM     27  C   UNL     1       9.411  11.386  19.167  0.00  0.00    +0.000 A 
ATOM     28  C   UNL     1       9.544  11.052  20.516  0.00  0.00    +0.000 A 
ATOM     29  C   UNL     1       9.644  12.056  21.477  0.00  0.00    +0.000 A 
ATOM     30  C   UNL     1       9.643  13.380  21.052  0.00  0.00    +0.000 A 
ATOM     31  C   UNL     1       9.518  13.644  19.700  0.00  0.00    +0.000 A 
ATOM     32  N   UNL     1       9.392  12.671  18.759  0.00  0.00    +0.000 NA
ATOM     33  H   UNL     1       9.024  10.918  17.321  0.00  0.00    +0.000 HD
BRANCH  30  34
ATOM     34  N   UNL     1       9.786  14.468  22.006  0.00  0.00    +0.000 N 
ATOM     35  O   UNL     1       9.120  14.411  23.048  0.00  0.00    +0.000 OA
ATOM     36  O   UNL     1      10.567  15.386  21.718  0.00  0.00    +0.000 OA
ENDBRANCH  30  34
ENDBRANCH  25  26
ENDBRANCH  24  25
ENDBRANCH   5  24
TORSDOF 6
ENDMDL
MODEL 5
REMARK VINA RESULT:      -7.9      1.285      1.655
REMARK  Name = 
REMARK  7 active torsions:
REMARK  status: ('A' for Active; 'I' for Inactive)
REMARK    1  A    between atoms: C_1  and  C_2
REMARK    2  A    between atoms: C_5  and  C_6
REMARK    3  A    between atoms: N_10  and  C_11
REMARK    4  A    between atoms: C_11  and  C_12
REMARK    5  A    between atoms: C_12  and  N_13
REMARK    6  A    between atoms: C_17  and  N_18
REMARK    7  A    between atoms: C_24  and  C_25
REMARK                            x       y       z     vdW  Elec       q    Type
REMARK                         _______ _______ _______ _____ _____    ______ ____
ROOT
ATOM      1  C   UNL     1      -1.057  11.863  22.586  0.00  0.00    +0.000 A 
ATOM      2  C   UNL     1      -1.179  10.631  23.204  0.00  0.00    +0.000 A 
ATOM      3  N   UNL     1      -0.551   9.497  22.821  0.00  0.00    +0.000 NA
ATOM      4  C   UNL     1       0.277   9.606  21.785  0.00  0.00    +0.000 A 
ATOM      5  N   UNL     1       0.994   8.478  21.436  0.00  0.00    +0.000 N 
ATOM      6  N   UNL     1       0.467  10.752  21.126  0.00  0.00    +0.000 NA
ATOM      7  C   UNL     1      -0.208  11.874  21.477  0.00  0.00    +0.000 A 
ATOM      8  H   UNL     1       0.417   7.660  21.590  0.00  0.00    +0.000 HD
ENDROOT
BRANCH   7   9
ATOM      9  C   UNL     1       0.101  13.044  20.593  0.00  0.00    +0.000 A 
ATOM     10  C   UNL     1       1.050  14.012  20.990  0.00  0.00    +0.000 A 
ATOM     11  C   UNL     1       1.239  15.212  20.295  0.00  0.00    +0.000 A 
ATOM     12  C   UNL     1       0.567  15.428  19.105  0.00  0.00    +0.000 A 
ATOM     13 CL   UNL     1       0.778  16.908  18.256  0.00  0.00    +0.000 Cl
ATOM     14  C   UNL     1      -0.277  14.449  18.601  0.00  0.00    +0.000 A 
ATOM     15  C   UNL     1      -0.523  13.279  19.341  0.00  0.00    +0.000 A 
ATOM     16 CL   UNL     1      -1.666  12.194  18.612  0.00  0.00    +0.000 Cl
ENDBRANCH   7   9
BRANCH   1  21
ATOM     17  C   UNL     1      -4.360  15.459  22.909  0.00  0.00    +0.000 C 
ATOM     18  C   UNL     1      -3.155  14.685  23.272  0.00  0.00    +0.000 A 
ATOM     19  C   UNL     1      -2.032  15.069  23.968  0.00  0.00    +0.000 A 
ATOM     20  N   UNL     1      -1.175  14.007  23.892  0.00  0.00    +0.000 N 
ATOM     21  C   UNL     1      -1.770  13.028  23.111  0.00  0.00    +0.000 A 
ATOM     22  N   UNL     1      -3.005  13.391  22.836  0.00  0.00    +0.000 NA
ATOM     23  H   UNL     1      -0.226  13.991  24.237  0.00  0.00    +0.000 HD
ENDBRANCH   1  21
BRANCH   5  24
ATOM     24  C   UNL     1       1.779   8.521  20.206  0.00  0.00    +0.000 C 
BRANCH  24  25
ATOM     25  C   UNL     1       2.227   7.105  19.783  0.00  0.00    +0.000 C 
BRANCH  25  26
ATOM     26  N   UNL     1       2.624   7.024  18.381  0.00  0.00    +0.000 N 
ATOM     27  C   UNL     1       3.844   6.403  18.123  0.00  0.00    +0.000 A 
ATOM     28  C   UNL     1       4.307   5.309  18.855  0.00  0.00    +0.000 A 
ATOM     29  C   UNL     1       5.515   4.702  18.515  0.00  0.00    +0.000 A 
ATOM     30  C   UNL     1       6.215   5.192  17.419  0.00  0.00    +0.000 A 
ATOM     31  C   UNL     1       5.697   6.273  16.729  0.00  0.00    +0.000 A 
ATOM     32  N   UNL     1       4.534   6.888  17.071  0.00  0.00    +0.000 NA
ATOM     33  H   UNL     1       2.643   7.912  17.880  0.00  0.00    +0.000 HD
BRANCH  30  34
ATOM     34  N   UNL     1       7.459   4.571  16.993  0.00  0.00    +0.000 N 
ATOM     35  O   UNL     1       7.666   4.474  15.777  0.00  0.00    +0.000 OA
ATOM     36  O   UNL     1       8.236   4.177  17.874  0.00  0.00    +0.000 OA
ENDBRANCH  30  34
ENDBRANCH  25  26
ENDBRANCH  24  25
ENDBRANCH   5  24
TORSDOF 6
ENDMDL
MODEL 6
REMARK VINA RESULT:      -7.8      3.610      4.758
REMARK  Name = 
REMARK  7 active torsions:
REMARK  status: ('A' for Active; 'I' for Inactive)
REMARK    1  A    between atoms: C_1  and  C_2
REMARK    2  A    between atoms: C_5  and  C_6
REMARK    3  A    between atoms: N_10  and  C_11
REMARK    4  A    between atoms: C_11  and  C_12
REMARK    5  A    between atoms: C_12  and  N_13
REMARK    6  A    between atoms: C_17  and  N_18
REMARK    7  A    between atoms: C_24  and  C_25
REMARK                            x       y       z     vdW  Elec       q    Type
REMARK                         _______ _______ _______ _____ _____    ______ ____
ROOT
ATOM      1  C   UNL     1      -3.203  11.699  18.950  0.00  0.00    +0.000 A 
ATOM      2  C   UNL     1      -3.200  10.915  17.809  0.00  0.00    +0.000 A 
ATOM      3  N   UNL     1      -2.125  10.270  17.305  0.00  0.00    +0.000 NA
ATOM      4  C   UNL     1      -0.995  10.382  17.999  0.00  0.00    +0.000 A 
ATOM      5  N   UNL     1       0.091   9.657  17.546  0.00  0.00    +0.000 N 
ATOM      6  N   UNL     1      -0.898  11.109  19.114  0.00  0.00    +0.000 NA
ATOM      7  C   UNL     1      -1.964  11.801  19.585  0.00  0.00    +0.000 A 
ATOM      8  H   UNL     1       0.072   9.633  16.534  0.00  0.00    +0.000 HD
ENDROOT
BRANCH   7   9
ATOM      9  C   UNL     1      -1.648  12.595  20.818  0.00  0.00    +0.000 A 
ATOM     10  C   UNL     1      -1.917  12.067  22.099  0.00  0.00    +0.000 A 
ATOM     11  C   UNL     1      -1.817  12.833  23.267  0.00  0.00    +0.000 A 
ATOM     12  C   UNL     1      -1.323  14.124  23.199  0.00  0.00    +0.000 A 
ATOM     13 CL   UNL     1      -1.216  15.078  24.625  0.00  0.00    +0.000 Cl
ATOM     14  C   UNL     1      -0.918  14.644  21.979  0.00  0.00    +0.000 A 
ATOM     15  C   UNL     1      -1.093  13.900  20.799  0.00  0.00    +0.000 A 
ATOM     16 CL   UNL     1      -0.612  14.726  19.349  0.00  0.00    +0.000 Cl
ENDBRANCH   7   9
BRANCH   1  21
ATOM     17  C   UNL     1      -7.366  12.347  21.436  0.00  0.00    +0.000 C 
ATOM     18  C   UNL     1      -6.329  12.638  20.425  0.00  0.00    +0.000 A 
ATOM     19  C   UNL     1      -6.408  13.363  19.259  0.00  0.00    +0.000 A 
ATOM     20  N   UNL     1      -5.201  13.192  18.641  0.00  0.00    +0.000 N 
ATOM     21  C   UNL     1      -4.441  12.327  19.413  0.00  0.00    +0.000 A 
ATOM     22  N   UNL     1      -5.076  12.088  20.540  0.00  0.00    +0.000 NA
ATOM     23  H   UNL     1      -4.957  13.532  17.721  0.00  0.00    +0.000 HD
ENDBRANCH   1  21
BRANCH   5  24
ATOM     24  C   UNL     1       1.383   9.890  18.186  0.00  0.00    +0.000 C 
BRANCH  24  25
ATOM     25  C   UNL     1       1.827   8.660  19.005  0.00  0.00    +0.000 C 
BRANCH  25  26
ATOM     26  N   UNL     1       2.188   7.517  18.174  0.00  0.00    +0.000 N 
ATOM     27  C   UNL     1       2.583   6.365  18.851  0.00  0.00    +0.000 A 
ATOM     28  C   UNL     1       2.012   5.963  20.060  0.00  0.00    +0.000 A 
ATOM     29  C   UNL     1       2.417   4.774  20.662  0.00  0.00    +0.000 A 
ATOM     30  C   UNL     1       3.367   3.994  20.013  0.00  0.00    +0.000 A 
ATOM     31  C   UNL     1       3.887   4.443  18.813  0.00  0.00    +0.000 A 
ATOM     32  N   UNL     1       3.518   5.616  18.232  0.00  0.00    +0.000 NA
ATOM     33  H   UNL     1       2.907   7.697  17.473  0.00  0.00    +0.000 HD
BRANCH  30  34
ATOM     34  N   UNL     1       3.796   2.723  20.574  0.00  0.00    +0.000 N 
ATOM     35  O   UNL     1       3.204   2.308  21.579  0.00  0.00    +0.000 OA
ATOM     36  O   UNL     1       4.729   2.133  20.013  0.00  0.00    +0.000 OA
ENDBRANCH  30  34
ENDBRANCH  25  26
ENDBRANCH  24  25
ENDBRANCH   5  24
TORSDOF 6
ENDMDL
MODEL 7
REMARK VINA RESULT:      -7.7      4.759     10.210
REMARK  Name = 
REMARK  7 active torsions:
REMARK  status: ('A' for Active; 'I' for Inactive)
REMARK    1  A    between atoms: C_1  and  C_2
REMARK    2  A    between atoms: C_5  and  C_6
REMARK    3  A    between atoms: N_10  and  C_11
REMARK    4  A    between atoms: C_11  and  C_12
REMARK    5  A    between atoms: C_12  and  N_13
REMARK    6  A    between atoms: C_17  and  N_18
REMARK    7  A    between atoms: C_24  and  C_25
REMARK                            x       y       z     vdW  Elec       q    Type
REMARK                         _______ _______ _______ _____ _____    ______ ____
ROOT
ATOM      1  C   UNL     1       4.902   3.909  16.339  0.00  0.00    +0.000 A 
ATOM      2  C   UNL     1       3.912   2.948  16.441  0.00  0.00    +0.000 A 
ATOM      3  N   UNL     1       3.158   2.714  17.538  0.00  0.00    +0.000 NA
ATOM      4  C   UNL     1       3.378   3.510  18.581  0.00  0.00    +0.000 A 
ATOM      5  N   UNL     1       2.556   3.342  19.679  0.00  0.00    +0.000 N 
ATOM      6  N   UNL     1       4.306   4.469  18.579  0.00  0.00    +0.000 NA
ATOM      7  C   UNL     1       5.099   4.664  17.497  0.00  0.00    +0.000 A 
ATOM      8  H   UNL     1       2.335   2.358  19.778  0.00  0.00    +0.000 HD
ENDROOT
BRANCH   7   9
ATOM      9  C   UNL     1       6.110   5.752  17.700  0.00  0.00    +0.000 A 
ATOM     10  C   UNL     1       7.217   5.552  18.554  0.00  0.00    +0.000 A 
ATOM     11  C   UNL     1       8.082   6.589  18.923  0.00  0.00    +0.000 A 
ATOM     12  C   UNL     1       7.938   7.839  18.347  0.00  0.00    +0.000 A 
ATOM     13 CL   UNL     1       8.984   9.122  18.809  0.00  0.00    +0.000 Cl
ATOM     14  C   UNL     1       6.948   8.052  17.399  0.00  0.00    +0.000 A 
ATOM     15  C   UNL     1       6.033   7.030  17.090  0.00  0.00    +0.000 A 
ATOM     16 CL   UNL     1       4.807   7.483  15.947  0.00  0.00    +0.000 Cl
ENDBRANCH   7   9
BRANCH   1  21
ATOM     17  C   UNL     1       6.371   3.141  11.735  0.00  0.00    +0.000 C 
ATOM     18  C   UNL     1       6.383   3.752  13.080  0.00  0.00    +0.000 A 
ATOM     19  C   UNL     1       7.398   4.390  13.754  0.00  0.00    +0.000 A 
ATOM     20  N   UNL     1       6.909   4.630  15.008  0.00  0.00    +0.000 N 
ATOM     21  C   UNL     1       5.636   4.086  15.085  0.00  0.00    +0.000 A 
ATOM     22  N   UNL     1       5.278   3.662  13.892  0.00  0.00    +0.000 NA
ATOM     23  H   UNL     1       7.432   5.020  15.779  0.00  0.00    +0.000 HD
ENDBRANCH   1  21
BRANCH   5  24
ATOM     24  C   UNL     1       2.880   4.082  20.895  0.00  0.00    +0.000 C 
BRANCH  24  25
ATOM     25  C   UNL     1       2.075   5.397  20.976  0.00  0.00    +0.000 C 
BRANCH  25  26
ATOM     26  N   UNL     1       2.645   6.470  20.168  0.00  0.00    +0.000 N 
ATOM     27  C   UNL     1       1.897   7.642  20.087  0.00  0.00    +0.000 A 
ATOM     28  C   UNL     1       1.153   8.142  21.157  0.00  0.00    +0.000 A 
ATOM     29  C   UNL     1       0.465   9.347  21.027  0.00  0.00    +0.000 A 
ATOM     30  C   UNL     1       0.570  10.042  19.828  0.00  0.00    +0.000 A 
ATOM     31  C   UNL     1       1.331   9.497  18.810  0.00  0.00    +0.000 A 
ATOM     32  N   UNL     1       1.982   8.309  18.918  0.00  0.00    +0.000 NA
ATOM     33  H   UNL     1       2.883   6.215  19.210  0.00  0.00    +0.000 HD
BRANCH  30  34
ATOM     34  N   UNL     1      -0.092  11.324  19.651  0.00  0.00    +0.000 N 
ATOM     35  O   UNL     1      -0.582  11.570  18.541  0.00  0.00    +0.000 OA
ATOM     36  O   UNL     1      -0.124  12.093  20.621  0.00  0.00    +0.000 OA
ENDBRANCH  30  34
ENDBRANCH  25  26
ENDBRANCH  24  25
ENDBRANCH   5  24
TORSDOF 6
ENDMDL
MODEL 8
REMARK VINA RESULT:      -7.6      5.573     11.051
REMARK  Name = 
REMARK  7 active torsions:
REMARK  status: ('A' for Active; 'I' for Inactive)
REMARK    1  A    between atoms: C_1  and  C_2
REMARK    2  A    between atoms: C_5  and  C_6
REMARK    3  A    between atoms: N_10  and  C_11
REMARK    4  A    between atoms: C_11  and  C_12
REMARK    5  A    between atoms: C_12  and  N_13
REMARK    6  A    between atoms: C_17  and  N_18
REMARK    7  A    between atoms: C_24  and  C_25
REMARK                            x       y       z     vdW  Elec       q    Type
REMARK                         _______ _______ _______ _____ _____    ______ ____
ROOT
ATOM      1  C   UNL     1       3.619   6.838  17.804  0.00  0.00    +0.000 A 
ATOM      2  C   UNL     1       3.715   8.057  17.157  0.00  0.00    +0.000 A 
ATOM      3  N   UNL     1       2.887   9.109  17.342  0.00  0.00    +0.000 NA
ATOM      4  C   UNL     1       1.929   8.949  18.252  0.00  0.00    +0.000 A 
ATOM      5  N   UNL     1       1.130  10.044  18.516  0.00  0.00    +0.000 N 
ATOM      6  N   UNL     1       1.758   7.814  18.933  0.00  0.00    +0.000 NA
ATOM      7  C   UNL     1       2.555   6.742  18.704  0.00  0.00    +0.000 A 
ATOM      8  H   UNL     1       0.987  10.563  17.658  0.00  0.00    +0.000 HD
ENDROOT
BRANCH   7   9
ATOM      9  C   UNL     1       2.179   5.546  19.527  0.00  0.00    +0.000 A 
ATOM     10  C   UNL     1       2.397   5.539  20.922  0.00  0.00    +0.000 A 
ATOM     11  C   UNL     1       2.239   4.389  21.704  0.00  0.00    +0.000 A 
ATOM     12  C   UNL     1       1.736   3.234  21.131  0.00  0.00    +0.000 A 
ATOM     13 CL   UNL     1       1.558   1.812  22.080  0.00  0.00    +0.000 Cl
ATOM     14  C   UNL     1       1.378   3.228  19.791  0.00  0.00    +0.000 A 
ATOM     15  C   UNL     1       1.612   4.362  18.992  0.00  0.00    +0.000 A 
ATOM     16 CL   UNL     1       1.186   4.163  17.320  0.00  0.00    +0.000 Cl
ENDBRANCH   7   9
BRANCH   1  21
ATOM     17  C   UNL     1       7.888   4.449  17.729  0.00  0.00    +0.000 C 
ATOM     18  C   UNL     1       6.469   4.704  17.407  0.00  0.00    +0.000 A 
ATOM     19  C   UNL     1       5.703   4.247  16.360  0.00  0.00    +0.000 A 
ATOM     20  N   UNL     1       4.508   4.903  16.469  0.00  0.00    +0.000 N 
ATOM     21  C   UNL     1       4.595   5.780  17.540  0.00  0.00    +0.000 A 
ATOM     22  N   UNL     1       5.730   5.575  18.171  0.00  0.00    +0.000 NA
ATOM     23  H   UNL     1       3.746   4.851  15.808  0.00  0.00    +0.000 HD
ENDBRANCH   1  21
BRANCH   5  24
ATOM     24  C   UNL     1      -0.030   9.851  19.382  0.00  0.00    +0.000 C 
BRANCH  24  25
ATOM     25  C   UNL     1       0.027  10.791  20.605  0.00  0.00    +0.000 C 
BRANCH  25  26
ATOM     26  N   UNL     1      -0.766  12.004  20.434  0.00  0.00    +0.000 N 
ATOM     27  C   UNL     1      -1.823  12.178  21.323  0.00  0.00    +0.000 A 
ATOM     28  C   UNL     1      -1.759  11.789  22.662  0.00  0.00    +0.000 A 
ATOM     29  C   UNL     1      -2.835  12.036  23.513  0.00  0.00    +0.000 A 
ATOM     30  C   UNL     1      -3.942  12.703  23.003  0.00  0.00    +0.000 A 
ATOM     31  C   UNL     1      -3.939  13.071  21.669  0.00  0.00    +0.000 A 
ATOM     32  N   UNL     1      -2.906  12.809  20.825  0.00  0.00    +0.000 NA
ATOM     33  H   UNL     1      -1.151  12.146  19.500  0.00  0.00    +0.000 HD
BRANCH  30  34
ATOM     34  N   UNL     1      -5.075  13.025  23.855  0.00  0.00    +0.000 N 
ATOM     35  O   UNL     1      -5.526  14.176  23.803  0.00  0.00    +0.000 OA
ATOM     36  O   UNL     1      -5.521  12.126  24.582  0.00  0.00    +0.000 OA
ENDBRANCH  30  34
ENDBRANCH  25  26
ENDBRANCH  24  25
ENDBRANCH   5  24
TORSDOF 6
ENDMDL
MODEL 9
REMARK VINA RESULT:      -7.6      2.250      3.116
REMARK  Name = 
REMARK  7 active torsions:
REMARK  status: ('A' for Active; 'I' for Inactive)
REMARK    1  A    between atoms: C_1  and  C_2
REMARK    2  A    between atoms: C_5  and  C_6
REMARK    3  A    between atoms: N_10  and  C_11
REMARK    4  A    between atoms: C_11  and  C_12
REMARK    5  A    between atoms: C_12  and  N_13
REMARK    6  A    between atoms: C_17  and  N_18
REMARK    7  A    between atoms: C_24  and  C_25
REMARK                            x       y       z     vdW  Elec       q    Type
REMARK                         _______ _______ _______ _____ _____    ______ ____
ROOT
ATOM      1  C   UNL     1      -0.814  11.281  21.368  0.00  0.00    +0.000 A 
ATOM      2  C   UNL     1      -0.033  10.868  22.434  0.00  0.00    +0.000 A 
ATOM      3  N   UNL     1       0.751   9.767  22.449  0.00  0.00    +0.000 NA
ATOM      4  C   UNL     1       0.789   9.058  21.323  0.00  0.00    +0.000 A 
ATOM      5  N   UNL     1       1.654   7.981  21.293  0.00  0.00    +0.000 N 
ATOM      6  N   UNL     1       0.078   9.378  20.240  0.00  0.00    +0.000 NA
ATOM      7  C   UNL     1      -0.751  10.451  20.248  0.00  0.00    +0.000 A 
ATOM      8  H   UNL     1       1.678   7.552  22.210  0.00  0.00    +0.000 HD
ENDROOT
BRANCH   7   9
ATOM      9  C   UNL     1      -1.500  10.621  18.960  0.00  0.00    +0.000 A 
ATOM     10  C   UNL     1      -2.505   9.701  18.588  0.00  0.00    +0.000 A 
ATOM     11  C   UNL     1      -3.101   9.706  17.321  0.00  0.00    +0.000 A 
ATOM     12  C   UNL     1      -2.794  10.715  16.424  0.00  0.00    +0.000 A 
ATOM     13 CL   UNL     1      -3.506  10.717  14.859  0.00  0.00    +0.000 Cl
ATOM     14  C   UNL     1      -1.912  11.720  16.791  0.00  0.00    +0.000 A 
ATOM     15  C   UNL     1      -1.258  11.668  18.035  0.00  0.00    +0.000 A 
ATOM     16 CL   UNL     1      -0.124  12.956  18.306  0.00  0.00    +0.000 Cl
ENDBRANCH   7   9
BRANCH   1  21
ATOM     17  C   UNL     1      -4.607  14.341  20.937  0.00  0.00    +0.000 C 
ATOM     18  C   UNL     1      -3.218  13.933  21.231  0.00  0.00    +0.000 A 
ATOM     19  C   UNL     1      -2.065  14.682  21.267  0.00  0.00    +0.000 A 
ATOM     20  N   UNL     1      -1.051  13.782  21.448  0.00  0.00    +0.000 N 
ATOM     21  C   UNL     1      -1.603  12.510  21.462  0.00  0.00    +0.000 A 
ATOM     22  N   UNL     1      -2.914  12.611  21.448  0.00  0.00    +0.000 NA
ATOM     23  H   UNL     1      -0.065  13.998  21.442  0.00  0.00    +0.000 HD
ENDBRANCH   1  21
BRANCH   5  24
ATOM     24  C   UNL     1       1.593   7.089  20.138  0.00  0.00    +0.000 C 
BRANCH  24  25
ATOM     25  C   UNL     1       2.935   7.076  19.375  0.00  0.00    +0.000 C 
BRANCH  25  26
ATOM     26  N   UNL     1       3.449   5.731  19.140  0.00  0.00    +0.000 N 
ATOM     27  C   UNL     1       4.228   5.562  17.998  0.00  0.00    +0.000 A 
ATOM     28  C   UNL     1       5.107   6.539  17.528  0.00  0.00    +0.000 A 
ATOM     29  C   UNL     1       5.895   6.288  16.406  0.00  0.00    +0.000 A 
ATOM     30  C   UNL     1       5.805   5.040  15.801  0.00  0.00    +0.000 A 
ATOM     31  C   UNL     1       4.922   4.112  16.321  0.00  0.00    +0.000 A 
ATOM     32  N   UNL     1       4.129   4.358  17.398  0.00  0.00    +0.000 NA
ATOM     33  H   UNL     1       2.746   4.993  19.119  0.00  0.00    +0.000 HD
BRANCH  30  34
ATOM     34  N   UNL     1       6.634   4.708  14.653  0.00  0.00    +0.000 N 
ATOM     35  O   UNL     1       6.302   3.733  13.966  0.00  0.00    +0.000 OA
ATOM     36  O   UNL     1       7.623   5.421  14.434  0.00  0.00    +0.000 OA
ENDBRANCH  30  34
ENDBRANCH  25  26
ENDBRANCH  24  25
ENDBRANCH   5  24
TORSDOF 6
ENDMDL
