MODEL 1
REMARK VINA RESULT:      -6.8      0.000      0.000
REMARK  Name = 
REMARK  10 active torsions:
REMARK  status: ('A' for Active; 'I' for Inactive)
REMARK    1  A    between atoms: C_1  and  O_2
REMARK    2  A    between atoms: O_2  and  C_3
REMARK    3  A    between atoms: C_3  and  C_5
REMARK    4  A    between atoms: C_5  and  C_6
REMARK    5  A    between atoms: C_7  and  C_8
REMARK    6  A    between atoms: C_8  and  O_9
REMARK    7  A    between atoms: O_9  and  C_10
REMARK    8  A    between atoms: C_13  and  C_14
REMARK    9  A    between atoms: C_14  and  O_16
REMARK   10  A    between atoms: O_16  and  C_17
REMARK                            x       y       z     vdW  Elec       q    Type
REMARK                         _______ _______ _______ _____ _____    ______ ____
ROOT
ATOM      1  C   UNL     1       4.602   5.786  18.451  0.00  0.00    +0.000 A 
ATOM      2  C   UNL     1       4.384   6.441  17.235  0.00  0.00    +0.000 A 
ATOM      3  C   UNL     1       5.131   6.098  16.109  0.00  0.00    +0.000 A 
ATOM      4  C   UNL     1       6.134   5.125  16.191  0.00  0.00    +0.000 A 
ATOM      5  C   UNL     1       6.396   4.512  17.423  0.00  0.00    +0.000 A 
ATOM      6  C   UNL     1       5.632   4.848  18.549  0.00  0.00    +0.000 A 
ENDROOT
BRANCH   4   7
ATOM      7  C   UNL     1       6.867   4.795  14.940  0.00  0.00    +0.000 C 
ATOM      8  O   UNL     1       7.775   5.484  14.499  0.00  0.00    +0.000 OA
BRANCH   7   9
ATOM      9  O   UNL     1       6.396   3.654  14.382  0.00  0.00    +0.000 OA
ATOM     10  C   UNL     1       6.281   3.730  12.959  0.00  0.00    +0.000 C 
ENDBRANCH   7   9
ENDBRANCH   4   7
BRANCH   1  11
ATOM     11  O   UNL     1       3.859   5.987  19.585  0.00  0.00    +0.000 OA
BRANCH  11  12
ATOM     12  C   UNL     1       2.449   6.054  19.363  0.00  0.00    +0.000 C 
BRANCH  12  15
ATOM     13  C   UNL     1       1.706   3.664  19.720  0.00  0.00    +0.000 C 
ATOM     14  C   UNL     1       1.839   3.727  21.215  0.00  0.00    +0.000 C 
ATOM     15  C   UNL     1       1.957   4.714  18.909  0.00  0.00    +0.000 C 
BRANCH  13  16
ATOM     16  C   UNL     1       1.297   2.391  19.064  0.00  0.00    +0.000 C 
ATOM     17  O   UNL     1       0.235   2.223  18.485  0.00  0.00    +0.000 OA
BRANCH  16  19
ATOM     18  C   UNL     1       3.372   1.636  18.294  0.00  0.00    +0.000 C 
ATOM     19  O   UNL     1       2.279   1.465  19.195  0.00  0.00    +0.000 OA
ENDBRANCH  16  19
ENDBRANCH  13  16
ENDBRANCH  12  15
ENDBRANCH  11  12
ENDBRANCH   1  11
TORSDOF 7
ENDMDL
MODEL 2
REMARK VINA RESULT:      -6.7      0.424      1.171
REMARK  Name = 
REMARK  10 active torsions:
REMARK  status: ('A' for Active; 'I' for Inactive)
REMARK    1  A    between atoms: C_1  and  O_2
REMARK    2  A    between atoms: O_2  and  C_3
REMARK    3  A    between atoms: C_3  and  C_5
REMARK    4  A    between atoms: C_5  and  C_6
REMARK    5  A    between atoms: C_7  and  C_8
REMARK    6  A    between atoms: C_8  and  O_9
REMARK    7  A    between atoms: O_9  and  C_10
REMARK    8  A    between atoms: C_13  and  C_14
REMARK    9  A    between atoms: C_14  and  O_16
REMARK   10  A    between atoms: O_16  and  C_17
REMARK                            x       y       z     vdW  Elec       q    Type
REMARK                         _______ _______ _______ _____ _____    ______ ____
ROOT
ATOM      1  C   UNL     1       4.717   5.631  18.110  0.00  0.00    +0.000 A 
ATOM      2  C   UNL     1       5.529   4.504  17.961  0.00  0.00    +0.000 A 
ATOM      3  C   UNL     1       6.196   4.273  16.759  0.00  0.00    +0.000 A 
ATOM      4  C   UNL     1       6.030   5.143  15.675  0.00  0.00    +0.000 A 
ATOM      5  C   UNL     1       5.167   6.239  15.802  0.00  0.00    +0.000 A 
ATOM      6  C   UNL     1       4.511   6.476  17.017  0.00  0.00    +0.000 A 
ENDROOT
BRANCH   4   7
ATOM      7  C   UNL     1       6.797   4.844  14.437  0.00  0.00    +0.000 C 
ATOM      8  O   UNL     1       7.814   5.445  14.122  0.00  0.00    +0.000 OA
BRANCH   7   9
ATOM      9  O   UNL     1       6.223   3.838  13.736  0.00  0.00    +0.000 OA
ATOM     10  C   UNL     1       6.683   3.761  12.385  0.00  0.00    +0.000 C 
ENDBRANCH   7   9
ENDBRANCH   4   7
BRANCH   1  11
ATOM     11  O   UNL     1       4.096   5.992  19.277  0.00  0.00    +0.000 OA
BRANCH  11  12
ATOM     12  C   UNL     1       2.674   6.093  19.183  0.00  0.00    +0.000 C 
BRANCH  12  15
ATOM     13  C   UNL     1       1.742   3.796  19.678  0.00  0.00    +0.000 C 
ATOM     14  C   UNL     1       1.803   3.969  21.169  0.00  0.00    +0.000 C 
ATOM     15  C   UNL     1       2.109   4.758  18.805  0.00  0.00    +0.000 C 
BRANCH  13  16
ATOM     16  C   UNL     1       1.274   2.505  19.098  0.00  0.00    +0.000 C 
ATOM     17  O   UNL     1       0.194   2.345  18.553  0.00  0.00    +0.000 OA
BRANCH  16  19
ATOM     18  C   UNL     1       3.279   1.610  18.291  0.00  0.00    +0.000 C 
ATOM     19  O   UNL     1       2.228   1.554  19.256  0.00  0.00    +0.000 OA
ENDBRANCH  16  19
ENDBRANCH  13  16
ENDBRANCH  12  15
ENDBRANCH  11  12
ENDBRANCH   1  11
TORSDOF 7
ENDMDL
MODEL 3
REMARK VINA RESULT:      -6.7      1.105      1.704
REMARK  Name = 
REMARK  10 active torsions:
REMARK  status: ('A' for Active; 'I' for Inactive)
REMARK    1  A    between atoms: C_1  and  O_2
REMARK    2  A    between atoms: O_2  and  C_3
REMARK    3  A    between atoms: C_3  and  C_5
REMARK    4  A    between atoms: C_5  and  C_6
REMARK    5  A    between atoms: C_7  and  C_8
REMARK    6  A    between atoms: C_8  and  O_9
REMARK    7  A    between atoms: O_9  and  C_10
REMARK    8  A    between atoms: C_13  and  C_14
REMARK    9  A    between atoms: C_14  and  O_16
REMARK   10  A    between atoms: O_16  and  C_17
REMARK                            x       y       z     vdW  Elec       q    Type
REMARK                         _______ _______ _______ _____ _____    ______ ____
ROOT
ATOM      1  C   UNL     1       3.732   6.244  18.969  0.00  0.00    +0.000 A 
ATOM      2  C   UNL     1       4.681   5.315  19.402  0.00  0.00    +0.000 A 
ATOM      3  C   UNL     1       5.735   4.946  18.568  0.00  0.00    +0.000 A 
ATOM      4  C   UNL     1       5.834   5.470  17.273  0.00  0.00    +0.000 A 
ATOM      5  C   UNL     1       4.849   6.355  16.815  0.00  0.00    +0.000 A 
ATOM      6  C   UNL     1       3.800   6.735  17.662  0.00  0.00    +0.000 A 
ENDROOT
BRANCH   4   7
ATOM      7  C   UNL     1       7.001   5.050  16.455  0.00  0.00    +0.000 C 
ATOM      8  O   UNL     1       7.916   4.371  16.899  0.00  0.00    +0.000 OA
BRANCH   7   9
ATOM      9  O   UNL     1       6.904   5.513  15.186  0.00  0.00    +0.000 OA
ATOM     10  C   UNL     1       6.720   4.475  14.221  0.00  0.00    +0.000 C 
ENDBRANCH   7   9
ENDBRANCH   4   7
BRANCH   1  11
ATOM     11  O   UNL     1       2.716   6.738  19.746  0.00  0.00    +0.000 OA
BRANCH  11  12
ATOM     12  C   UNL     1       1.947   5.738  20.417  0.00  0.00    +0.000 C 
BRANCH  12  15
ATOM     13  C   UNL     1       1.472   3.359  19.707  0.00  0.00    +0.000 C 
ATOM     14  C   UNL     1       1.724   2.782  21.070  0.00  0.00    +0.000 C 
ATOM     15  C   UNL     1       1.551   4.680  19.435  0.00  0.00    +0.000 C 
BRANCH  13  16
ATOM     16  C   UNL     1       1.134   2.458  18.570  0.00  0.00    +0.000 C 
ATOM     17  O   UNL     1       0.097   1.819  18.480  0.00  0.00    +0.000 OA
BRANCH  16  19
ATOM     18  C   UNL     1       3.310   1.767  18.063  0.00  0.00    +0.000 C 
ATOM     19  O   UNL     1       2.135   2.468  17.655  0.00  0.00    +0.000 OA
ENDBRANCH  16  19
ENDBRANCH  13  16
ENDBRANCH  12  15
ENDBRANCH  11  12
ENDBRANCH   1  11
TORSDOF 7
ENDMDL
MODEL 4
REMARK VINA RESULT:      -6.6      0.691      1.051
REMARK  Name = 
REMARK  10 active torsions:
REMARK  status: ('A' for Active; 'I' for Inactive)
REMARK    1  A    between atoms: C_1  and  O_2
REMARK    2  A    between atoms: O_2  and  C_3
REMARK    3  A    between atoms: C_3  and  C_5
REMARK    4  A    between atoms: C_5  and  C_6
REMARK    5  A    between atoms: C_7  and  C_8
REMARK    6  A    between atoms: C_8  and  O_9
REMARK    7  A    between atoms: O_9  and  C_10
REMARK    8  A    between atoms: C_13  and  C_14
REMARK    9  A    between atoms: C_14  and  O_16
REMARK   10  A    between atoms: O_16  and  C_17
REMARK                            x       y       z     vdW  Elec       q    Type
REMARK                         _______ _______ _______ _____ _____    ______ ____
ROOT
ATOM      1  C   UNL     1       5.051   5.633  18.431  0.00  0.00    +0.000 A 
ATOM      2  C   UNL     1       4.637   6.393  17.334  0.00  0.00    +0.000 A 
ATOM      3  C   UNL     1       5.157   6.139  16.066  0.00  0.00    +0.000 A 
ATOM      4  C   UNL     1       6.130   5.149  15.883  0.00  0.00    +0.000 A 
ATOM      5  C   UNL     1       6.592   4.429  16.991  0.00  0.00    +0.000 A 
ATOM      6  C   UNL     1       6.054   4.676  18.261  0.00  0.00    +0.000 A 
ENDROOT
BRANCH   4   7
ATOM      7  C   UNL     1       6.615   4.920  14.496  0.00  0.00    +0.000 C 
ATOM      8  O   UNL     1       7.662   5.385  14.071  0.00  0.00    +0.000 OA
BRANCH   7   9
ATOM      9  O   UNL     1       5.753   4.142  13.798  0.00  0.00    +0.000 OA
ATOM     10  C   UNL     1       6.347   3.538  12.647  0.00  0.00    +0.000 C 
ENDBRANCH   7   9
ENDBRANCH   4   7
BRANCH   1  11
ATOM     11  O   UNL     1       4.531   5.745  19.694  0.00  0.00    +0.000 OA
BRANCH  11  12
ATOM     12  C   UNL     1       3.103   5.757  19.746  0.00  0.00    +0.000 C 
BRANCH  12  15
ATOM     13  C   UNL     1       1.827   3.839  18.707  0.00  0.00    +0.000 C 
ATOM     14  C   UNL     1       1.422   4.620  17.490  0.00  0.00    +0.000 C 
ATOM     15  C   UNL     1       2.596   4.349  19.693  0.00  0.00    +0.000 C 
BRANCH  13  16
ATOM     16  C   UNL     1       1.360   2.434  18.877  0.00  0.00    +0.000 C 
ATOM     17  O   UNL     1       0.206   2.067  18.727  0.00  0.00    +0.000 OA
BRANCH  16  19
ATOM     18  C   UNL     1       3.441   1.588  18.225  0.00  0.00    +0.000 C 
ATOM     19  O   UNL     1       2.406   1.635  19.207  0.00  0.00    +0.000 OA
ENDBRANCH  16  19
ENDBRANCH  13  16
ENDBRANCH  12  15
ENDBRANCH  11  12
ENDBRANCH   1  11
TORSDOF 7
ENDMDL
MODEL 5
REMARK VINA RESULT:      -6.6      1.089      1.207
REMARK  Name = 
REMARK  10 active torsions:
REMARK  status: ('A' for Active; 'I' for Inactive)
REMARK    1  A    between atoms: C_1  and  O_2
REMARK    2  A    between atoms: O_2  and  C_3
REMARK    3  A    between atoms: C_3  and  C_5
REMARK    4  A    between atoms: C_5  and  C_6
REMARK    5  A    between atoms: C_7  and  C_8
REMARK    6  A    between atoms: C_8  and  O_9
REMARK    7  A    between atoms: O_9  and  C_10
REMARK    8  A    between atoms: C_13  and  C_14
REMARK    9  A    between atoms: C_14  and  O_16
REMARK   10  A    between atoms: O_16  and  C_17
REMARK                            x       y       z     vdW  Elec       q    Type
REMARK                         _______ _______ _______ _____ _____    ______ ____
ROOT
ATOM      1  C   UNL     1       3.674   6.315  18.902  0.00  0.00    +0.000 A 
ATOM      2  C   UNL     1       3.756   6.619  17.541  0.00  0.00    +0.000 A 
ATOM      3  C   UNL     1       4.702   5.987  16.735  0.00  0.00    +0.000 A 
ATOM      4  C   UNL     1       5.606   5.071  17.286  0.00  0.00    +0.000 A 
ATOM      5  C   UNL     1       5.567   4.811  18.662  0.00  0.00    +0.000 A 
ATOM      6  C   UNL     1       4.604   5.438  19.465  0.00  0.00    +0.000 A 
ENDROOT
BRANCH   4   7
ATOM      7  C   UNL     1       6.565   4.418  16.357  0.00  0.00    +0.000 C 
ATOM      8  O   UNL     1       7.778   4.521  16.469  0.00  0.00    +0.000 OA
BRANCH   7   9
ATOM      9  O   UNL     1       5.917   3.713  15.399  0.00  0.00    +0.000 OA
ATOM     10  C   UNL     1       6.376   4.005  14.078  0.00  0.00    +0.000 C 
ENDBRANCH   7   9
ENDBRANCH   4   7
BRANCH   1  11
ATOM     11  O   UNL     1       2.722   6.813  19.754  0.00  0.00    +0.000 OA
BRANCH  11  12
ATOM     12  C   UNL     1       1.930   5.815  20.401  0.00  0.00    +0.000 C 
BRANCH  12  15
ATOM     13  C   UNL     1       1.357   3.456  19.698  0.00  0.00    +0.000 C 
ATOM     14  C   UNL     1       1.428   2.903  21.093  0.00  0.00    +0.000 C 
ATOM     15  C   UNL     1       1.559   4.759  19.407  0.00  0.00    +0.000 C 
BRANCH  13  16
ATOM     16  C   UNL     1       1.071   2.547  18.552  0.00  0.00    +0.000 C 
ATOM     17  O   UNL     1       0.089   1.826  18.472  0.00  0.00    +0.000 OA
BRANCH  16  19
ATOM     18  C   UNL     1       3.249   1.952  17.941  0.00  0.00    +0.000 C 
ATOM     19  O   UNL     1       2.049   2.655  17.619  0.00  0.00    +0.000 OA
ENDBRANCH  16  19
ENDBRANCH  13  16
ENDBRANCH  12  15
ENDBRANCH  11  12
ENDBRANCH   1  11
TORSDOF 7
ENDMDL
MODEL 6
REMARK VINA RESULT:      -6.4      2.370      3.646
REMARK  Name = 
REMARK  10 active torsions:
REMARK  status: ('A' for Active; 'I' for Inactive)
REMARK    1  A    between atoms: C_1  and  O_2
REMARK    2  A    between atoms: O_2  and  C_3
REMARK    3  A    between atoms: C_3  and  C_5
REMARK    4  A    between atoms: C_5  and  C_6
REMARK    5  A    between atoms: C_7  and  C_8
REMARK    6  A    between atoms: C_8  and  O_9
REMARK    7  A    between atoms: O_9  and  C_10
REMARK    8  A    between atoms: C_13  and  C_14
REMARK    9  A    between atoms: C_14  and  O_16
REMARK   10  A    between atoms: O_16  and  C_17
REMARK                            x       y       z     vdW  Elec       q    Type
REMARK                         _______ _______ _______ _____ _____    ______ ____
ROOT
ATOM      1  C   UNL     1       4.250   4.263  17.031  0.00  0.00    +0.000 A 
ATOM      2  C   UNL     1       5.577   3.915  16.766  0.00  0.00    +0.000 A 
ATOM      3  C   UNL     1       6.611   4.796  17.078  0.00  0.00    +0.000 A 
ATOM      4  C   UNL     1       6.330   6.055  17.623  0.00  0.00    +0.000 A 
ATOM      5  C   UNL     1       4.996   6.431  17.831  0.00  0.00    +0.000 A 
ATOM      6  C   UNL     1       3.962   5.535  17.530  0.00  0.00    +0.000 A 
ENDROOT
BRANCH   4   7
ATOM      7  C   UNL     1       7.487   6.927  17.955  0.00  0.00    +0.000 C 
ATOM      8  O   UNL     1       8.274   6.676  18.856  0.00  0.00    +0.000 OA
BRANCH   7   9
ATOM      9  O   UNL     1       7.540   8.005  17.137  0.00  0.00    +0.000 OA
ATOM     10  C   UNL     1       8.069   9.170  17.774  0.00  0.00    +0.000 C 
ENDBRANCH   7   9
ENDBRANCH   4   7
BRANCH   1  11
ATOM     11  O   UNL     1       3.177   3.430  16.845  0.00  0.00    +0.000 OA
BRANCH  11  12
ATOM     12  C   UNL     1       3.208   2.242  17.639  0.00  0.00    +0.000 C 
BRANCH  12  15
ATOM     13  C   UNL     1       1.838   2.802  19.688  0.00  0.00    +0.000 C 
ATOM     14  C   UNL     1       0.518   2.619  18.994  0.00  0.00    +0.000 C 
ATOM     15  C   UNL     1       3.028   2.606  19.080  0.00  0.00    +0.000 C 
BRANCH  13  16
ATOM     16  C   UNL     1       1.874   3.236  21.113  0.00  0.00    +0.000 C 
ATOM     17  O   UNL     1       1.438   2.580  22.045  0.00  0.00    +0.000 OA
BRANCH  16  19
ATOM     18  C   UNL     1       1.659   5.542  20.785  0.00  0.00    +0.000 C 
ATOM     19  O   UNL     1       2.472   4.449  21.213  0.00  0.00    +0.000 OA
ENDBRANCH  16  19
ENDBRANCH  13  16
ENDBRANCH  12  15
ENDBRANCH  11  12
ENDBRANCH   1  11
TORSDOF 7
ENDMDL
MODEL 7
REMARK VINA RESULT:      -6.4      2.459      3.489
REMARK  Name = 
REMARK  10 active torsions:
REMARK  status: ('A' for Active; 'I' for Inactive)
REMARK    1  A    between atoms: C_1  and  O_2
REMARK    2  A    between atoms: O_2  and  C_3
REMARK    3  A    between atoms: C_3  and  C_5
REMARK    4  A    between atoms: C_5  and  C_6
REMARK    5  A    between atoms: C_7  and  C_8
REMARK    6  A    between atoms: C_8  and  O_9
REMARK    7  A    between atoms: O_9  and  C_10
REMARK    8  A    between atoms: C_13  and  C_14
REMARK    9  A    between atoms: C_14  and  O_16
REMARK   10  A    between atoms: O_16  and  C_17
REMARK                            x       y       z     vdW  Elec       q    Type
REMARK                         _______ _______ _______ _____ _____    ______ ____
ROOT
ATOM      1  C   UNL     1       4.077   4.399  17.092  0.00  0.00    +0.000 A 
ATOM      2  C   UNL     1       3.925   5.745  17.433  0.00  0.00    +0.000 A 
ATOM      3  C   UNL     1       5.043   6.528  17.719  0.00  0.00    +0.000 A 
ATOM      4  C   UNL     1       6.325   5.966  17.708  0.00  0.00    +0.000 A 
ATOM      5  C   UNL     1       6.474   4.602  17.428  0.00  0.00    +0.000 A 
ATOM      6  C   UNL     1       5.349   3.823  17.125  0.00  0.00    +0.000 A 
ENDROOT
BRANCH   4   7
ATOM      7  C   UNL     1       7.468   6.872  17.996  0.00  0.00    +0.000 C 
ATOM      8  O   UNL     1       8.297   6.644  18.865  0.00  0.00    +0.000 OA
BRANCH   7   9
ATOM      9  O   UNL     1       7.456   7.952  17.179  0.00  0.00    +0.000 OA
ATOM     10  C   UNL     1       8.002   9.124  17.786  0.00  0.00    +0.000 C 
ENDBRANCH   7   9
ENDBRANCH   4   7
BRANCH   1  11
ATOM     11  O   UNL     1       3.052   3.575  16.706  0.00  0.00    +0.000 OA
BRANCH  11  12
ATOM     12  C   UNL     1       2.883   2.418  17.527  0.00  0.00    +0.000 C 
BRANCH  12  15
ATOM     13  C   UNL     1       2.620   2.808  20.011  0.00  0.00    +0.000 C 
ATOM     14  C   UNL     1       4.055   2.493  20.326  0.00  0.00    +0.000 C 
ATOM     15  C   UNL     1       2.117   2.795  18.758  0.00  0.00    +0.000 C 
BRANCH  13  16
ATOM     16  C   UNL     1       1.673   3.139  21.112  0.00  0.00    +0.000 C 
ATOM     17  O   UNL     1       1.573   2.505  22.150  0.00  0.00    +0.000 OA
BRANCH  16  19
ATOM     18  C   UNL     1       1.716   5.458  20.807  0.00  0.00    +0.000 C 
ATOM     19  O   UNL     1       0.959   4.247  20.793  0.00  0.00    +0.000 OA
ENDBRANCH  16  19
ENDBRANCH  13  16
ENDBRANCH  12  15
ENDBRANCH  11  12
ENDBRANCH   1  11
TORSDOF 7
ENDMDL
MODEL 8
REMARK VINA RESULT:      -6.3      2.692      6.885
REMARK  Name = 
REMARK  10 active torsions:
REMARK  status: ('A' for Active; 'I' for Inactive)
REMARK    1  A    between atoms: C_1  and  O_2
REMARK    2  A    between atoms: O_2  and  C_3
REMARK    3  A    between atoms: C_3  and  C_5
REMARK    4  A    between atoms: C_5  and  C_6
REMARK    5  A    between atoms: C_7  and  C_8
REMARK    6  A    between atoms: C_8  and  O_9
REMARK    7  A    between atoms: O_9  and  C_10
REMARK    8  A    between atoms: C_13  and  C_14
REMARK    9  A    between atoms: C_14  and  O_16
REMARK   10  A    between atoms: O_16  and  C_17
REMARK                            x       y       z     vdW  Elec       q    Type
REMARK                         _______ _______ _______ _____ _____    ______ ____
ROOT
ATOM      1  C   UNL     1       4.457   4.050  16.889  0.00  0.00    +0.000 A 
ATOM      2  C   UNL     1       3.611   5.068  17.338  0.00  0.00    +0.000 A 
ATOM      3  C   UNL     1       2.524   4.768  18.157  0.00  0.00    +0.000 A 
ATOM      4  C   UNL     1       2.243   3.442  18.508  0.00  0.00    +0.000 A 
ATOM      5  C   UNL     1       3.053   2.414  18.008  0.00  0.00    +0.000 A 
ATOM      6  C   UNL     1       4.154   2.722  17.197  0.00  0.00    +0.000 A 
ENDROOT
BRANCH   4   7
ATOM      7  C   UNL     1       1.083   3.207  19.408  0.00  0.00    +0.000 C 
ATOM      8  O   UNL     1       0.161   2.456  19.125  0.00  0.00    +0.000 OA
BRANCH   7   9
ATOM      9  O   UNL     1       1.198   3.923  20.552  0.00  0.00    +0.000 OA
ATOM     10  C   UNL     1       1.875   3.215  21.593  0.00  0.00    +0.000 C 
ENDBRANCH   7   9
ENDBRANCH   4   7
BRANCH   1  11
ATOM     11  O   UNL     1       5.599   4.254  16.159  0.00  0.00    +0.000 OA
BRANCH  11  12
ATOM     12  C   UNL     1       6.779   4.430  16.946  0.00  0.00    +0.000 C 
BRANCH  12  15
ATOM     13  C   UNL     1       7.646   6.534  18.047  0.00  0.00    +0.000 C 
ATOM     14  C   UNL     1       7.973   5.855  19.346  0.00  0.00    +0.000 C 
ATOM     15  C   UNL     1       7.138   5.884  16.978  0.00  0.00    +0.000 C 
BRANCH  13  16
ATOM     16  C   UNL     1       7.864   8.001  17.900  0.00  0.00    +0.000 C 
ATOM     17  O   UNL     1       7.317   8.699  17.062  0.00  0.00    +0.000 OA
BRANCH  16  19
ATOM     18  C   UNL     1       8.969   9.844  18.822  0.00  0.00    +0.000 C 
ATOM     19  O   UNL     1       8.741   8.435  18.839  0.00  0.00    +0.000 OA
ENDBRANCH  16  19
ENDBRANCH  13  16
ENDBRANCH  12  15
ENDBRANCH  11  12
ENDBRANCH   1  11
TORSDOF 7
ENDMDL
MODEL 9
REMARK VINA RESULT:      -6.3      1.538      1.956
REMARK  Name = 
REMARK  10 active torsions:
REMARK  status: ('A' for Active; 'I' for Inactive)
REMARK    1  A    between atoms: C_1  and  O_2
REMARK    2  A    between atoms: O_2  and  C_3
REMARK    3  A    between atoms: C_3  and  C_5
REMARK    4  A    between atoms: C_5  and  C_6
REMARK    5  A    between atoms: C_7  and  C_8
REMARK    6  A    between atoms: C_8  and  O_9
REMARK    7  A    between atoms: O_9  and  C_10
REMARK    8  A    between atoms: C_13  and  C_14
REMARK    9  A    between atoms: C_14  and  O_16
REMARK   10  A    between atoms: O_16  and  C_17
REMARK                            x       y       z     vdW  Elec       q    Type
REMARK                         _______ _______ _______ _____ _____    ______ ____
ROOT
ATOM      1  C   UNL     1       4.013   5.869  17.597  0.00  0.00    +0.000 A 
ATOM      2  C   UNL     1       4.227   4.526  17.275  0.00  0.00    +0.000 A 
ATOM      3  C   UNL     1       5.038   4.184  16.195  0.00  0.00    +0.000 A 
ATOM      4  C   UNL     1       5.614   5.178  15.395  0.00  0.00    +0.000 A 
ATOM      5  C   UNL     1       5.350   6.524  15.678  0.00  0.00    +0.000 A 
ATOM      6  C   UNL     1       4.547   6.864  16.775  0.00  0.00    +0.000 A 
ENDROOT
BRANCH   4   7
ATOM      7  C   UNL     1       6.489   4.733  14.279  0.00  0.00    +0.000 C 
ATOM      8  O   UNL     1       7.566   5.253  14.027  0.00  0.00    +0.000 OA
BRANCH   7   9
ATOM      9  O   UNL     1       5.935   3.696  13.606  0.00  0.00    +0.000 OA
ATOM     10  C   UNL     1       6.527   3.478  12.323  0.00  0.00    +0.000 C 
ENDBRANCH   7   9
ENDBRANCH   4   7
BRANCH   1  11
ATOM     11  O   UNL     1       3.310   6.303  18.691  0.00  0.00    +0.000 OA
BRANCH  11  12
ATOM     12  C   UNL     1       2.118   5.563  18.959  0.00  0.00    +0.000 C 
BRANCH  12  15
ATOM     13  C   UNL     1       1.807   3.400  20.230  0.00  0.00    +0.000 C 
ATOM     14  C   UNL     1       0.885   2.800  19.207  0.00  0.00    +0.000 C 
ATOM     15  C   UNL     1       2.368   4.620  20.096  0.00  0.00    +0.000 C 
BRANCH  13  16
ATOM     16  C   UNL     1       2.126   2.646  21.475  0.00  0.00    +0.000 C 
ATOM     17  O   UNL     1       1.293   2.252  22.276  0.00  0.00    +0.000 OA
BRANCH  16  19
ATOM     18  C   UNL     1       4.080   1.989  20.371  0.00  0.00    +0.000 C 
ATOM     19  O   UNL     1       3.465   2.455  21.572  0.00  0.00    +0.000 OA
ENDBRANCH  16  19
ENDBRANCH  13  16
ENDBRANCH  12  15
ENDBRANCH  11  12
ENDBRANCH   1  11
TORSDOF 7
ENDMDL
