MODEL 1
REMARK VINA RESULT:      -7.0      0.000      0.000
REMARK  Name = 
REMARK  8 active torsions:
REMARK  status: ('A' for Active; 'I' for Inactive)
REMARK    1  A    between atoms: C_1  and  O_2
REMARK    2  A    between atoms: O_2  and  C_3
REMARK    3  A    between atoms: C_6  and  C_7
REMARK    4  A    between atoms: N_9  and  C_10
REMARK    5  A    between atoms: C_10  and  C_11
REMARK    6  A    between atoms: C_10  and  C_15
REMARK    7  A    between atoms: C_11  and  C_12
REMARK    8  A    between atoms: C_12  and  O_14
REMARK                            x       y       z     vdW  Elec       q    Type
REMARK                         _______ _______ _______ _____ _____    ______ ____
ROOT
ATOM      1  C   UNL     1       2.828   6.180  19.205  0.00  0.00    +0.000 C 
ATOM      2  O   UNL     1       3.270   5.677  20.234  0.00  0.00    +0.000 OA
ATOM      3  N   UNL     1       2.927   5.553  17.983  0.00  0.00    +0.000 N 
ATOM      4  H   UNL     1       2.477   5.926  17.156  0.00  0.00    +0.000 HD
ENDROOT
BRANCH   1   8
ATOM      5  C   UNL     1       0.884  10.035  19.166  0.00  0.00    +0.000 A 
ATOM      6  C   UNL     1       1.485   9.510  18.024  0.00  0.00    +0.000 A 
ATOM      7  C   UNL     1       2.107   8.259  18.064  0.00  0.00    +0.000 A 
ATOM      8  C   UNL     1       2.158   7.519  19.255  0.00  0.00    +0.000 A 
ATOM      9  C   UNL     1       1.572   8.063  20.406  0.00  0.00    +0.000 A 
ATOM     10  C   UNL     1       0.941   9.317  20.360  0.00  0.00    +0.000 A 
BRANCH   5  12
ATOM     11  C   UNL     1      -1.089  11.270  18.751  0.00  0.00    +0.000 C 
ATOM     12  O   UNL     1       0.310  11.266  19.007  0.00  0.00    +0.000 OA
ENDBRANCH   5  12
ENDBRANCH   1   8
BRANCH   3  13
ATOM     13  C   UNL     1       3.618   4.279  17.795  0.00  0.00    +0.000 C 
BRANCH  13  14
ATOM     14  C   UNL     1       4.892   4.414  16.962  0.00  0.00    +0.000 A 
ATOM     15  C   UNL     1       4.881   4.356  15.558  0.00  0.00    +0.000 A 
ATOM     16  C   UNL     1       6.068   4.421  14.828  0.00  0.00    +0.000 A 
ATOM     17  C   UNL     1       7.287   4.560  15.482  0.00  0.00    +0.000 A 
ATOM     18  C   UNL     1       7.318   4.661  16.869  0.00  0.00    +0.000 A 
ATOM     19  C   UNL     1       6.130   4.603  17.602  0.00  0.00    +0.000 A 
ENDBRANCH  13  14
BRANCH  13  20
ATOM     20  C   UNL     1       2.643   3.233  17.225  0.00  0.00    +0.000 C 
BRANCH  20  21
ATOM     21  C   UNL     1       1.764   2.632  18.296  0.00  0.00    +0.000 C 
ATOM     22  O   UNL     1       0.890   3.237  18.902  0.00  0.00    +0.000 OA
BRANCH  21  23
ATOM     23  O   UNL     1       2.087   1.351  18.594  0.00  0.00    +0.000 OA
ATOM     24  H   UNL     1       1.390   0.853  19.061  0.00  0.00    +0.000 HD
ENDBRANCH  21  23
ENDBRANCH  20  21
ENDBRANCH  13  20
ENDBRANCH   3  13
TORSDOF 7
ENDMDL
MODEL 2
REMARK VINA RESULT:      -7.0      3.335      5.231
REMARK  Name = 
REMARK  8 active torsions:
REMARK  status: ('A' for Active; 'I' for Inactive)
REMARK    1  A    between atoms: C_1  and  O_2
REMARK    2  A    between atoms: O_2  and  C_3
REMARK    3  A    between atoms: C_6  and  C_7
REMARK    4  A    between atoms: N_9  and  C_10
REMARK    5  A    between atoms: C_10  and  C_11
REMARK    6  A    between atoms: C_10  and  C_15
REMARK    7  A    between atoms: C_11  and  C_12
REMARK    8  A    between atoms: C_12  and  O_14
REMARK                            x       y       z     vdW  Elec       q    Type
REMARK                         _______ _______ _______ _____ _____    ______ ____
ROOT
ATOM      1  C   UNL     1       4.113   5.877  17.400  0.00  0.00    +0.000 C 
ATOM      2  O   UNL     1       3.893   7.071  17.216  0.00  0.00    +0.000 OA
ATOM      3  N   UNL     1       5.195   5.237  16.839  0.00  0.00    +0.000 N 
ATOM      4  H   UNL     1       5.426   4.279  17.071  0.00  0.00    +0.000 HD
ENDROOT
BRANCH   1   8
ATOM      5  C   UNL     1       1.491   3.657  20.014  0.00  0.00    +0.000 A 
ATOM      6  C   UNL     1       2.529   4.438  20.515  0.00  0.00    +0.000 A 
ATOM      7  C   UNL     1       3.364   5.147  19.647  0.00  0.00    +0.000 A 
ATOM      8  C   UNL     1       3.187   5.070  18.257  0.00  0.00    +0.000 A 
ATOM      9  C   UNL     1       2.154   4.264  17.758  0.00  0.00    +0.000 A 
ATOM     10  C   UNL     1       1.313   3.559  18.634  0.00  0.00    +0.000 A 
BRANCH   5  12
ATOM     11  C   UNL     1       1.473   2.393  22.013  0.00  0.00    +0.000 C 
ATOM     12  O   UNL     1       0.744   3.008  20.958  0.00  0.00    +0.000 OA
ENDBRANCH   5  12
ENDBRANCH   1   8
BRANCH   3  13
ATOM     13  C   UNL     1       6.130   5.899  15.931  0.00  0.00    +0.000 C 
BRANCH  13  14
ATOM     14  C   UNL     1       6.353   5.117  14.637  0.00  0.00    +0.000 A 
ATOM     15  C   UNL     1       7.461   5.342  13.804  0.00  0.00    +0.000 A 
ATOM     16  C   UNL     1       7.605   4.654  12.599  0.00  0.00    +0.000 A 
ATOM     17  C   UNL     1       6.654   3.718  12.208  0.00  0.00    +0.000 A 
ATOM     18  C   UNL     1       5.570   3.449  13.036  0.00  0.00    +0.000 A 
ATOM     19  C   UNL     1       5.428   4.131  14.247  0.00  0.00    +0.000 A 
ENDBRANCH  13  14
BRANCH  13  20
ATOM     20  C   UNL     1       7.443   6.215  16.668  0.00  0.00    +0.000 C 
BRANCH  20  21
ATOM     21  C   UNL     1       7.605   5.385  17.920  0.00  0.00    +0.000 C 
ATOM     22  O   UNL     1       7.998   4.226  17.943  0.00  0.00    +0.000 OA
BRANCH  21  23
ATOM     23  O   UNL     1       7.192   6.023  19.040  0.00  0.00    +0.000 OA
ATOM     24  H   UNL     1       6.224   6.068  19.150  0.00  0.00    +0.000 HD
ENDBRANCH  21  23
ENDBRANCH  20  21
ENDBRANCH  13  20
ENDBRANCH   3  13
TORSDOF 7
ENDMDL
MODEL 3
REMARK VINA RESULT:      -6.9      0.156      1.459
REMARK  Name = 
REMARK  8 active torsions:
REMARK  status: ('A' for Active; 'I' for Inactive)
REMARK    1  A    between atoms: C_1  and  O_2
REMARK    2  A    between atoms: O_2  and  C_3
REMARK    3  A    between atoms: C_6  and  C_7
REMARK    4  A    between atoms: N_9  and  C_10
REMARK    5  A    between atoms: C_10  and  C_11
REMARK    6  A    between atoms: C_10  and  C_15
REMARK    7  A    between atoms: C_11  and  C_12
REMARK    8  A    between atoms: C_12  and  O_14
REMARK                            x       y       z     vdW  Elec       q    Type
REMARK                         _______ _______ _______ _____ _____    ______ ____
ROOT
ATOM      1  C   UNL     1       2.790   6.229  19.149  0.00  0.00    +0.000 C 
ATOM      2  O   UNL     1       3.186   5.754  20.210  0.00  0.00    +0.000 OA
ATOM      3  N   UNL     1       2.924   5.561  17.953  0.00  0.00    +0.000 N 
ATOM      4  H   UNL     1       2.510   5.914  17.098  0.00  0.00    +0.000 HD
ENDROOT
BRANCH   1   8
ATOM      5  C   UNL     1       0.930  10.123  19.285  0.00  0.00    +0.000 A 
ATOM      6  C   UNL     1       0.975   9.297  20.406  0.00  0.00    +0.000 A 
ATOM      7  C   UNL     1       1.584   8.041  20.334  0.00  0.00    +0.000 A 
ATOM      8  C   UNL     1       2.141   7.579  19.132  0.00  0.00    +0.000 A 
ATOM      9  C   UNL     1       2.073   8.406  18.003  0.00  0.00    +0.000 A 
ATOM     10  C   UNL     1       1.467   9.671  18.080  0.00  0.00    +0.000 A 
BRANCH   5  12
ATOM     11  C   UNL     1      -1.058  11.387  19.081  0.00  0.00    +0.000 C 
ATOM     12  O   UNL     1       0.308  11.326  19.473  0.00  0.00    +0.000 OA
ENDBRANCH   5  12
ENDBRANCH   1   8
BRANCH   3  13
ATOM     13  C   UNL     1       3.600   4.271  17.832  0.00  0.00    +0.000 C 
BRANCH  13  14
ATOM     14  C   UNL     1       4.900   4.358  17.033  0.00  0.00    +0.000 A 
ATOM     15  C   UNL     1       6.148   4.547  17.649  0.00  0.00    +0.000 A 
ATOM     16  C   UNL     1       7.311   4.684  16.889  0.00  0.00    +0.000 A 
ATOM     17  C   UNL     1       7.252   4.619  15.501  0.00  0.00    +0.000 A 
ATOM     18  C   UNL     1       6.033   4.391  14.872  0.00  0.00    +0.000 A 
ATOM     19  C   UNL     1       4.870   4.248  15.632  0.00  0.00    +0.000 A 
ENDBRANCH  13  14
BRANCH  13  20
ATOM     20  C   UNL     1       2.626   3.220  17.269  0.00  0.00    +0.000 C 
BRANCH  20  21
ATOM     21  C   UNL     1       1.735   2.640  18.342  0.00  0.00    +0.000 C 
ATOM     22  O   UNL     1       0.898   3.275  18.971  0.00  0.00    +0.000 OA
BRANCH  21  23
ATOM     23  O   UNL     1       2.000   1.341  18.611  0.00  0.00    +0.000 OA
ATOM     24  H   UNL     1       1.221   0.809  18.862  0.00  0.00    +0.000 HD
ENDBRANCH  21  23
ENDBRANCH  20  21
ENDBRANCH  13  20
ENDBRANCH   3  13
TORSDOF 7
ENDMDL
MODEL 4
REMARK VINA RESULT:      -6.9      0.760      1.451
REMARK  Name = 
REMARK  8 active torsions:
REMARK  status: ('A' for Active; 'I' for Inactive)
REMARK    1  A    between atoms: C_1  and  O_2
REMARK    2  A    between atoms: O_2  and  C_3
REMARK    3  A    between atoms: C_6  and  C_7
REMARK    4  A    between atoms: N_9  and  C_10
REMARK    5  A    between atoms: C_10  and  C_11
REMARK    6  A    between atoms: C_10  and  C_15
REMARK    7  A    between atoms: C_11  and  C_12
REMARK    8  A    between atoms: C_12  and  O_14
REMARK                            x       y       z     vdW  Elec       q    Type
REMARK                         _______ _______ _______ _____ _____    ______ ____
ROOT
ATOM      1  C   UNL     1       2.506   6.218  19.382  0.00  0.00    +0.000 C 
ATOM      2  O   UNL     1       2.487   5.532  20.401  0.00  0.00    +0.000 OA
ATOM      3  N   UNL     1       2.992   5.740  18.187  0.00  0.00    +0.000 N 
ATOM      4  H   UNL     1       2.916   6.274  17.330  0.00  0.00    +0.000 HD
ENDROOT
BRANCH   1   8
ATOM      5  C   UNL     1       1.021  10.272  19.304  0.00  0.00    +0.000 A 
ATOM      6  C   UNL     1       1.626   9.695  18.190  0.00  0.00    +0.000 A 
ATOM      7  C   UNL     1       2.099   8.381  18.242  0.00  0.00    +0.000 A 
ATOM      8  C   UNL     1       1.991   7.625  19.419  0.00  0.00    +0.000 A 
ATOM      9  C   UNL     1       1.401   8.218  20.543  0.00  0.00    +0.000 A 
ATOM     10  C   UNL     1       0.921   9.536  20.485  0.00  0.00    +0.000 A 
BRANCH   5  12
ATOM     11  C   UNL     1       1.583  12.478  18.665  0.00  0.00    +0.000 C 
ATOM     12  O   UNL     1       0.602  11.562  19.136  0.00  0.00    +0.000 OA
ENDBRANCH   5  12
ENDBRANCH   1   8
BRANCH   3  13
ATOM     13  C   UNL     1       3.583   4.411  18.041  0.00  0.00    +0.000 C 
BRANCH  13  14
ATOM     14  C   UNL     1       4.890   4.428  17.249  0.00  0.00    +0.000 A 
ATOM     15  C   UNL     1       6.139   4.609  17.865  0.00  0.00    +0.000 A 
ATOM     16  C   UNL     1       7.309   4.681  17.109  0.00  0.00    +0.000 A 
ATOM     17  C   UNL     1       7.257   4.560  15.724  0.00  0.00    +0.000 A 
ATOM     18  C   UNL     1       6.036   4.338  15.096  0.00  0.00    +0.000 A 
ATOM     19  C   UNL     1       4.864   4.259  15.853  0.00  0.00    +0.000 A 
ENDBRANCH  13  14
BRANCH  13  20
ATOM     20  C   UNL     1       2.545   3.437  17.455  0.00  0.00    +0.000 C 
BRANCH  20  21
ATOM     21  C   UNL     1       2.561   2.099  18.156  0.00  0.00    +0.000 C 
ATOM     22  O   UNL     1       3.555   1.400  18.301  0.00  0.00    +0.000 OA
BRANCH  21  23
ATOM     23  O   UNL     1       1.333   1.691  18.553  0.00  0.00    +0.000 OA
ATOM     24  H   UNL     1       1.303   0.787  18.919  0.00  0.00    +0.000 HD
ENDBRANCH  21  23
ENDBRANCH  20  21
ENDBRANCH  13  20
ENDBRANCH   3  13
TORSDOF 7
ENDMDL
MODEL 5
REMARK VINA RESULT:      -6.9      3.270      5.192
REMARK  Name = 
REMARK  8 active torsions:
REMARK  status: ('A' for Active; 'I' for Inactive)
REMARK    1  A    between atoms: C_1  and  O_2
REMARK    2  A    between atoms: O_2  and  C_3
REMARK    3  A    between atoms: C_6  and  C_7
REMARK    4  A    between atoms: N_9  and  C_10
REMARK    5  A    between atoms: C_10  and  C_11
REMARK    6  A    between atoms: C_10  and  C_15
REMARK    7  A    between atoms: C_11  and  C_12
REMARK    8  A    between atoms: C_12  and  O_14
REMARK                            x       y       z     vdW  Elec       q    Type
REMARK                         _______ _______ _______ _____ _____    ______ ____
ROOT
ATOM      1  C   UNL     1       4.069   5.857  17.372  0.00  0.00    +0.000 C 
ATOM      2  O   UNL     1       3.928   7.077  17.323  0.00  0.00    +0.000 OA
ATOM      3  N   UNL     1       5.065   5.208  16.678  0.00  0.00    +0.000 N 
ATOM      4  H   UNL     1       5.237   4.217  16.798  0.00  0.00    +0.000 HD
ENDROOT
BRANCH   1   8
ATOM      5  C   UNL     1       1.408   3.594  19.909  0.00  0.00    +0.000 A 
ATOM      6  C   UNL     1       2.325   4.500  20.438  0.00  0.00    +0.000 A 
ATOM      7  C   UNL     1       3.175   5.220  19.594  0.00  0.00    +0.000 A 
ATOM      8  C   UNL     1       3.137   5.031  18.204  0.00  0.00    +0.000 A 
ATOM      9  C   UNL     1       2.228   4.101  17.680  0.00  0.00    +0.000 A 
ATOM     10  C   UNL     1       1.371   3.385  18.530  0.00  0.00    +0.000 A 
BRANCH   5  12
ATOM     11  C   UNL     1       1.305   2.490  21.998  0.00  0.00    +0.000 C 
ATOM     12  O   UNL     1       0.633   2.946  20.830  0.00  0.00    +0.000 OA
ENDBRANCH   5  12
ENDBRANCH   1   8
BRANCH   3  13
ATOM     13  C   UNL     1       5.991   5.896  15.781  0.00  0.00    +0.000 C 
BRANCH  13  14
ATOM     14  C   UNL     1       6.242   5.125  14.486  0.00  0.00    +0.000 A 
ATOM     15  C   UNL     1       5.343   4.163  13.997  0.00  0.00    +0.000 A 
ATOM     16  C   UNL     1       5.629   3.432  12.844  0.00  0.00    +0.000 A 
ATOM     17  C   UNL     1       6.812   3.656  12.148  0.00  0.00    +0.000 A 
ATOM     18  C   UNL     1       7.698   4.633  12.589  0.00  0.00    +0.000 A 
ATOM     19  C   UNL     1       7.409   5.371  13.740  0.00  0.00    +0.000 A 
ENDBRANCH  13  14
BRANCH  13  20
ATOM     20  C   UNL     1       7.291   6.238  16.531  0.00  0.00    +0.000 C 
BRANCH  20  21
ATOM     21  C   UNL     1       7.583   5.255  17.639  0.00  0.00    +0.000 C 
ATOM     22  O   UNL     1       8.103   4.158  17.480  0.00  0.00    +0.000 OA
BRANCH  21  23
ATOM     23  O   UNL     1       7.137   5.666  18.849  0.00  0.00    +0.000 OA
ATOM     24  H   UNL     1       6.415   6.321  18.816  0.00  0.00    +0.000 HD
ENDBRANCH  21  23
ENDBRANCH  20  21
ENDBRANCH  13  20
ENDBRANCH   3  13
TORSDOF 7
ENDMDL
MODEL 6
REMARK VINA RESULT:      -6.8      0.409      1.261
REMARK  Name = 
REMARK  8 active torsions:
REMARK  status: ('A' for Active; 'I' for Inactive)
REMARK    1  A    between atoms: C_1  and  O_2
REMARK    2  A    between atoms: O_2  and  C_3
REMARK    3  A    between atoms: C_6  and  C_7
REMARK    4  A    between atoms: N_9  and  C_10
REMARK    5  A    between atoms: C_10  and  C_11
REMARK    6  A    between atoms: C_10  and  C_15
REMARK    7  A    between atoms: C_11  and  C_12
REMARK    8  A    between atoms: C_12  and  O_14
REMARK                            x       y       z     vdW  Elec       q    Type
REMARK                         _______ _______ _______ _____ _____    ______ ____
ROOT
ATOM      1  C   UNL     1       3.067   6.024  19.079  0.00  0.00    +0.000 C 
ATOM      2  O   UNL     1       3.630   5.575  20.074  0.00  0.00    +0.000 OA
ATOM      3  N   UNL     1       3.089   5.369  17.869  0.00  0.00    +0.000 N 
ATOM      4  H   UNL     1       2.544   5.693  17.079  0.00  0.00    +0.000 HD
ENDROOT
BRANCH   1   8
ATOM      5  C   UNL     1       0.930   9.775  19.130  0.00  0.00    +0.000 A 
ATOM      6  C   UNL     1       1.548   9.303  17.974  0.00  0.00    +0.000 A 
ATOM      7  C   UNL     1       2.233   8.085  17.985  0.00  0.00    +0.000 A 
ATOM      8  C   UNL     1       2.331   7.325  19.161  0.00  0.00    +0.000 A 
ATOM      9  C   UNL     1       1.726   7.816  20.326  0.00  0.00    +0.000 A 
ATOM     10  C   UNL     1       1.032   9.037  20.309  0.00  0.00    +0.000 A 
BRANCH   5  12
ATOM     11  C   UNL     1      -1.001  10.934  18.411  0.00  0.00    +0.000 C 
ATOM     12  O   UNL     1       0.293  10.977  19.000  0.00  0.00    +0.000 OA
ENDBRANCH   5  12
ENDBRANCH   1   8
BRANCH   3  13
ATOM     13  C   UNL     1       3.830   4.129  17.646  0.00  0.00    +0.000 C 
BRANCH  13  14
ATOM     14  C   UNL     1       5.025   4.313  16.711  0.00  0.00    +0.000 A 
ATOM     15  C   UNL     1       6.309   4.625  17.185  0.00  0.00    +0.000 A 
ATOM     16  C   UNL     1       7.367   4.847  16.303  0.00  0.00    +0.000 A 
ATOM     17  C   UNL     1       7.166   4.749  14.930  0.00  0.00    +0.000 A 
ATOM     18  C   UNL     1       5.913   4.400  14.439  0.00  0.00    +0.000 A 
ATOM     19  C   UNL     1       4.854   4.170  15.322  0.00  0.00    +0.000 A 
ENDBRANCH  13  14
BRANCH  13  20
ATOM     20  C   UNL     1       2.870   3.022  17.173  0.00  0.00    +0.000 C 
BRANCH  20  21
ATOM     21  C   UNL     1       1.856   2.659  18.232  0.00  0.00    +0.000 C 
ATOM     22  O   UNL     1       2.015   1.793  19.082  0.00  0.00    +0.000 OA
BRANCH  21  23
ATOM     23  O   UNL     1       0.691   3.337  18.110  0.00  0.00    +0.000 OA
ATOM     24  H   UNL     1       0.753   4.164  17.595  0.00  0.00    +0.000 HD
ENDBRANCH  21  23
ENDBRANCH  20  21
ENDBRANCH  13  20
ENDBRANCH   3  13
TORSDOF 7
ENDMDL
MODEL 7
REMARK VINA RESULT:      -6.8      2.757      4.239
REMARK  Name = 
REMARK  8 active torsions:
REMARK  status: ('A' for Active; 'I' for Inactive)
REMARK    1  A    between atoms: C_1  and  O_2
REMARK    2  A    between atoms: O_2  and  C_3
REMARK    3  A    between atoms: C_6  and  C_7
REMARK    4  A    between atoms: N_9  and  C_10
REMARK    5  A    between atoms: C_10  and  C_11
REMARK    6  A    between atoms: C_10  and  C_15
REMARK    7  A    between atoms: C_11  and  C_12
REMARK    8  A    between atoms: C_12  and  O_14
REMARK                            x       y       z     vdW  Elec       q    Type
REMARK                         _______ _______ _______ _____ _____    ______ ____
ROOT
ATOM      1  C   UNL     1       2.143   8.050  18.716  0.00  0.00    +0.000 C 
ATOM      2  O   UNL     1       2.209   8.509  17.579  0.00  0.00    +0.000 OA
ATOM      3  N   UNL     1       2.670   6.820  19.040  0.00  0.00    +0.000 N 
ATOM      4  H   UNL     1       2.700   6.490  19.997  0.00  0.00    +0.000 HD
ENDROOT
BRANCH   1   8
ATOM      5  C   UNL     1       0.291  10.206  21.965  0.00  0.00    +0.000 A 
ATOM      6  C   UNL     1       0.871   8.955  22.158  0.00  0.00    +0.000 A 
ATOM      7  C   UNL     1       1.464   8.278  21.088  0.00  0.00    +0.000 A 
ATOM      8  C   UNL     1       1.469   8.834  19.800  0.00  0.00    +0.000 A 
ATOM      9  C   UNL     1       0.864  10.083  19.608  0.00  0.00    +0.000 A 
ATOM     10  C   UNL     1       0.276  10.763  20.687  0.00  0.00    +0.000 A 
BRANCH   5  12
ATOM     11  C   UNL     1      -1.384  11.614  22.862  0.00  0.00    +0.000 C 
ATOM     12  O   UNL     1      -0.261  10.770  23.082  0.00  0.00    +0.000 OA
ENDBRANCH   5  12
ENDBRANCH   1   8
BRANCH   3  13
ATOM     13  C   UNL     1       3.290   5.934  18.057  0.00  0.00    +0.000 C 
BRANCH  13  14
ATOM     14  C   UNL     1       2.777   4.497  18.150  0.00  0.00    +0.000 A 
ATOM     15  C   UNL     1       1.515   4.182  18.680  0.00  0.00    +0.000 A 
ATOM     16  C   UNL     1       1.100   2.857  18.808  0.00  0.00    +0.000 A 
ATOM     17  C   UNL     1       1.930   1.820  18.396  0.00  0.00    +0.000 A 
ATOM     18  C   UNL     1       3.167   2.109  17.829  0.00  0.00    +0.000 A 
ATOM     19  C   UNL     1       3.581   3.437  17.694  0.00  0.00    +0.000 A 
ENDBRANCH  13  14
BRANCH  13  20
ATOM     20  C   UNL     1       4.823   6.026  18.160  0.00  0.00    +0.000 C 
BRANCH  20  21
ATOM     21  C   UNL     1       5.432   6.727  16.970  0.00  0.00    +0.000 C 
ATOM     22  O   UNL     1       6.612   7.034  16.870  0.00  0.00    +0.000 OA
BRANCH  21  23
ATOM     23  O   UNL     1       4.521   7.069  16.028  0.00  0.00    +0.000 OA
ATOM     24  H   UNL     1       3.599   7.097  16.344  0.00  0.00    +0.000 HD
ENDBRANCH  21  23
ENDBRANCH  20  21
ENDBRANCH  13  20
ENDBRANCH   3  13
TORSDOF 7
ENDMDL
MODEL 8
REMARK VINA RESULT:      -6.8      2.674      4.112
REMARK  Name = 
REMARK  8 active torsions:
REMARK  status: ('A' for Active; 'I' for Inactive)
REMARK    1  A    between atoms: C_1  and  O_2
REMARK    2  A    between atoms: O_2  and  C_3
REMARK    3  A    between atoms: C_6  and  C_7
REMARK    4  A    between atoms: N_9  and  C_10
REMARK    5  A    between atoms: C_10  and  C_11
REMARK    6  A    between atoms: C_10  and  C_15
REMARK    7  A    between atoms: C_11  and  C_12
REMARK    8  A    between atoms: C_12  and  O_14
REMARK                            x       y       z     vdW  Elec       q    Type
REMARK                         _______ _______ _______ _____ _____    ______ ____
ROOT
ATOM      1  C   UNL     1       2.588   7.835  18.173  0.00  0.00    +0.000 C 
ATOM      2  O   UNL     1       2.831   8.224  17.033  0.00  0.00    +0.000 OA
ATOM      3  N   UNL     1       3.127   6.676  18.680  0.00  0.00    +0.000 N 
ATOM      4  H   UNL     1       3.002   6.411  19.650  0.00  0.00    +0.000 HD
ENDROOT
BRANCH   1   8
ATOM      5  C   UNL     1       0.038  10.051  20.862  0.00  0.00    +0.000 A 
ATOM      6  C   UNL     1       0.706   8.900  21.273  0.00  0.00    +0.000 A 
ATOM      7  C   UNL     1       1.526   8.202  20.382  0.00  0.00    +0.000 A 
ATOM      8  C   UNL     1       1.675   8.631  19.054  0.00  0.00    +0.000 A 
ATOM      9  C   UNL     1       0.982   9.777  18.641  0.00  0.00    +0.000 A 
ATOM     10  C   UNL     1       0.166  10.481  19.541  0.00  0.00    +0.000 A 
BRANCH   5  12
ATOM     11  C   UNL     1      -0.648  10.091  23.124  0.00  0.00    +0.000 C 
ATOM     12  O   UNL     1      -0.737  10.647  21.818  0.00  0.00    +0.000 OA
ENDBRANCH   5  12
ENDBRANCH   1   8
BRANCH   3  13
ATOM     13  C   UNL     1       3.974   5.780  17.896  0.00  0.00    +0.000 C 
BRANCH  13  14
ATOM     14  C   UNL     1       3.693   4.304  18.175  0.00  0.00    +0.000 A 
ATOM     15  C   UNL     1       4.355   3.592  19.189  0.00  0.00    +0.000 A 
ATOM     16  C   UNL     1       4.122   2.230  19.380  0.00  0.00    +0.000 A 
ATOM     17  C   UNL     1       3.213   1.554  18.573  0.00  0.00    +0.000 A 
ATOM     18  C   UNL     1       2.515   2.248  17.590  0.00  0.00    +0.000 A 
ATOM     19  C   UNL     1       2.743   3.614  17.402  0.00  0.00    +0.000 A 
ENDBRANCH  13  14
BRANCH  13  20
ATOM     20  C   UNL     1       5.455   6.151  18.094  0.00  0.00    +0.000 C 
BRANCH  20  21
ATOM     21  C   UNL     1       6.052   6.783  16.859  0.00  0.00    +0.000 C 
ATOM     22  O   UNL     1       7.151   7.321  16.813  0.00  0.00    +0.000 OA
BRANCH  21  23
ATOM     23  O   UNL     1       5.214   6.775  15.796  0.00  0.00    +0.000 OA
ATOM     24  H   UNL     1       4.842   5.900  15.578  0.00  0.00    +0.000 HD
ENDBRANCH  21  23
ENDBRANCH  20  21
ENDBRANCH  13  20
ENDBRANCH   3  13
TORSDOF 7
ENDMDL
MODEL 9
REMARK VINA RESULT:      -6.7      0.759      1.315
REMARK  Name = 
REMARK  8 active torsions:
REMARK  status: ('A' for Active; 'I' for Inactive)
REMARK    1  A    between atoms: C_1  and  O_2
REMARK    2  A    between atoms: O_2  and  C_3
REMARK    3  A    between atoms: C_6  and  C_7
REMARK    4  A    between atoms: N_9  and  C_10
REMARK    5  A    between atoms: C_10  and  C_11
REMARK    6  A    between atoms: C_10  and  C_15
REMARK    7  A    between atoms: C_11  and  C_12
REMARK    8  A    between atoms: C_12  and  O_14
REMARK                            x       y       z     vdW  Elec       q    Type
REMARK                         _______ _______ _______ _____ _____    ______ ____
ROOT
ATOM      1  C   UNL     1       2.480   6.189  19.410  0.00  0.00    +0.000 C 
ATOM      2  O   UNL     1       2.538   5.517  20.436  0.00  0.00    +0.000 OA
ATOM      3  N   UNL     1       2.901   5.704  18.193  0.00  0.00    +0.000 N 
ATOM      4  H   UNL     1       2.762   6.225  17.335  0.00  0.00    +0.000 HD
ENDROOT
BRANCH   1   8
ATOM      5  C   UNL     1       0.935  10.207  19.742  0.00  0.00    +0.000 A 
ATOM      6  C   UNL     1       0.928   9.331  20.825  0.00  0.00    +0.000 A 
ATOM      7  C   UNL     1       1.434   8.036  20.690  0.00  0.00    +0.000 A 
ATOM      8  C   UNL     1       1.939   7.585  19.461  0.00  0.00    +0.000 A 
ATOM      9  C   UNL     1       1.924   8.464  18.370  0.00  0.00    +0.000 A 
ATOM     10  C   UNL     1       1.421   9.768  18.511  0.00  0.00    +0.000 A 
BRANCH   5  12
ATOM     11  C   UNL     1       1.356  12.482  20.233  0.00  0.00    +0.000 C 
ATOM     12  O   UNL     1       0.412  11.446  19.992  0.00  0.00    +0.000 OA
ENDBRANCH   5  12
ENDBRANCH   1   8
BRANCH   3  13
ATOM     13  C   UNL     1       3.510   4.385  18.028  0.00  0.00    +0.000 C 
BRANCH  13  14
ATOM     14  C   UNL     1       4.862   4.442  17.318  0.00  0.00    +0.000 A 
ATOM     15  C   UNL     1       5.000   4.199  15.942  0.00  0.00    +0.000 A 
ATOM     16  C   UNL     1       6.256   4.199  15.334  0.00  0.00    +0.000 A 
ATOM     17  C   UNL     1       7.398   4.454  16.085  0.00  0.00    +0.000 A 
ATOM     18  C   UNL     1       7.282   4.739  17.442  0.00  0.00    +0.000 A 
ATOM     19  C   UNL     1       6.024   4.747  18.050  0.00  0.00    +0.000 A 
ENDBRANCH  13  14
BRANCH  13  20
ATOM     20  C   UNL     1       2.517   3.432  17.338  0.00  0.00    +0.000 C 
BRANCH  20  21
ATOM     21  C   UNL     1       1.863   2.487  18.318  0.00  0.00    +0.000 C 
ATOM     22  O   UNL     1       0.876   2.753  18.992  0.00  0.00    +0.000 OA
BRANCH  21  23
ATOM     23  O   UNL     1       2.526   1.314  18.451  0.00  0.00    +0.000 OA
ATOM     24  H   UNL     1       3.385   1.381  18.907  0.00  0.00    +0.000 HD
ENDBRANCH  21  23
ENDBRANCH  20  21
ENDBRANCH  13  20
ENDBRANCH   3  13
TORSDOF 7
ENDMDL
