MODEL 1
REMARK VINA RESULT:      -6.6      0.000      0.000
REMARK  Name = 
REMARK  4 active torsions:
REMARK  status: ('A' for Active; 'I' for Inactive)
REMARK    1  A    between atoms: C_1  and  O_2
REMARK    2  A    between atoms: O_2  and  C_3
REMARK    3  A    between atoms: C_7  and  C_8
REMARK    4  A    between atoms: C_10  and  O_11
REMARK                            x       y       z     vdW  Elec       q    Type
REMARK                         _______ _______ _______ _____ _____    ______ ____
ROOT
ATOM      1  C   UNL     1      -0.182  12.622  18.565  0.00  0.00    +0.000 C 
ATOM      2  C   UNL     1      -1.591  12.683  19.145  0.00  0.00    +0.000 C 
ATOM      3  C   UNL     1      -1.673  12.594  20.655  0.00  0.00    +0.000 C 
ATOM      4  C   UNL     1      -1.116  11.346  21.336  0.00  0.00    +0.000 C 
ATOM      5  C   UNL     1      -0.026  10.434  20.807  0.00  0.00    +0.000 A 
ATOM      6  C   UNL     1       0.367   9.457  21.753  0.00  0.00    +0.000 A 
ATOM      7  C   UNL     1       1.146   8.357  21.413  0.00  0.00    +0.000 A 
ATOM      8  C   UNL     1       1.603   8.203  20.109  0.00  0.00    +0.000 A 
ATOM      9  C   UNL     1       2.325   7.051  19.747  0.00  0.00    +0.000 A 
ATOM     10  C   UNL     1       2.843   6.904  18.464  0.00  0.00    +0.000 A 
ATOM     11  C   UNL     1       2.689   7.930  17.544  0.00  0.00    +0.000 A 
ATOM     12  C   UNL     1       1.955   9.065  17.891  0.00  0.00    +0.000 A 
ATOM     13  C   UNL     1       1.336   9.214  19.159  0.00  0.00    +0.000 A 
ATOM     14  C   UNL     1       0.478  10.329  19.500  0.00  0.00    +0.000 A 
ATOM     15  N   UNL     1       0.251  11.241  18.474  0.00  0.00    +0.000 N 
ATOM     16  H   UNL     1      -0.060  10.776  17.625  0.00  0.00    +0.000 HD
ENDROOT
BRANCH   1  21
ATOM     17  C   UNL     1       1.653  15.872  19.463  0.00  0.00    +0.000 A 
ATOM     18  C   UNL     1       2.705  15.395  20.248  0.00  0.00    +0.000 A 
ATOM     19  C   UNL     1       2.874  14.030  20.442  0.00  0.00    +0.000 A 
ATOM     20  C   UNL     1       1.978  13.130  19.869  0.00  0.00    +0.000 A 
ATOM     21  C   UNL     1       0.871  13.577  19.124  0.00  0.00    +0.000 A 
ATOM     22  C   UNL     1       0.747  14.966  18.905  0.00  0.00    +0.000 A 
BRANCH  17  24
ATOM     23  C   UNL     1       1.117  17.764  18.118  0.00  0.00    +0.000 C 
ATOM     24  O   UNL     1       1.635  17.232  19.332  0.00  0.00    +0.000 OA
ENDBRANCH  17  24
ENDBRANCH   1  21
BRANCH   3  25
ATOM     25  O   UNL     1      -1.178  13.782  21.279  0.00  0.00    +0.000 OA
ATOM     26  H   UNL     1      -1.389  13.738  22.230  0.00  0.00    +0.000 HD
ENDBRANCH   3  25
TORSDOF 3
ENDMDL
MODEL 2
REMARK VINA RESULT:      -6.6      2.465      4.778
REMARK  Name = 
REMARK  4 active torsions:
REMARK  status: ('A' for Active; 'I' for Inactive)
REMARK    1  A    between atoms: C_1  and  O_2
REMARK    2  A    between atoms: O_2  and  C_3
REMARK    3  A    between atoms: C_7  and  C_8
REMARK    4  A    between atoms: C_10  and  O_11
REMARK                            x       y       z     vdW  Elec       q    Type
REMARK                         _______ _______ _______ _____ _____    ______ ____
ROOT
ATOM      1  C   UNL     1      -0.133  10.849  20.180  0.00  0.00    +0.000 C 
ATOM      2  C   UNL     1       0.793  12.054  20.061  0.00  0.00    +0.000 C 
ATOM      3  C   UNL     1       1.359  12.302  18.677  0.00  0.00    +0.000 C 
ATOM      4  C   UNL     1       2.203  11.203  18.036  0.00  0.00    +0.000 C 
ATOM      5  C   UNL     1       2.127   9.717  18.322  0.00  0.00    +0.000 A 
ATOM      6  C   UNL     1       2.936   8.955  17.445  0.00  0.00    +0.000 A 
ATOM      7  C   UNL     1       3.236   7.617  17.675  0.00  0.00    +0.000 A 
ATOM      8  C   UNL     1       2.706   6.964  18.783  0.00  0.00    +0.000 A 
ATOM      9  C   UNL     1       3.072   5.635  19.058  0.00  0.00    +0.000 A 
ATOM     10  C   UNL     1       2.508   4.943  20.126  0.00  0.00    +0.000 A 
ATOM     11  C   UNL     1       1.534   5.556  20.898  0.00  0.00    +0.000 A 
ATOM     12  C   UNL     1       1.182   6.883  20.642  0.00  0.00    +0.000 A 
ATOM     13  C   UNL     1       1.798   7.650  19.620  0.00  0.00    +0.000 A 
ATOM     14  C   UNL     1       1.531   9.058  19.411  0.00  0.00    +0.000 A 
ATOM     15  N   UNL     1       0.654   9.639  20.322  0.00  0.00    +0.000 N 
ATOM     16  H   UNL     1       0.933   9.450  21.280  0.00  0.00    +0.000 HD
ENDROOT
BRANCH   1  21
ATOM     17  C   UNL     1      -3.481  11.526  18.428  0.00  0.00    +0.000 A 
ATOM     18  C   UNL     1      -3.409  10.659  17.336  0.00  0.00    +0.000 A 
ATOM     19  C   UNL     1      -2.323   9.806  17.186  0.00  0.00    +0.000 A 
ATOM     20  C   UNL     1      -1.288   9.829  18.118  0.00  0.00    +0.000 A 
ATOM     21  C   UNL     1      -1.297  10.732  19.197  0.00  0.00    +0.000 A 
ATOM     22  C   UNL     1      -2.433  11.557  19.351  0.00  0.00    +0.000 A 
BRANCH  17  24
ATOM     23  C   UNL     1      -5.576  12.063  17.429  0.00  0.00    +0.000 C 
ATOM     24  O   UNL     1      -4.623  12.276  18.464  0.00  0.00    +0.000 OA
ENDBRANCH  17  24
ENDBRANCH   1  21
BRANCH   3  25
ATOM     25  O   UNL     1       0.352  12.767  17.774  0.00  0.00    +0.000 OA
ATOM     26  H   UNL     1      -0.360  12.100  17.742  0.00  0.00    +0.000 HD
ENDBRANCH   3  25
TORSDOF 3
ENDMDL
MODEL 3
REMARK VINA RESULT:      -6.5      1.106      1.865
REMARK  Name = 
REMARK  4 active torsions:
REMARK  status: ('A' for Active; 'I' for Inactive)
REMARK    1  A    between atoms: C_1  and  O_2
REMARK    2  A    between atoms: O_2  and  C_3
REMARK    3  A    between atoms: C_7  and  C_8
REMARK    4  A    between atoms: C_10  and  O_11
REMARK                            x       y       z     vdW  Elec       q    Type
REMARK                         _______ _______ _______ _____ _____    ______ ____
ROOT
ATOM      1  C   UNL     1      -0.310  12.697  18.735  0.00  0.00    +0.000 C 
ATOM      2  C   UNL     1      -1.726  12.710  19.301  0.00  0.00    +0.000 C 
ATOM      3  C   UNL     1      -1.822  12.564  20.806  0.00  0.00    +0.000 C 
ATOM      4  C   UNL     1      -1.248  11.303  21.447  0.00  0.00    +0.000 C 
ATOM      5  C   UNL     1      -0.136  10.432  20.898  0.00  0.00    +0.000 A 
ATOM      6  C   UNL     1       0.266   9.428  21.812  0.00  0.00    +0.000 A 
ATOM      7  C   UNL     1       1.070   8.357  21.442  0.00  0.00    +0.000 A 
ATOM      8  C   UNL     1       1.544   8.259  20.137  0.00  0.00    +0.000 A 
ATOM      9  C   UNL     1       2.292   7.135  19.743  0.00  0.00    +0.000 A 
ATOM     10  C   UNL     1       2.826   7.045  18.461  0.00  0.00    +0.000 A 
ATOM     11  C   UNL     1       2.663   8.100  17.577  0.00  0.00    +0.000 A 
ATOM     12  C   UNL     1       1.903   9.208  17.957  0.00  0.00    +0.000 A 
ATOM     13  C   UNL     1       1.268   9.299  19.222  0.00  0.00    +0.000 A 
ATOM     14  C   UNL     1       0.384  10.384  19.594  0.00  0.00    +0.000 A 
ATOM     15  N   UNL     1       0.151  11.328  18.599  0.00  0.00    +0.000 N 
ATOM     16  H   UNL     1      -0.142  10.889  17.730  0.00  0.00    +0.000 HD
ENDROOT
BRANCH   1  21
ATOM     17  C   UNL     1       2.697  13.988  20.742  0.00  0.00    +0.000 A 
ATOM     18  C   UNL     1       2.723  15.336  20.376  0.00  0.00    +0.000 A 
ATOM     19  C   UNL     1       1.744  15.856  19.540  0.00  0.00    +0.000 A 
ATOM     20  C   UNL     1       0.741  15.026  19.043  0.00  0.00    +0.000 A 
ATOM     21  C   UNL     1       0.718  13.650  19.340  0.00  0.00    +0.000 A 
ATOM     22  C   UNL     1       1.699  13.156  20.228  0.00  0.00    +0.000 A 
BRANCH  17  24
ATOM     23  C   UNL     1       4.815  14.506  21.702  0.00  0.00    +0.000 C 
ATOM     24  O   UNL     1       3.700  13.629  21.597  0.00  0.00    +0.000 OA
ENDBRANCH  17  24
ENDBRANCH   1  21
BRANCH   3  25
ATOM     25  O   UNL     1      -1.356  13.738  21.478  0.00  0.00    +0.000 OA
ATOM     26  H   UNL     1      -2.133  14.235  21.796  0.00  0.00    +0.000 HD
ENDBRANCH   3  25
TORSDOF 3
ENDMDL
MODEL 4
REMARK VINA RESULT:      -6.5      3.474      6.609
REMARK  Name = 
REMARK  4 active torsions:
REMARK  status: ('A' for Active; 'I' for Inactive)
REMARK    1  A    between atoms: C_1  and  O_2
REMARK    2  A    between atoms: O_2  and  C_3
REMARK    3  A    between atoms: C_7  and  C_8
REMARK    4  A    between atoms: C_10  and  O_11
REMARK                            x       y       z     vdW  Elec       q    Type
REMARK                         _______ _______ _______ _____ _____    ______ ____
ROOT
ATOM      1  C   UNL     1      -1.345  12.835  18.336  0.00  0.00    +0.000 C 
ATOM      2  C   UNL     1       0.180  12.843  18.352  0.00  0.00    +0.000 C 
ATOM      3  C   UNL     1       0.828  11.577  18.877  0.00  0.00    +0.000 C 
ATOM      4  C   UNL     1       0.508  11.142  20.305  0.00  0.00    +0.000 C 
ATOM      5  C   UNL     1      -0.746  11.465  21.093  0.00  0.00    +0.000 A 
ATOM      6  C   UNL     1      -0.799  10.779  22.330  0.00  0.00    +0.000 A 
ATOM      7  C   UNL     1      -1.704  11.110  23.332  0.00  0.00    +0.000 A 
ATOM      8  C   UNL     1      -2.632  12.125  23.125  0.00  0.00    +0.000 A 
ATOM      9  C   UNL     1      -3.496  12.512  24.165  0.00  0.00    +0.000 A 
ATOM     10  C   UNL     1      -4.471  13.484  23.962  0.00  0.00    +0.000 A 
ATOM     11  C   UNL     1      -4.627  14.041  22.703  0.00  0.00    +0.000 A 
ATOM     12  C   UNL     1      -3.758  13.677  21.673  0.00  0.00    +0.000 A 
ATOM     13  C   UNL     1      -2.696  12.756  21.863  0.00  0.00    +0.000 A 
ATOM     14  C   UNL     1      -1.715  12.450  20.842  0.00  0.00    +0.000 A 
ATOM     15  N   UNL     1      -1.851  13.163  19.654  0.00  0.00    +0.000 N 
ATOM     16  H   UNL     1      -1.912  14.163  19.825  0.00  0.00    +0.000 HD
ENDROOT
BRANCH   1  21
ATOM     17  C   UNL     1      -2.646  10.465  15.610  0.00  0.00    +0.000 A 
ATOM     18  C   UNL     1      -3.224   9.448  16.372  0.00  0.00    +0.000 A 
ATOM     19  C   UNL     1      -3.260   9.542  17.758  0.00  0.00    +0.000 A 
ATOM     20  C   UNL     1      -2.698  10.646  18.394  0.00  0.00    +0.000 A 
ATOM     21  C   UNL     1      -2.054  11.661  17.663  0.00  0.00    +0.000 A 
ATOM     22  C   UNL     1      -2.070  11.563  16.254  0.00  0.00    +0.000 A 
BRANCH  17  24
ATOM     23  C   UNL     1      -3.993   9.940  13.716  0.00  0.00    +0.000 C 
ATOM     24  O   UNL     1      -2.717  10.253  14.262  0.00  0.00    +0.000 OA
ENDBRANCH  17  24
ENDBRANCH   1  21
BRANCH   3  25
ATOM     25  O   UNL     1       0.670  10.489  17.963  0.00  0.00    +0.000 OA
ATOM     26  H   UNL     1       1.556  10.145  17.742  0.00  0.00    +0.000 HD
ENDBRANCH   3  25
TORSDOF 3
ENDMDL
MODEL 5
REMARK VINA RESULT:      -6.4      2.354      4.788
REMARK  Name = 
REMARK  4 active torsions:
REMARK  status: ('A' for Active; 'I' for Inactive)
REMARK    1  A    between atoms: C_1  and  O_2
REMARK    2  A    between atoms: O_2  and  C_3
REMARK    3  A    between atoms: C_7  and  C_8
REMARK    4  A    between atoms: C_10  and  O_11
REMARK                            x       y       z     vdW  Elec       q    Type
REMARK                         _______ _______ _______ _____ _____    ______ ____
ROOT
ATOM      1  C   UNL     1       0.114  11.278  20.496  0.00  0.00    +0.000 C 
ATOM      2  C   UNL     1       1.113  12.409  20.282  0.00  0.00    +0.000 C 
ATOM      3  C   UNL     1       1.540  12.633  18.845  0.00  0.00    +0.000 C 
ATOM      4  C   UNL     1       2.218  11.481  18.106  0.00  0.00    +0.000 C 
ATOM      5  C   UNL     1       2.056  10.001  18.390  0.00  0.00    +0.000 A 
ATOM      6  C   UNL     1       2.700   9.191  17.424  0.00  0.00    +0.000 A 
ATOM      7  C   UNL     1       2.917   7.831  17.611  0.00  0.00    +0.000 A 
ATOM      8  C   UNL     1       2.462   7.205  18.767  0.00  0.00    +0.000 A 
ATOM      9  C   UNL     1       2.750   5.847  18.991  0.00  0.00    +0.000 A 
ATOM     10  C   UNL     1       2.255   5.186  20.111  0.00  0.00    +0.000 A 
ATOM     11  C   UNL     1       1.424   5.861  20.991  0.00  0.00    +0.000 A 
ATOM     12  C   UNL     1       1.153   7.215  20.784  0.00  0.00    +0.000 A 
ATOM     13  C   UNL     1       1.710   7.947  19.704  0.00  0.00    +0.000 A 
ATOM     14  C   UNL     1       1.535   9.375  19.535  0.00  0.00    +0.000 A 
ATOM     15  N   UNL     1       0.813  10.008  20.541  0.00  0.00    +0.000 N 
ATOM     16  H   UNL     1       1.181   9.784  21.462  0.00  0.00    +0.000 HD
ENDROOT
BRANCH   1  21
ATOM     17  C   UNL     1      -2.468  10.258  17.845  0.00  0.00    +0.000 A 
ATOM     18  C   UNL     1      -3.533  11.110  18.144  0.00  0.00    +0.000 A 
ATOM     19  C   UNL     1      -3.411  12.060  19.150  0.00  0.00    +0.000 A 
ATOM     20  C   UNL     1      -2.229  12.150  19.881  0.00  0.00    +0.000 A 
ATOM     21  C   UNL     1      -1.157  11.268  19.649  0.00  0.00    +0.000 A 
ATOM     22  C   UNL     1      -1.290  10.341  18.591  0.00  0.00    +0.000 A 
BRANCH  17  24
ATOM     23  C   UNL     1      -3.014   9.980  15.542  0.00  0.00    +0.000 C 
ATOM     24  O   UNL     1      -2.720   9.403  16.809  0.00  0.00    +0.000 OA
ENDBRANCH  17  24
ENDBRANCH   1  21
BRANCH   3  25
ATOM     25  O   UNL     1       0.479  13.188  18.063  0.00  0.00    +0.000 OA
ATOM     26  H   UNL     1       0.500  14.158  18.166  0.00  0.00    +0.000 HD
ENDBRANCH   3  25
TORSDOF 3
ENDMDL
MODEL 6
REMARK VINA RESULT:      -6.4      1.804      2.397
REMARK  Name = 
REMARK  4 active torsions:
REMARK  status: ('A' for Active; 'I' for Inactive)
REMARK    1  A    between atoms: C_1  and  O_2
REMARK    2  A    between atoms: O_2  and  C_3
REMARK    3  A    between atoms: C_7  and  C_8
REMARK    4  A    between atoms: C_10  and  O_11
REMARK                            x       y       z     vdW  Elec       q    Type
REMARK                         _______ _______ _______ _____ _____    ______ ____
ROOT
ATOM      1  C   UNL     1      -1.383  12.937  20.393  0.00  0.00    +0.000 C 
ATOM      2  C   UNL     1      -2.577  12.658  21.299  0.00  0.00    +0.000 C 
ATOM      3  C   UNL     1      -2.233  12.307  22.732  0.00  0.00    +0.000 C 
ATOM      4  C   UNL     1      -1.362  11.078  22.985  0.00  0.00    +0.000 C 
ATOM      5  C   UNL     1      -0.355  10.468  22.031  0.00  0.00    +0.000 A 
ATOM      6  C   UNL     1       0.398   9.430  22.631  0.00  0.00    +0.000 A 
ATOM      7  C   UNL     1       1.184   8.552  21.893  0.00  0.00    +0.000 A 
ATOM      8  C   UNL     1       1.283   8.698  20.513  0.00  0.00    +0.000 A 
ATOM      9  C   UNL     1       2.015   7.764  19.758  0.00  0.00    +0.000 A 
ATOM     10  C   UNL     1       2.177   7.922  18.385  0.00  0.00    +0.000 A 
ATOM     11  C   UNL     1       1.654   9.044  17.761  0.00  0.00    +0.000 A 
ATOM     12  C   UNL     1       0.909   9.963  18.502  0.00  0.00    +0.000 A 
ATOM     13  C   UNL     1       0.646   9.791  19.886  0.00  0.00    +0.000 A 
ATOM     14  C   UNL     1      -0.217  10.669  20.648  0.00  0.00    +0.000 A 
ATOM     15  N   UNL     1      -0.825  11.686  19.917  0.00  0.00    +0.000 N 
ATOM     16  H   UNL     1      -1.296  11.322  19.093  0.00  0.00    +0.000 HD
ENDROOT
BRANCH   1  21
ATOM     17  C   UNL     1       1.962  14.442  21.526  0.00  0.00    +0.000 A 
ATOM     18  C   UNL     1       1.651  15.801  21.594  0.00  0.00    +0.000 A 
ATOM     19  C   UNL     1       0.358  16.240  21.344  0.00  0.00    +0.000 A 
ATOM     20  C   UNL     1      -0.633  15.323  21.000  0.00  0.00    +0.000 A 
ATOM     21  C   UNL     1      -0.343  13.953  20.861  0.00  0.00    +0.000 A 
ATOM     22  C   UNL     1       0.969  13.527  21.165  0.00  0.00    +0.000 A 
BRANCH  17  24
ATOM     23  C   UNL     1       4.045  15.201  22.398  0.00  0.00    +0.000 C 
ATOM     24  O   UNL     1       3.262  14.156  21.833  0.00  0.00    +0.000 OA
ENDBRANCH  17  24
ENDBRANCH   1  21
BRANCH   3  25
ATOM     25  O   UNL     1      -1.736  13.442  23.446  0.00  0.00    +0.000 OA
ATOM     26  H   UNL     1      -1.727  13.225  24.397  0.00  0.00    +0.000 HD
ENDBRANCH   3  25
TORSDOF 3
ENDMDL
MODEL 7
REMARK VINA RESULT:      -6.2      3.039      6.494
REMARK  Name = 
REMARK  4 active torsions:
REMARK  status: ('A' for Active; 'I' for Inactive)
REMARK    1  A    between atoms: C_1  and  O_2
REMARK    2  A    between atoms: O_2  and  C_3
REMARK    3  A    between atoms: C_7  and  C_8
REMARK    4  A    between atoms: C_10  and  O_11
REMARK                            x       y       z     vdW  Elec       q    Type
REMARK                         _______ _______ _______ _____ _____    ______ ____
ROOT
ATOM      1  C   UNL     1      -1.041  11.997  18.174  0.00  0.00    +0.000 C 
ATOM      2  C   UNL     1      -0.409  13.380  18.290  0.00  0.00    +0.000 C 
ATOM      3  C   UNL     1      -0.150  13.856  19.705  0.00  0.00    +0.000 C 
ATOM      4  C   UNL     1      -1.341  13.983  20.653  0.00  0.00    +0.000 C 
ATOM      5  C   UNL     1      -2.645  13.213  20.579  0.00  0.00    +0.000 A 
ATOM      6  C   UNL     1      -3.478  13.453  21.699  0.00  0.00    +0.000 A 
ATOM      7  C   UNL     1      -4.815  13.077  21.731  0.00  0.00    +0.000 A 
ATOM      8  C   UNL     1      -5.377  12.405  20.650  0.00  0.00    +0.000 A 
ATOM      9  C   UNL     1      -6.748  12.094  20.650  0.00  0.00    +0.000 A 
ATOM     10  C   UNL     1      -7.319  11.371  19.607  0.00  0.00    +0.000 A 
ATOM     11  C   UNL     1      -6.513  10.905  18.579  0.00  0.00    +0.000 A 
ATOM     12  C   UNL     1      -5.155  11.229  18.564  0.00  0.00    +0.000 A 
ATOM     13  C   UNL     1      -4.554  12.039  19.561  0.00  0.00    +0.000 A 
ATOM     14  C   UNL     1      -3.177  12.481  19.505  0.00  0.00    +0.000 A 
ATOM     15  N   UNL     1      -2.475  12.096  18.366  0.00  0.00    +0.000 N 
ATOM     16  H   UNL     1      -2.980  12.339  17.518  0.00  0.00    +0.000 HD
ENDROOT
BRANCH   1  21
ATOM     17  C   UNL     1       1.366   9.128  19.015  0.00  0.00    +0.000 A 
ATOM     18  C   UNL     1       0.956   8.784  20.304  0.00  0.00    +0.000 A 
ATOM     19  C   UNL     1      -0.133   9.418  20.888  0.00  0.00    +0.000 A 
ATOM     20  C   UNL     1      -0.807  10.421  20.195  0.00  0.00    +0.000 A 
ATOM     21  C   UNL     1      -0.384  10.837  18.919  0.00  0.00    +0.000 A 
ATOM     22  C   UNL     1       0.697  10.146  18.330  0.00  0.00    +0.000 A 
BRANCH  17  24
ATOM     23  C   UNL     1       2.549   7.060  19.034  0.00  0.00    +0.000 C 
ATOM     24  O   UNL     1       2.425   8.395  18.558  0.00  0.00    +0.000 OA
ENDBRANCH  17  24
ENDBRANCH   1  21
BRANCH   3  25
ATOM     25  O   UNL     1       0.916  13.125  20.318  0.00  0.00    +0.000 OA
ATOM     26  H   UNL     1       1.649  13.745  20.494  0.00  0.00    +0.000 HD
ENDBRANCH   3  25
TORSDOF 3
ENDMDL
MODEL 8
REMARK VINA RESULT:      -6.2      2.847      6.341
REMARK  Name = 
REMARK  4 active torsions:
REMARK  status: ('A' for Active; 'I' for Inactive)
REMARK    1  A    between atoms: C_1  and  O_2
REMARK    2  A    between atoms: O_2  and  C_3
REMARK    3  A    between atoms: C_7  and  C_8
REMARK    4  A    between atoms: C_10  and  O_11
REMARK                            x       y       z     vdW  Elec       q    Type
REMARK                         _______ _______ _______ _____ _____    ______ ____
ROOT
ATOM      1  C   UNL     1      -0.945  12.213  18.254  0.00  0.00    +0.000 C 
ATOM      2  C   UNL     1      -0.374  13.617  18.428  0.00  0.00    +0.000 C 
ATOM      3  C   UNL     1      -0.157  14.054  19.862  0.00  0.00    +0.000 C 
ATOM      4  C   UNL     1      -1.365  14.097  20.795  0.00  0.00    +0.000 C 
ATOM      5  C   UNL     1      -2.633  13.275  20.675  0.00  0.00    +0.000 A 
ATOM      6  C   UNL     1      -3.491  13.440  21.788  0.00  0.00    +0.000 A 
ATOM      7  C   UNL     1      -4.812  13.006  21.787  0.00  0.00    +0.000 A 
ATOM      8  C   UNL     1      -5.328  12.349  20.675  0.00  0.00    +0.000 A 
ATOM      9  C   UNL     1      -6.685  11.980  20.643  0.00  0.00    +0.000 A 
ATOM     10  C   UNL     1      -7.209  11.269  19.568  0.00  0.00    +0.000 A 
ATOM     11  C   UNL     1      -6.369  10.874  18.537  0.00  0.00    +0.000 A 
ATOM     12  C   UNL     1      -5.027  11.256  18.554  0.00  0.00    +0.000 A 
ATOM     13  C   UNL     1      -4.476  12.056  19.588  0.00  0.00    +0.000 A 
ATOM     14  C   UNL     1      -3.118  12.558  19.568  0.00  0.00    +0.000 A 
ATOM     15  N   UNL     1      -2.384  12.244  18.428  0.00  0.00    +0.000 N 
ATOM     16  H   UNL     1      -2.887  12.494  17.581  0.00  0.00    +0.000 HD
ENDROOT
BRANCH   1  21
ATOM     17  C   UNL     1      -0.180   9.489  20.848  0.00  0.00    +0.000 A 
ATOM     18  C   UNL     1       0.911   8.841  20.264  0.00  0.00    +0.000 A 
ATOM     19  C   UNL     1       1.451   9.309  19.073  0.00  0.00    +0.000 A 
ATOM     20  C   UNL     1       0.889  10.417  18.444  0.00  0.00    +0.000 A 
ATOM     21  C   UNL     1      -0.248  11.058  18.970  0.00  0.00    +0.000 A 
ATOM     22  C   UNL     1      -0.750  10.590  20.204  0.00  0.00    +0.000 A 
BRANCH  17  24
ATOM     23  C   UNL     1      -0.446   9.742  23.202  0.00  0.00    +0.000 C 
ATOM     24  O   UNL     1      -0.578   8.940  22.034  0.00  0.00    +0.000 OA
ENDBRANCH  17  24
ENDBRANCH   1  21
BRANCH   3  25
ATOM     25  O   UNL     1       0.931  13.349  20.466  0.00  0.00    +0.000 OA
ATOM     26  H   UNL     1       0.726  13.223  21.411  0.00  0.00    +0.000 HD
ENDBRANCH   3  25
TORSDOF 3
ENDMDL
MODEL 9
REMARK VINA RESULT:      -6.2      2.122      4.581
REMARK  Name = 
REMARK  4 active torsions:
REMARK  status: ('A' for Active; 'I' for Inactive)
REMARK    1  A    between atoms: C_1  and  O_2
REMARK    2  A    between atoms: O_2  and  C_3
REMARK    3  A    between atoms: C_7  and  C_8
REMARK    4  A    between atoms: C_10  and  O_11
REMARK                            x       y       z     vdW  Elec       q    Type
REMARK                         _______ _______ _______ _____ _____    ______ ____
ROOT
ATOM      1  C   UNL     1      -0.868  12.287  20.971  0.00  0.00    +0.000 C 
ATOM      2  C   UNL     1      -0.006  13.533  20.802  0.00  0.00    +0.000 C 
ATOM      3  C   UNL     1       0.377  13.865  19.374  0.00  0.00    +0.000 C 
ATOM      4  C   UNL     1       1.174  12.832  18.581  0.00  0.00    +0.000 C 
ATOM      5  C   UNL     1       1.184  11.332  18.800  0.00  0.00    +0.000 A 
ATOM      6  C   UNL     1       1.905  10.644  17.795  0.00  0.00    +0.000 A 
ATOM      7  C   UNL     1       2.277   9.310  17.919  0.00  0.00    +0.000 A 
ATOM      8  C   UNL     1       1.909   8.587  19.049  0.00  0.00    +0.000 A 
ATOM      9  C   UNL     1       2.352   7.262  19.211  0.00  0.00    +0.000 A 
ATOM     10  C   UNL     1       1.947   6.500  20.303  0.00  0.00    +0.000 A 
ATOM     11  C   UNL     1       1.054   7.038  21.217  0.00  0.00    +0.000 A 
ATOM     12  C   UNL     1       0.629   8.360  21.072  0.00  0.00    +0.000 A 
ATOM     13  C   UNL     1       1.088   9.197  20.023  0.00  0.00    +0.000 A 
ATOM     14  C   UNL     1       0.749  10.601  19.918  0.00  0.00    +0.000 A 
ATOM     15  N   UNL     1      -0.029  11.104  20.956  0.00  0.00    +0.000 N 
ATOM     16  H   UNL     1       0.372  10.883  21.863  0.00  0.00    +0.000 HD
ENDROOT
BRANCH   1  21
ATOM     17  C   UNL     1      -3.304  11.185  18.217  0.00  0.00    +0.000 A 
ATOM     18  C   UNL     1      -4.489  11.802  18.623  0.00  0.00    +0.000 A 
ATOM     19  C   UNL     1      -4.504  12.627  19.740  0.00  0.00    +0.000 A 
ATOM     20  C   UNL     1      -3.336  12.823  20.475  0.00  0.00    +0.000 A 
ATOM     21  C   UNL     1      -2.139  12.168  20.132  0.00  0.00    +0.000 A 
ATOM     22  C   UNL     1      -2.140  11.371  18.966  0.00  0.00    +0.000 A 
BRANCH  17  24
ATOM     23  C   UNL     1      -2.700  10.851  15.936  0.00  0.00    +0.000 C 
ATOM     24  O   UNL     1      -3.434  10.435  17.082  0.00  0.00    +0.000 OA
ENDBRANCH  17  24
ENDBRANCH   1  21
BRANCH   3  25
ATOM     25  O   UNL     1      -0.748  14.330  18.623  0.00  0.00    +0.000 OA
ATOM     26  H   UNL     1      -1.160  15.065  19.116  0.00  0.00    +0.000 HD
ENDBRANCH   3  25
TORSDOF 3
ENDMDL
