MODEL 1
REMARK VINA RESULT:      -6.1      0.000      0.000
REMARK  Name = 
REMARK  13 active torsions:
REMARK  status: ('A' for Active; 'I' for Inactive)
REMARK    1  A    between atoms: C_2  and  C_3
REMARK    2  A    between atoms: C_3  and  N_4
REMARK    3  A    between atoms: N_4  and  C_5
REMARK    4  A    between atoms: C_5  and  C_6
REMARK    5  A    between atoms: C_8  and  C_10
REMARK    6  A    between atoms: C_11  and  C_12
REMARK    7  A    between atoms: C_12  and  O_13
REMARK    8  A    between atoms: O_13  and  C_14
REMARK    9  A    between atoms: C_17  and  C_18
REMARK   10  A    between atoms: N_21  and  C_22
REMARK   11  A    between atoms: C_22  and  C_23
REMARK   12  A    between atoms: C_23  and  N_24
REMARK   13  A    between atoms: C_30  and  C_31
REMARK                            x       y       z     vdW  Elec       q    Type
REMARK                         _______ _______ _______ _____ _____    ______ ____
ROOT
ATOM      1  C   UNL     1      -1.682  12.510  21.339  0.00  0.00    +0.000 A 
ATOM      2  C   UNL     1      -3.018  12.662  21.071  0.00  0.00    +0.000 A 
ATOM      3  N   UNL     1      -4.021  12.810  22.143  0.00  0.00    +0.000 N 
ATOM      4  C   UNL     1      -3.581  12.567  23.479  0.00  0.00    +0.000 A 
ATOM      5  C   UNL     1      -4.423  12.381  24.720  0.00  0.00    +0.000 C 
ATOM      6  C   UNL     1      -2.275  12.530  23.776  0.00  0.00    +0.000 A 
ATOM      7  C   UNL     1      -1.303  12.816  22.733  0.00  0.00    +0.000 A 
ATOM      8  O   UNL     1      -0.207  13.270  23.060  0.00  0.00    +0.000 OA
ENDROOT
BRANCH   1  10
ATOM      9  N   UNL     1      -0.132  10.940  20.049  0.00  0.00    +0.000 N 
ATOM     10  C   UNL     1      -0.606  12.245  20.300  0.00  0.00    +0.000 C 
ATOM     11  O   UNL     1      -0.177  13.191  19.635  0.00  0.00    +0.000 OA
BRANCH   9  12
ATOM     12  C   UNL     1       1.033  10.849  19.162  0.00  0.00    +0.000 C 
BRANCH  12  14
ATOM     13  C   UNL     1       2.169   8.990  17.773  0.00  0.00    +0.000 C 
ATOM     14  C   UNL     1       1.114   9.579  18.353  0.00  0.00    +0.000 C 
ENDBRANCH  12  14
ENDBRANCH   9  12
BRANCH   9  15
ATOM     15  C   UNL     1      -0.540   9.743  20.800  0.00  0.00    +0.000 C 
BRANCH  15  16
ATOM     16  C   UNL     1       0.324   9.375  21.970  0.00  0.00    +0.000 C 
ATOM     17  C   UNL     1      -0.066   9.475  23.250  0.00  0.00    +0.000 C 
ENDBRANCH  15  16
ENDBRANCH   9  15
ENDBRANCH   1  10
BRANCH   2  18
ATOM     18  C   UNL     1      -3.491  12.681  19.598  0.00  0.00    +0.000 C 
BRANCH  18  19
ATOM     19  O   UNL     1      -3.816  11.331  19.229  0.00  0.00    +0.000 OA
BRANCH  19  20
ATOM     20  C   UNL     1      -3.664  10.978  17.914  0.00  0.00    +0.000 A 
ATOM     21  C   UNL     1      -4.446  11.458  16.863  0.00  0.00    +0.000 A 
ATOM     22  C   UNL     1      -4.171  11.093  15.542  0.00  0.00    +0.000 A 
ATOM     23  C   UNL     1      -3.122  10.220  15.246  0.00  0.00    +0.000 A 
ATOM     24  C   UNL     1      -2.832   9.807  13.833  0.00  0.00    +0.000 C 
ATOM     25  C   UNL     1      -2.337   9.734  16.295  0.00  0.00    +0.000 A 
ATOM     26  C   UNL     1      -2.608  10.118  17.617  0.00  0.00    +0.000 A 
ENDBRANCH  19  20
ENDBRANCH  18  19
ENDBRANCH   2  18
BRANCH   3  27
ATOM     27  C   UNL     1      -5.461  13.076  21.756  0.00  0.00    +0.000 C 
BRANCH  27  28
ATOM     28  C   UNL     1      -5.901  14.549  21.816  0.00  0.00    +0.000 C 
BRANCH  28  29
ATOM     29  N   UNL     1      -5.643  15.365  23.022  0.00  0.00    +0.000 NA
ATOM     30  C   UNL     1      -6.821  16.064  23.565  0.00  0.00    +0.000 C 
ATOM     31  C   UNL     1      -7.350  17.175  22.648  0.00  0.00    +0.000 C 
ATOM     32  O   UNL     1      -6.329  18.140  22.353  0.00  0.00    +0.000 OA
ATOM     33  C   UNL     1      -5.178  17.518  21.770  0.00  0.00    +0.000 C 
ATOM     34  C   UNL     1      -4.627  16.401  22.679  0.00  0.00    +0.000 C 
ENDBRANCH  28  29
ENDBRANCH  27  28
ENDBRANCH   3  27
TORSDOF 11
ENDMDL
MODEL 2
REMARK VINA RESULT:      -5.8      2.559      5.537
REMARK  Name = 
REMARK  13 active torsions:
REMARK  status: ('A' for Active; 'I' for Inactive)
REMARK    1  A    between atoms: C_2  and  C_3
REMARK    2  A    between atoms: C_3  and  N_4
REMARK    3  A    between atoms: N_4  and  C_5
REMARK    4  A    between atoms: C_5  and  C_6
REMARK    5  A    between atoms: C_8  and  C_10
REMARK    6  A    between atoms: C_11  and  C_12
REMARK    7  A    between atoms: C_12  and  O_13
REMARK    8  A    between atoms: O_13  and  C_14
REMARK    9  A    between atoms: C_17  and  C_18
REMARK   10  A    between atoms: N_21  and  C_22
REMARK   11  A    between atoms: C_22  and  C_23
REMARK   12  A    between atoms: C_23  and  N_24
REMARK   13  A    between atoms: C_30  and  C_31
REMARK                            x       y       z     vdW  Elec       q    Type
REMARK                         _______ _______ _______ _____ _____    ______ ____
ROOT
ATOM      1  C   UNL     1      -0.102  13.507  20.415  0.00  0.00    +0.000 A 
ATOM      2  C   UNL     1      -0.960  14.099  21.306  0.00  0.00    +0.000 A 
ATOM      3  N   UNL     1      -1.584  15.410  21.042  0.00  0.00    +0.000 N 
ATOM      4  C   UNL     1      -1.092  16.147  19.923  0.00  0.00    +0.000 A 
ATOM      5  C   UNL     1      -1.342  17.597  19.578  0.00  0.00    +0.000 C 
ATOM      6  C   UNL     1      -0.346  15.553  18.983  0.00  0.00    +0.000 A 
ATOM      7  C   UNL     1      -0.102  14.121  19.072  0.00  0.00    +0.000 A 
ATOM      8  O   UNL     1       0.119  13.497  18.035  0.00  0.00    +0.000 OA
ENDROOT
BRANCH   1  10
ATOM      9  N   UNL     1       0.170  10.974  20.211  0.00  0.00    +0.000 N 
ATOM     10  C   UNL     1       0.662  12.217  20.661  0.00  0.00    +0.000 C 
ATOM     11  O   UNL     1       1.756  12.275  21.226  0.00  0.00    +0.000 OA
BRANCH   9  12
ATOM     12  C   UNL     1       0.908   9.795  20.677  0.00  0.00    +0.000 C 
BRANCH  12  14
ATOM     13  C   UNL     1      -0.053   9.530  23.061  0.00  0.00    +0.000 C 
ATOM     14  C   UNL     1       0.279   9.077  21.844  0.00  0.00    +0.000 C 
ENDBRANCH  12  14
ENDBRANCH   9  12
BRANCH   9  15
ATOM     15  C   UNL     1      -1.134  10.777  19.560  0.00  0.00    +0.000 C 
BRANCH  15  16
ATOM     16  C   UNL     1      -1.099  10.178  18.185  0.00  0.00    +0.000 C 
ATOM     17  C   UNL     1      -2.147  10.162  17.347  0.00  0.00    +0.000 C 
ENDBRANCH  15  16
ENDBRANCH   9  15
ENDBRANCH   1  10
BRANCH   2  18
ATOM     18  C   UNL     1      -1.286  13.369  22.631  0.00  0.00    +0.000 C 
BRANCH  18  19
ATOM     19  O   UNL     1      -2.242  12.338  22.334  0.00  0.00    +0.000 OA
BRANCH  19  20
ATOM     20  C   UNL     1      -3.512  12.489  22.825  0.00  0.00    +0.000 A 
ATOM     21  C   UNL     1      -3.857  12.440  24.176  0.00  0.00    +0.000 A 
ATOM     22  C   UNL     1      -5.172  12.675  24.588  0.00  0.00    +0.000 A 
ATOM     23  C   UNL     1      -6.176  12.942  23.654  0.00  0.00    +0.000 A 
ATOM     24  C   UNL     1      -7.594  13.175  24.086  0.00  0.00    +0.000 C 
ATOM     25  C   UNL     1      -5.837  12.989  22.300  0.00  0.00    +0.000 A 
ATOM     26  C   UNL     1      -4.512  12.769  21.895  0.00  0.00    +0.000 A 
ENDBRANCH  19  20
ENDBRANCH  18  19
ENDBRANCH   2  18
BRANCH   3  27
ATOM     27  C   UNL     1      -2.599  15.941  22.033  0.00  0.00    +0.000 C 
BRANCH  27  28
ATOM     28  C   UNL     1      -2.051  16.931  23.075  0.00  0.00    +0.000 C 
BRANCH  28  29
ATOM     29  N   UNL     1      -2.828  17.254  24.290  0.00  0.00    +0.000 NA
ATOM     30  C   UNL     1      -2.150  18.150  25.244  0.00  0.00    +0.000 C 
ATOM     31  C   UNL     1      -0.927  17.514  25.918  0.00  0.00    +0.000 C 
ATOM     32  O   UNL     1      -1.275  16.294  26.590  0.00  0.00    +0.000 OA
ATOM     33  C   UNL     1      -1.890  15.363  25.692  0.00  0.00    +0.000 C 
ATOM     34  C   UNL     1      -3.126  15.981  25.008  0.00  0.00    +0.000 C 
ENDBRANCH  28  29
ENDBRANCH  27  28
ENDBRANCH   3  27
TORSDOF 11
ENDMDL
MODEL 3
REMARK VINA RESULT:      -5.7      3.574      9.372
REMARK  Name = 
REMARK  13 active torsions:
REMARK  status: ('A' for Active; 'I' for Inactive)
REMARK    1  A    between atoms: C_2  and  C_3
REMARK    2  A    between atoms: C_3  and  N_4
REMARK    3  A    between atoms: N_4  and  C_5
REMARK    4  A    between atoms: C_5  and  C_6
REMARK    5  A    between atoms: C_8  and  C_10
REMARK    6  A    between atoms: C_11  and  C_12
REMARK    7  A    between atoms: C_12  and  O_13
REMARK    8  A    between atoms: O_13  and  C_14
REMARK    9  A    between atoms: C_17  and  C_18
REMARK   10  A    between atoms: N_21  and  C_22
REMARK   11  A    between atoms: C_22  and  C_23
REMARK   12  A    between atoms: C_23  and  N_24
REMARK   13  A    between atoms: C_30  and  C_31
REMARK                            x       y       z     vdW  Elec       q    Type
REMARK                         _______ _______ _______ _____ _____    ______ ____
ROOT
ATOM      1  C   UNL     1       0.799  10.157  18.987  0.00  0.00    +0.000 A 
ATOM      2  C   UNL     1       0.866   9.162  19.927  0.00  0.00    +0.000 A 
ATOM      3  N   UNL     1       1.778   8.010  19.788  0.00  0.00    +0.000 N 
ATOM      4  C   UNL     1       2.432   7.851  18.529  0.00  0.00    +0.000 A 
ATOM      5  C   UNL     1       3.191   6.649  18.016  0.00  0.00    +0.000 C 
ATOM      6  C   UNL     1       2.474   8.857  17.645  0.00  0.00    +0.000 A 
ATOM      7  C   UNL     1       1.908  10.147  18.011  0.00  0.00    +0.000 A 
ATOM      8  O   UNL     1       2.357  11.159  17.474  0.00  0.00    +0.000 OA
ENDROOT
BRANCH   1  10
ATOM      9  N   UNL     1      -1.552  11.119  18.706  0.00  0.00    +0.000 N 
ATOM     10  C   UNL     1      -0.186  11.313  19.004  0.00  0.00    +0.000 C 
ATOM     11  O   UNL     1       0.218  12.431  19.332  0.00  0.00    +0.000 OA
BRANCH   9  12
ATOM     12  C   UNL     1      -2.350  12.344  18.575  0.00  0.00    +0.000 C 
BRANCH  12  14
ATOM     13  C   UNL     1      -4.389  12.794  20.097  0.00  0.00    +0.000 C 
ATOM     14  C   UNL     1      -3.076  12.761  19.829  0.00  0.00    +0.000 C 
ENDBRANCH  12  14
ENDBRANCH   9  12
BRANCH   9  15
ATOM     15  C   UNL     1      -2.140   9.845  18.268  0.00  0.00    +0.000 C 
BRANCH  15  16
ATOM     16  C   UNL     1      -3.153   9.932  17.164  0.00  0.00    +0.000 C 
ATOM     17  C   UNL     1      -2.848   9.857  15.860  0.00  0.00    +0.000 C 
ENDBRANCH  15  16
ENDBRANCH   9  15
ENDBRANCH   1  10
BRANCH   2  18
ATOM     18  C   UNL     1      -0.043   9.247  21.176  0.00  0.00    +0.000 C 
BRANCH  18  19
ATOM     19  O   UNL     1       0.432  10.337  21.985  0.00  0.00    +0.000 OA
BRANCH  19  20
ATOM     20  C   UNL     1      -0.491  11.244  22.432  0.00  0.00    +0.000 A 
ATOM     21  C   UNL     1      -1.703  10.918  23.042  0.00  0.00    +0.000 A 
ATOM     22  C   UNL     1      -2.551  11.916  23.529  0.00  0.00    +0.000 A 
ATOM     23  C   UNL     1      -2.217  13.265  23.395  0.00  0.00    +0.000 A 
ATOM     24  C   UNL     1      -3.131  14.344  23.897  0.00  0.00    +0.000 C 
ATOM     25  C   UNL     1      -1.006  13.599  22.782  0.00  0.00    +0.000 A 
ATOM     26  C   UNL     1      -0.151  12.591  22.311  0.00  0.00    +0.000 A 
ENDBRANCH  19  20
ENDBRANCH  18  19
ENDBRANCH   2  18
BRANCH   3  27
ATOM     27  C   UNL     1       1.861   7.011  20.922  0.00  0.00    +0.000 C 
BRANCH  27  28
ATOM     28  C   UNL     1       2.267   5.583  20.519  0.00  0.00    +0.000 C 
BRANCH  28  29
ATOM     29  N   UNL     1       1.318   4.459  20.666  0.00  0.00    +0.000 NA
ATOM     30  C   UNL     1       1.774   3.368  21.547  0.00  0.00    +0.000 C 
ATOM     31  C   UNL     1       2.968   2.586  20.983  0.00  0.00    +0.000 C 
ATOM     32  O   UNL     1       2.674   2.047  19.686  0.00  0.00    +0.000 OA
ATOM     33  C   UNL     1       2.276   3.075  18.772  0.00  0.00    +0.000 C 
ATOM     34  C   UNL     1       1.073   3.871  19.317  0.00  0.00    +0.000 C 
ENDBRANCH  28  29
ENDBRANCH  27  28
ENDBRANCH   3  27
TORSDOF 11
ENDMDL
MODEL 4
REMARK VINA RESULT:      -5.6      3.127      4.617
REMARK  Name = 
REMARK  13 active torsions:
REMARK  status: ('A' for Active; 'I' for Inactive)
REMARK    1  A    between atoms: C_2  and  C_3
REMARK    2  A    between atoms: C_3  and  N_4
REMARK    3  A    between atoms: N_4  and  C_5
REMARK    4  A    between atoms: C_5  and  C_6
REMARK    5  A    between atoms: C_8  and  C_10
REMARK    6  A    between atoms: C_11  and  C_12
REMARK    7  A    between atoms: C_12  and  O_13
REMARK    8  A    between atoms: O_13  and  C_14
REMARK    9  A    between atoms: C_17  and  C_18
REMARK   10  A    between atoms: N_21  and  C_22
REMARK   11  A    between atoms: C_22  and  C_23
REMARK   12  A    between atoms: C_23  and  N_24
REMARK   13  A    between atoms: C_30  and  C_31
REMARK                            x       y       z     vdW  Elec       q    Type
REMARK                         _______ _______ _______ _____ _____    ______ ____
ROOT
ATOM      1  C   UNL     1      -0.035  14.074  21.873  0.00  0.00    +0.000 A 
ATOM      2  C   UNL     1      -1.100  13.229  22.043  0.00  0.00    +0.000 A 
ATOM      3  N   UNL     1      -2.144  13.475  23.057  0.00  0.00    +0.000 N 
ATOM      4  C   UNL     1      -1.890  14.508  24.008  0.00  0.00    +0.000 A 
ATOM      5  C   UNL     1      -2.633  14.797  25.292  0.00  0.00    +0.000 C 
ATOM      6  C   UNL     1      -0.925  15.413  23.799  0.00  0.00    +0.000 A 
ATOM      7  C   UNL     1      -0.180  15.379  22.550  0.00  0.00    +0.000 A 
ATOM      8  O   UNL     1       0.314  16.425  22.132  0.00  0.00    +0.000 OA
ENDROOT
BRANCH   1  10
ATOM      9  N   UNL     1       1.082  14.240  19.580  0.00  0.00    +0.000 N 
ATOM     10  C   UNL     1       1.132  13.833  20.931  0.00  0.00    +0.000 C 
ATOM     11  O   UNL     1       2.156  13.312  21.377  0.00  0.00    +0.000 OA
BRANCH   9  12
ATOM     12  C   UNL     1       2.194  13.780  18.740  0.00  0.00    +0.000 C 
BRANCH  12  14
ATOM     13  C   UNL     1       3.761  15.826  18.556  0.00  0.00    +0.000 C 
ATOM     14  C   UNL     1       2.960  14.880  18.048  0.00  0.00    +0.000 C 
ENDBRANCH  12  14
ENDBRANCH   9  12
BRANCH   9  15
ATOM     15  C   UNL     1      -0.093  14.836  18.929  0.00  0.00    +0.000 C 
BRANCH  15  16
ATOM     16  C   UNL     1      -0.076  16.329  18.778  0.00  0.00    +0.000 C 
ATOM     17  C   UNL     1      -1.169  17.103  18.855  0.00  0.00    +0.000 C 
ENDBRANCH  15  16
ENDBRANCH   9  15
ENDBRANCH   1  10
BRANCH   2  18
ATOM     18  C   UNL     1      -1.215  11.976  21.142  0.00  0.00    +0.000 C 
BRANCH  18  19
ATOM     19  O   UNL     1      -0.322  10.980  21.668  0.00  0.00    +0.000 OA
BRANCH  19  20
ATOM     20  C   UNL     1       0.333  10.178  20.771  0.00  0.00    +0.000 A 
ATOM     21  C   UNL     1       0.533  10.482  19.424  0.00  0.00    +0.000 A 
ATOM     22  C   UNL     1       1.275   9.630  18.601  0.00  0.00    +0.000 A 
ATOM     23  C   UNL     1       1.814   8.443  19.101  0.00  0.00    +0.000 A 
ATOM     24  C   UNL     1       2.594   7.514  18.219  0.00  0.00    +0.000 C 
ATOM     25  C   UNL     1       1.614   8.132  20.449  0.00  0.00    +0.000 A 
ATOM     26  C   UNL     1       0.883   8.999  21.274  0.00  0.00    +0.000 A 
ENDBRANCH  19  20
ENDBRANCH  18  19
ENDBRANCH   2  18
BRANCH   3  27
ATOM     27  C   UNL     1      -3.339  12.546  23.106  0.00  0.00    +0.000 C 
BRANCH  27  28
ATOM     28  C   UNL     1      -4.557  12.990  22.278  0.00  0.00    +0.000 C 
BRANCH  28  29
ATOM     29  N   UNL     1      -5.885  12.380  22.503  0.00  0.00    +0.000 NA
ATOM     30  C   UNL     1      -6.904  12.713  21.492  0.00  0.00    +0.000 C 
ATOM     31  C   UNL     1      -7.325  14.189  21.510  0.00  0.00    +0.000 C 
ATOM     32  O   UNL     1      -7.807  14.578  22.805  0.00  0.00    +0.000 OA
ATOM     33  C   UNL     1      -6.831  14.325  23.822  0.00  0.00    +0.000 C 
ATOM     34  C   UNL     1      -6.397  12.846  23.824  0.00  0.00    +0.000 C 
ENDBRANCH  28  29
ENDBRANCH  27  28
ENDBRANCH   3  27
TORSDOF 11
ENDMDL
MODEL 5
REMARK VINA RESULT:      -5.6      1.130      1.395
REMARK  Name = 
REMARK  13 active torsions:
REMARK  status: ('A' for Active; 'I' for Inactive)
REMARK    1  A    between atoms: C_2  and  C_3
REMARK    2  A    between atoms: C_3  and  N_4
REMARK    3  A    between atoms: N_4  and  C_5
REMARK    4  A    between atoms: C_5  and  C_6
REMARK    5  A    between atoms: C_8  and  C_10
REMARK    6  A    between atoms: C_11  and  C_12
REMARK    7  A    between atoms: C_12  and  O_13
REMARK    8  A    between atoms: O_13  and  C_14
REMARK    9  A    between atoms: C_17  and  C_18
REMARK   10  A    between atoms: N_21  and  C_22
REMARK   11  A    between atoms: C_22  and  C_23
REMARK   12  A    between atoms: C_23  and  N_24
REMARK   13  A    between atoms: C_30  and  C_31
REMARK                            x       y       z     vdW  Elec       q    Type
REMARK                         _______ _______ _______ _____ _____    ______ ____
ROOT
ATOM      1  C   UNL     1      -1.248  12.529  20.886  0.00  0.00    +0.000 A 
ATOM      2  C   UNL     1      -2.586  12.646  20.611  0.00  0.00    +0.000 A 
ATOM      3  N   UNL     1      -3.598  12.783  21.676  0.00  0.00    +0.000 N 
ATOM      4  C   UNL     1      -3.158  12.568  23.017  0.00  0.00    +0.000 A 
ATOM      5  C   UNL     1      -4.002  12.378  24.256  0.00  0.00    +0.000 C 
ATOM      6  C   UNL     1      -1.854  12.565  23.321  0.00  0.00    +0.000 A 
ATOM      7  C   UNL     1      -0.883  12.861  22.278  0.00  0.00    +0.000 A 
ATOM      8  O   UNL     1       0.200  13.345  22.604  0.00  0.00    +0.000 OA
ENDROOT
BRANCH   1  10
ATOM      9  N   UNL     1       0.219  10.965  19.495  0.00  0.00    +0.000 N 
ATOM     10  C   UNL     1      -0.162  12.275  19.855  0.00  0.00    +0.000 C 
ATOM     11  O   UNL     1       0.360  13.242  19.295  0.00  0.00    +0.000 OA
BRANCH   9  12
ATOM     12  C   UNL     1       1.403  10.865  18.634  0.00  0.00    +0.000 C 
BRANCH  12  14
ATOM     13  C   UNL     1       2.378   8.563  17.981  0.00  0.00    +0.000 C 
ATOM     14  C   UNL     1       1.511   9.577  17.857  0.00  0.00    +0.000 C 
ENDBRANCH  12  14
ENDBRANCH   9  12
BRANCH   9  15
ATOM     15  C   UNL     1      -0.305   9.741  20.118  0.00  0.00    +0.000 C 
BRANCH  15  16
ATOM     16  C   UNL     1       0.349   9.326  21.404  0.00  0.00    +0.000 C 
ATOM     17  C   UNL     1       1.293   8.376  21.492  0.00  0.00    +0.000 C 
ENDBRANCH  15  16
ENDBRANCH   9  15
ENDBRANCH   1  10
BRANCH   2  18
ATOM     18  C   UNL     1      -3.052  12.635  19.135  0.00  0.00    +0.000 C 
BRANCH  18  19
ATOM     19  O   UNL     1      -3.472  11.296  18.822  0.00  0.00    +0.000 OA
BRANCH  19  20
ATOM     20  C   UNL     1      -3.411  10.902  17.512  0.00  0.00    +0.000 A 
ATOM     21  C   UNL     1      -4.272  11.340  16.505  0.00  0.00    +0.000 A 
ATOM     22  C   UNL     1      -4.089  10.934  15.180  0.00  0.00    +0.000 A 
ATOM     23  C   UNL     1      -3.053  10.063  14.837  0.00  0.00    +0.000 A 
ATOM     24  C   UNL     1      -2.862   9.606  13.421  0.00  0.00    +0.000 C 
ATOM     25  C   UNL     1      -2.190   9.618  15.842  0.00  0.00    +0.000 A 
ATOM     26  C   UNL     1      -2.369  10.042  17.167  0.00  0.00    +0.000 A 
ENDBRANCH  19  20
ENDBRANCH  18  19
ENDBRANCH   2  18
BRANCH   3  27
ATOM     27  C   UNL     1      -5.041  13.011  21.279  0.00  0.00    +0.000 C 
BRANCH  27  28
ATOM     28  C   UNL     1      -5.920  13.696  22.341  0.00  0.00    +0.000 C 
BRANCH  28  29
ATOM     29  N   UNL     1      -7.376  13.844  22.133  0.00  0.00    +0.000 NA
ATOM     30  C   UNL     1      -7.764  14.438  20.841  0.00  0.00    +0.000 C 
ATOM     31  C   UNL     1      -7.363  15.912  20.700  0.00  0.00    +0.000 C 
ATOM     32  O   UNL     1      -7.910  16.707  21.763  0.00  0.00    +0.000 OA
ATOM     33  C   UNL     1      -7.518  16.203  23.045  0.00  0.00    +0.000 C 
ATOM     34  C   UNL     1      -7.916  14.723  23.209  0.00  0.00    +0.000 C 
ENDBRANCH  28  29
ENDBRANCH  27  28
ENDBRANCH   3  27
TORSDOF 11
ENDMDL
MODEL 6
REMARK VINA RESULT:      -5.5      2.626      4.782
REMARK  Name = 
REMARK  13 active torsions:
REMARK  status: ('A' for Active; 'I' for Inactive)
REMARK    1  A    between atoms: C_2  and  C_3
REMARK    2  A    between atoms: C_3  and  N_4
REMARK    3  A    between atoms: N_4  and  C_5
REMARK    4  A    between atoms: C_5  and  C_6
REMARK    5  A    between atoms: C_8  and  C_10
REMARK    6  A    between atoms: C_11  and  C_12
REMARK    7  A    between atoms: C_12  and  O_13
REMARK    8  A    between atoms: O_13  and  C_14
REMARK    9  A    between atoms: C_17  and  C_18
REMARK   10  A    between atoms: N_21  and  C_22
REMARK   11  A    between atoms: C_22  and  C_23
REMARK   12  A    between atoms: C_23  and  N_24
REMARK   13  A    between atoms: C_30  and  C_31
REMARK                            x       y       z     vdW  Elec       q    Type
REMARK                         _______ _______ _______ _____ _____    ______ ____
ROOT
ATOM      1  C   UNL     1      -1.767  14.794  22.020  0.00  0.00    +0.000 A 
ATOM      2  C   UNL     1      -2.691  13.783  22.002  0.00  0.00    +0.000 A 
ATOM      3  N   UNL     1      -4.109  14.008  22.346  0.00  0.00    +0.000 N 
ATOM      4  C   UNL     1      -4.443  15.274  22.914  0.00  0.00    +0.000 A 
ATOM      5  C   UNL     1      -5.728  15.680  23.598  0.00  0.00    +0.000 C 
ATOM      6  C   UNL     1      -3.593  16.307  22.838  0.00  0.00    +0.000 A 
ATOM      7  C   UNL     1      -2.350  16.149  22.100  0.00  0.00    +0.000 A 
ATOM      8  O   UNL     1      -1.830  17.148  21.604  0.00  0.00    +0.000 OA
ENDROOT
BRANCH   1  10
ATOM      9  N   UNL     1       0.294  14.807  20.508  0.00  0.00    +0.000 N 
ATOM     10  C   UNL     1      -0.276  14.622  21.785  0.00  0.00    +0.000 C 
ATOM     11  O   UNL     1       0.449  14.359  22.748  0.00  0.00    +0.000 OA
BRANCH   9  12
ATOM     12  C   UNL     1       1.706  14.426  20.384  0.00  0.00    +0.000 C 
BRANCH  12  14
ATOM     13  C   UNL     1       3.115  13.635  18.368  0.00  0.00    +0.000 C 
ATOM     14  C   UNL     1       2.034  13.609  19.160  0.00  0.00    +0.000 C 
ENDBRANCH  12  14
ENDBRANCH   9  12
BRANCH   9  15
ATOM     15  C   UNL     1      -0.471  15.085  19.284  0.00  0.00    +0.000 C 
BRANCH  15  16
ATOM     16  C   UNL     1      -0.120  16.353  18.563  0.00  0.00    +0.000 C 
ATOM     17  C   UNL     1      -0.987  17.353  18.341  0.00  0.00    +0.000 C 
ENDBRANCH  15  16
ENDBRANCH   9  15
ENDBRANCH   1  10
BRANCH   2  18
ATOM     18  C   UNL     1      -2.237  12.357  21.607  0.00  0.00    +0.000 C 
BRANCH  18  19
ATOM     19  O   UNL     1      -2.228  12.287  20.171  0.00  0.00    +0.000 OA
BRANCH  19  20
ATOM     20  C   UNL     1      -1.339  11.427  19.584  0.00  0.00    +0.000 A 
ATOM     21  C   UNL     1      -1.466  10.901  18.297  0.00  0.00    +0.000 A 
ATOM     22  C   UNL     1      -0.469  10.084  17.757  0.00  0.00    +0.000 A 
ATOM     23  C   UNL     1       0.666   9.754  18.500  0.00  0.00    +0.000 A 
ATOM     24  C   UNL     1       1.731   8.861  17.935  0.00  0.00    +0.000 C 
ATOM     25  C   UNL     1       0.797  10.275  19.790  0.00  0.00    +0.000 A 
ATOM     26  C   UNL     1      -0.198  11.109  20.321  0.00  0.00    +0.000 A 
ENDBRANCH  19  20
ENDBRANCH  18  19
ENDBRANCH   2  18
BRANCH   3  27
ATOM     27  C   UNL     1      -5.081  12.857  22.199  0.00  0.00    +0.000 C 
BRANCH  27  28
ATOM     28  C   UNL     1      -5.619  12.621  20.778  0.00  0.00    +0.000 C 
BRANCH  28  29
ATOM     29  N   UNL     1      -7.060  12.384  20.545  0.00  0.00    +0.000 NA
ATOM     30  C   UNL     1      -7.526  11.022  20.857  0.00  0.00    +0.000 C 
ATOM     31  C   UNL     1      -6.965   9.951  19.912  0.00  0.00    +0.000 C 
ATOM     32  O   UNL     1      -7.274  10.248  18.542  0.00  0.00    +0.000 OA
ATOM     33  C   UNL     1      -6.793  11.545  18.170  0.00  0.00    +0.000 C 
ATOM     34  C   UNL     1      -7.350  12.637  19.104  0.00  0.00    +0.000 C 
ENDBRANCH  28  29
ENDBRANCH  27  28
ENDBRANCH   3  27
TORSDOF 11
ENDMDL
MODEL 7
REMARK VINA RESULT:      -5.4      2.746      6.287
REMARK  Name = 
REMARK  13 active torsions:
REMARK  status: ('A' for Active; 'I' for Inactive)
REMARK    1  A    between atoms: C_2  and  C_3
REMARK    2  A    between atoms: C_3  and  N_4
REMARK    3  A    between atoms: N_4  and  C_5
REMARK    4  A    between atoms: C_5  and  C_6
REMARK    5  A    between atoms: C_8  and  C_10
REMARK    6  A    between atoms: C_11  and  C_12
REMARK    7  A    between atoms: C_12  and  O_13
REMARK    8  A    between atoms: O_13  and  C_14
REMARK    9  A    between atoms: C_17  and  C_18
REMARK   10  A    between atoms: N_21  and  C_22
REMARK   11  A    between atoms: C_22  and  C_23
REMARK   12  A    between atoms: C_23  and  N_24
REMARK   13  A    between atoms: C_30  and  C_31
REMARK                            x       y       z     vdW  Elec       q    Type
REMARK                         _______ _______ _______ _____ _____    ______ ____
ROOT
ATOM      1  C   UNL     1      -0.760  11.516  19.449  0.00  0.00    +0.000 A 
ATOM      2  C   UNL     1      -2.022  11.940  19.122  0.00  0.00    +0.000 A 
ATOM      3  N   UNL     1      -2.816  11.295  18.058  0.00  0.00    +0.000 N 
ATOM      4  C   UNL     1      -2.138  10.353  17.226  0.00  0.00    +0.000 A 
ATOM      5  C   UNL     1      -2.608   9.755  15.921  0.00  0.00    +0.000 C 
ATOM      6  C   UNL     1      -0.955   9.842  17.590  0.00  0.00    +0.000 A 
ATOM      7  C   UNL     1      -0.396  10.200  18.884  0.00  0.00    +0.000 A 
ATOM      8  O   UNL     1       0.371   9.409  19.432  0.00  0.00    +0.000 OA
ENDROOT
BRANCH   1  10
ATOM      9  N   UNL     1       1.029  13.233  20.066  0.00  0.00    +0.000 N 
ATOM     10  C   UNL     1       0.158  12.192  20.452  0.00  0.00    +0.000 C 
ATOM     11  O   UNL     1       0.101  11.847  21.635  0.00  0.00    +0.000 OA
BRANCH   9  12
ATOM     12  C   UNL     1       1.990  13.666  21.088  0.00  0.00    +0.000 C 
BRANCH  12  14
ATOM     13  C   UNL     1       2.475  15.981  22.126  0.00  0.00    +0.000 C 
ATOM     14  C   UNL     1       1.665  14.986  21.741  0.00  0.00    +0.000 C 
ENDBRANCH  12  14
ENDBRANCH   9  12
BRANCH   9  15
ATOM     15  C   UNL     1       1.210  13.703  18.685  0.00  0.00    +0.000 C 
BRANCH  15  16
ATOM     16  C   UNL     1       2.628  13.926  18.247  0.00  0.00    +0.000 C 
ATOM     17  C   UNL     1       3.116  15.116  17.865  0.00  0.00    +0.000 C 
ENDBRANCH  15  16
ENDBRANCH   9  15
ENDBRANCH   1  10
BRANCH   2  18
ATOM     18  C   UNL     1      -2.636  13.132  19.894  0.00  0.00    +0.000 C 
BRANCH  18  19
ATOM     19  O   UNL     1      -3.300  12.603  21.053  0.00  0.00    +0.000 OA
BRANCH  19  20
ATOM     20  C   UNL     1      -3.125  13.261  22.241  0.00  0.00    +0.000 A 
ATOM     21  C   UNL     1      -3.714  12.895  23.452  0.00  0.00    +0.000 A 
ATOM     22  C   UNL     1      -3.419  13.590  24.629  0.00  0.00    +0.000 A 
ATOM     23  C   UNL     1      -2.547  14.680  24.617  0.00  0.00    +0.000 A 
ATOM     24  C   UNL     1      -2.241  15.443  25.872  0.00  0.00    +0.000 C 
ATOM     25  C   UNL     1      -1.957  15.052  23.406  0.00  0.00    +0.000 A 
ATOM     26  C   UNL     1      -2.243  14.341  22.231  0.00  0.00    +0.000 A 
ENDBRANCH  19  20
ENDBRANCH  18  19
ENDBRANCH   2  18
BRANCH   3  27
ATOM     27  C   UNL     1      -4.239  11.762  17.833  0.00  0.00    +0.000 C 
BRANCH  27  28
ATOM     28  C   UNL     1      -5.325  10.939  18.546  0.00  0.00    +0.000 C 
BRANCH  28  29
ATOM     29  N   UNL     1      -6.729  11.403  18.571  0.00  0.00    +0.000 NA
ATOM     30  C   UNL     1      -6.910  12.851  18.366  0.00  0.00    +0.000 C 
ATOM     31  C   UNL     1      -6.367  13.705  19.520  0.00  0.00    +0.000 C 
ATOM     32  O   UNL     1      -6.963  13.332  20.772  0.00  0.00    +0.000 OA
ATOM     33  C   UNL     1      -6.768  11.940  21.047  0.00  0.00    +0.000 C 
ATOM     34  C   UNL     1      -7.312  11.063  19.901  0.00  0.00    +0.000 C 
ENDBRANCH  28  29
ENDBRANCH  27  28
ENDBRANCH   3  27
TORSDOF 11
ENDMDL
MODEL 8
REMARK VINA RESULT:      -5.4      3.051      4.831
REMARK  Name = 
REMARK  13 active torsions:
REMARK  status: ('A' for Active; 'I' for Inactive)
REMARK    1  A    between atoms: C_2  and  C_3
REMARK    2  A    between atoms: C_3  and  N_4
REMARK    3  A    between atoms: N_4  and  C_5
REMARK    4  A    between atoms: C_5  and  C_6
REMARK    5  A    between atoms: C_8  and  C_10
REMARK    6  A    between atoms: C_11  and  C_12
REMARK    7  A    between atoms: C_12  and  O_13
REMARK    8  A    between atoms: O_13  and  C_14
REMARK    9  A    between atoms: C_17  and  C_18
REMARK   10  A    between atoms: N_21  and  C_22
REMARK   11  A    between atoms: C_22  and  C_23
REMARK   12  A    between atoms: C_23  and  N_24
REMARK   13  A    between atoms: C_30  and  C_31
REMARK                            x       y       z     vdW  Elec       q    Type
REMARK                         _______ _______ _______ _____ _____    ______ ____
ROOT
ATOM      1  C   UNL     1      -0.398  13.839  21.592  0.00  0.00    +0.000 A 
ATOM      2  C   UNL     1      -1.525  13.074  21.440  0.00  0.00    +0.000 A 
ATOM      3  N   UNL     1      -2.739  13.296  22.249  0.00  0.00    +0.000 N 
ATOM      4  C   UNL     1      -2.626  14.195  23.353  0.00  0.00    +0.000 A 
ATOM      5  C   UNL     1      -3.600  14.404  24.489  0.00  0.00    +0.000 C 
ATOM      6  C   UNL     1      -1.585  15.031  23.454  0.00  0.00    +0.000 A 
ATOM      7  C   UNL     1      -0.601  15.070  22.382  0.00  0.00    +0.000 A 
ATOM      8  O   UNL     1       0.032  16.110  22.204  0.00  0.00    +0.000 OA
ENDROOT
BRANCH   1  10
ATOM      9  N   UNL     1       1.155  14.107  19.580  0.00  0.00    +0.000 N 
ATOM     10  C   UNL     1       0.922  13.604  20.878  0.00  0.00    +0.000 C 
ATOM     11  O   UNL     1       1.818  12.999  21.472  0.00  0.00    +0.000 OA
BRANCH   9  12
ATOM     12  C   UNL     1       2.393  13.649  18.938  0.00  0.00    +0.000 C 
BRANCH  12  14
ATOM     13  C   UNL     1       3.788  15.645  19.800  0.00  0.00    +0.000 C 
ATOM     14  C   UNL     1       3.515  14.657  18.937  0.00  0.00    +0.000 C 
ENDBRANCH  12  14
ENDBRANCH   9  12
BRANCH   9  15
ATOM     15  C   UNL     1       0.155  14.808  18.762  0.00  0.00    +0.000 C 
BRANCH  15  16
ATOM     16  C   UNL     1       0.200  16.307  18.809  0.00  0.00    +0.000 C 
ATOM     17  C   UNL     1      -0.617  17.104  18.104  0.00  0.00    +0.000 C 
ENDBRANCH  15  16
ENDBRANCH   9  15
ENDBRANCH   1  10
BRANCH   2  18
ATOM     18  C   UNL     1      -1.527  11.941  20.386  0.00  0.00    +0.000 C 
BRANCH  18  19
ATOM     19  O   UNL     1      -0.979  10.768  21.010  0.00  0.00    +0.000 OA
BRANCH  19  20
ATOM     20  C   UNL     1      -0.023  10.071  20.321  0.00  0.00    +0.000 A 
ATOM     21  C   UNL     1       0.706   8.996  20.831  0.00  0.00    +0.000 A 
ATOM     22  C   UNL     1       1.614   8.301  20.027  0.00  0.00    +0.000 A 
ATOM     23  C   UNL     1       1.831   8.682  18.701  0.00  0.00    +0.000 A 
ATOM     24  C   UNL     1       2.819   7.955  17.837  0.00  0.00    +0.000 C 
ATOM     25  C   UNL     1       1.107   9.760  18.186  0.00  0.00    +0.000 A 
ATOM     26  C   UNL     1       0.184  10.442  18.992  0.00  0.00    +0.000 A 
ENDBRANCH  19  20
ENDBRANCH  18  19
ENDBRANCH   2  18
BRANCH   3  27
ATOM     27  C   UNL     1      -3.973  12.473  21.944  0.00  0.00    +0.000 C 
BRANCH  27  28
ATOM     28  C   UNL     1      -4.847  12.992  20.789  0.00  0.00    +0.000 C 
BRANCH  28  29
ATOM     29  N   UNL     1      -6.322  12.918  20.867  0.00  0.00    +0.000 NA
ATOM     30  C   UNL     1      -6.890  11.574  20.658  0.00  0.00    +0.000 C 
ATOM     31  C   UNL     1      -6.711  11.049  19.228  0.00  0.00    +0.000 C 
ATOM     32  O   UNL     1      -7.277  11.950  18.265  0.00  0.00    +0.000 OA
ATOM     33  C   UNL     1      -6.718  13.263  18.388  0.00  0.00    +0.000 C 
ATOM     34  C   UNL     1      -6.892  13.812  19.818  0.00  0.00    +0.000 C 
ENDBRANCH  28  29
ENDBRANCH  27  28
ENDBRANCH   3  27
TORSDOF 11
ENDMDL
MODEL 9
REMARK VINA RESULT:      -5.4      1.813      2.390
REMARK  Name = 
REMARK  13 active torsions:
REMARK  status: ('A' for Active; 'I' for Inactive)
REMARK    1  A    between atoms: C_2  and  C_3
REMARK    2  A    between atoms: C_3  and  N_4
REMARK    3  A    between atoms: N_4  and  C_5
REMARK    4  A    between atoms: C_5  and  C_6
REMARK    5  A    between atoms: C_8  and  C_10
REMARK    6  A    between atoms: C_11  and  C_12
REMARK    7  A    between atoms: C_12  and  O_13
REMARK    8  A    between atoms: O_13  and  C_14
REMARK    9  A    between atoms: C_17  and  C_18
REMARK   10  A    between atoms: N_21  and  C_22
REMARK   11  A    between atoms: C_22  and  C_23
REMARK   12  A    between atoms: C_23  and  N_24
REMARK   13  A    between atoms: C_30  and  C_31
REMARK                            x       y       z     vdW  Elec       q    Type
REMARK                         _______ _______ _______ _____ _____    ______ ____
ROOT
ATOM      1  C   UNL     1      -1.429  13.246  20.989  0.00  0.00    +0.000 A 
ATOM      2  C   UNL     1      -2.784  13.044  21.032  0.00  0.00    +0.000 A 
ATOM      3  N   UNL     1      -3.572  13.257  22.262  0.00  0.00    +0.000 N 
ATOM      4  C   UNL     1      -2.841  13.470  23.469  0.00  0.00    +0.000 A 
ATOM      5  C   UNL     1      -3.358  13.446  24.889  0.00  0.00    +0.000 C 
ATOM      6  C   UNL     1      -1.539  13.782  23.438  0.00  0.00    +0.000 A 
ATOM      7  C   UNL     1      -0.888  13.979  22.152  0.00  0.00    +0.000 A 
ATOM      8  O   UNL     1       0.093  14.719  22.098  0.00  0.00    +0.000 OA
ENDROOT
BRANCH   1  10
ATOM      9  N   UNL     1       0.445  11.933  19.852  0.00  0.00    +0.000 N 
ATOM     10  C   UNL     1      -0.536  12.946  19.798  0.00  0.00    +0.000 C 
ATOM     11  O   UNL     1      -0.712  13.574  18.752  0.00  0.00    +0.000 OA
BRANCH   9  12
ATOM     12  C   UNL     1       1.359  11.876  18.705  0.00  0.00    +0.000 C 
BRANCH  12  14
ATOM     13  C   UNL     1       1.376   9.430  17.872  0.00  0.00    +0.000 C 
ATOM     14  C   UNL     1       1.939  10.512  18.427  0.00  0.00    +0.000 C 
ENDBRANCH  12  14
ENDBRANCH   9  12
BRANCH   9  15
ATOM     15  C   UNL     1       0.770  11.146  21.051  0.00  0.00    +0.000 C 
BRANCH  15  16
ATOM     16  C   UNL     1      -0.287  10.187  21.514  0.00  0.00    +0.000 C 
ATOM     17  C   UNL     1      -0.704  10.088  22.785  0.00  0.00    +0.000 C 
ENDBRANCH  15  16
ENDBRANCH   9  15
ENDBRANCH   1  10
BRANCH   2  18
ATOM     18  C   UNL     1      -3.514  12.577  19.749  0.00  0.00    +0.000 C 
BRANCH  18  19
ATOM     19  O   UNL     1      -2.969  11.299  19.381  0.00  0.00    +0.000 OA
BRANCH  19  20
ATOM     20  C   UNL     1      -2.996  10.957  18.055  0.00  0.00    +0.000 A 
ATOM     21  C   UNL     1      -2.086  10.102  17.432  0.00  0.00    +0.000 A 
ATOM     22  C   UNL     1      -2.235   9.757  16.085  0.00  0.00    +0.000 A 
ATOM     23  C   UNL     1      -3.285  10.277  15.326  0.00  0.00    +0.000 A 
ATOM     24  C   UNL     1      -3.441   9.928  13.876  0.00  0.00    +0.000 C 
ATOM     25  C   UNL     1      -4.197  11.137  15.944  0.00  0.00    +0.000 A 
ATOM     26  C   UNL     1      -4.052  11.466  17.300  0.00  0.00    +0.000 A 
ENDBRANCH  19  20
ENDBRANCH  18  19
ENDBRANCH   2  18
BRANCH   3  27
ATOM     27  C   UNL     1      -5.077  13.109  22.192  0.00  0.00    +0.000 C 
BRANCH  27  28
ATOM     28  C   UNL     1      -5.827  14.277  21.528  0.00  0.00    +0.000 C 
BRANCH  28  29
ATOM     29  N   UNL     1      -7.275  14.180  21.245  0.00  0.00    +0.000 NA
ATOM     30  C   UNL     1      -7.787  12.808  21.078  0.00  0.00    +0.000 C 
ATOM     31  C   UNL     1      -7.260  12.106  19.819  0.00  0.00    +0.000 C 
ATOM     32  O   UNL     1      -7.559  12.863  18.636  0.00  0.00    +0.000 OA
ATOM     33  C   UNL     1      -7.035  14.193  18.722  0.00  0.00    +0.000 C 
ATOM     34  C   UNL     1      -7.556  14.918  19.979  0.00  0.00    +0.000 C 
ENDBRANCH  28  29
ENDBRANCH  27  28
ENDBRANCH   3  27
TORSDOF 11
ENDMDL
