MODEL 1
REMARK VINA RESULT:      -8.4      0.000      0.000
REMARK  Name = 
REMARK  3 active torsions:
REMARK  status: ('A' for Active; 'I' for Inactive)
REMARK    1  A    between atoms: C_2  and  C_3
REMARK    2  A    between atoms: C_2  and  C_9
REMARK    3  A    between atoms: C_19  and  C_20
REMARK                            x       y       z     vdW  Elec       q    Type
REMARK                         _______ _______ _______ _____ _____    ______ ____
ROOT
ATOM      1  C   UNL     1       5.754   4.913  15.803  0.00  0.00    +0.000 A 
ATOM      2  N   UNL     1       5.096   3.818  16.192  0.00  0.00    +0.000 NA
ATOM      3  C   UNL     1       4.231   3.984  17.203  0.00  0.00    +0.000 A 
ATOM      4  C   UNL     1       3.963   2.948  18.086  0.00  0.00    +0.000 A 
ATOM      5  C   UNL     1       3.068   3.123  19.149  0.00  0.00    +0.000 A 
ATOM      6  C   UNL     1       2.321   4.299  19.223  0.00  0.00    +0.000 A 
ATOM      7 CL   UNL     1       1.097   4.458  20.414  0.00  0.00    +0.000 Cl
ATOM      8  C   UNL     1       2.619   5.360  18.385  0.00  0.00    +0.000 A 
ATOM      9  C   UNL     1       3.708   5.247  17.507  0.00  0.00    +0.000 A 
ATOM     10  C   UNL     1       4.478   6.349  17.125  0.00  0.00    +0.000 A 
ATOM     11  C   UNL     1       5.743   6.048  16.601  0.00  0.00    +0.000 A 
ENDROOT
BRANCH  11  12
ATOM     12  C   UNL     1       7.004   6.177  17.460  0.00  0.00    +0.000 C 
ATOM     13 BR   UNL     1       7.657   7.984  17.537  0.00  0.00    +0.000 Br
ATOM     14 BR   UNL     1       6.766   5.396  19.257  0.00  0.00    +0.000 Br
ENDBRANCH  11  12
BRANCH   1  16
ATOM     15  O   UNL     1       7.723   5.461  14.672  0.00  0.00    +0.000 OA
ATOM     16  C   UNL     1       6.667   4.841  14.654  0.00  0.00    +0.000 C 
BRANCH  16  17
ATOM     17  C   UNL     1       6.283   4.084  13.423  0.00  0.00    +0.000 A 
ATOM     18  C   UNL     1       4.914   3.970  13.133  0.00  0.00    +0.000 A 
ATOM     19  C   UNL     1       4.487   3.221  12.036  0.00  0.00    +0.000 A 
ATOM     20  C   UNL     1       5.419   2.571  11.228  0.00  0.00    +0.000 A 
ATOM     21  C   UNL     1       6.784   2.673  11.519  0.00  0.00    +0.000 A 
ATOM     22  C   UNL     1       7.215   3.423  12.613  0.00  0.00    +0.000 A 
ENDBRANCH  16  17
ENDBRANCH   1  16
TORSDOF 3
ENDMDL
MODEL 2
REMARK VINA RESULT:      -8.4      0.156      1.042
REMARK  Name = 
REMARK  3 active torsions:
REMARK  status: ('A' for Active; 'I' for Inactive)
REMARK    1  A    between atoms: C_2  and  C_3
REMARK    2  A    between atoms: C_2  and  C_9
REMARK    3  A    between atoms: C_19  and  C_20
REMARK                            x       y       z     vdW  Elec       q    Type
REMARK                         _______ _______ _______ _____ _____    ______ ____
ROOT
ATOM      1  C   UNL     1       5.732   4.971  15.820  0.00  0.00    +0.000 A 
ATOM      2  N   UNL     1       5.059   3.901  16.251  0.00  0.00    +0.000 NA
ATOM      3  C   UNL     1       4.220   4.112  17.277  0.00  0.00    +0.000 A 
ATOM      4  C   UNL     1       3.950   3.105  18.192  0.00  0.00    +0.000 A 
ATOM      5  C   UNL     1       3.083   3.327  19.269  0.00  0.00    +0.000 A 
ATOM      6  C   UNL     1       2.365   4.522  19.330  0.00  0.00    +0.000 A 
ATOM      7 CL   UNL     1       1.172   4.739  20.544  0.00  0.00    +0.000 Cl
ATOM      8  C   UNL     1       2.667   5.554  18.459  0.00  0.00    +0.000 A 
ATOM      9  C   UNL     1       3.733   5.394  17.560  0.00  0.00    +0.000 A 
ATOM     10  C   UNL     1       4.519   6.468  17.133  0.00  0.00    +0.000 A 
ATOM     11  C   UNL     1       5.764   6.125  16.588  0.00  0.00    +0.000 A 
ENDROOT
BRANCH  11  12
ATOM     12  C   UNL     1       7.047   6.247  17.416  0.00  0.00    +0.000 C 
ATOM     13 BR   UNL     1       7.686   8.057  17.517  0.00  0.00    +0.000 Br
ATOM     14 BR   UNL     1       6.866   5.422  19.200  0.00  0.00    +0.000 Br
ENDBRANCH  11  12
BRANCH   1  16
ATOM     15  O   UNL     1       7.672   5.469  14.619  0.00  0.00    +0.000 OA
ATOM     16  C   UNL     1       6.617   4.849  14.653  0.00  0.00    +0.000 C 
BRANCH  16  17
ATOM     17  C   UNL     1       6.202   4.040  13.466  0.00  0.00    +0.000 A 
ATOM     18  C   UNL     1       7.218   3.492  12.668  0.00  0.00    +0.000 A 
ATOM     19  C   UNL     1       6.899   2.783  11.509  0.00  0.00    +0.000 A 
ATOM     20  C   UNL     1       5.566   2.625  11.131  0.00  0.00    +0.000 A 
ATOM     21  C   UNL     1       4.550   3.178  11.919  0.00  0.00    +0.000 A 
ATOM     22  C   UNL     1       4.865   3.885  13.078  0.00  0.00    +0.000 A 
ENDBRANCH  16  17
ENDBRANCH   1  16
TORSDOF 3
ENDMDL
MODEL 3
REMARK VINA RESULT:      -8.3      3.596      5.310
REMARK  Name = 
REMARK  3 active torsions:
REMARK  status: ('A' for Active; 'I' for Inactive)
REMARK    1  A    between atoms: C_2  and  C_3
REMARK    2  A    between atoms: C_2  and  C_9
REMARK    3  A    between atoms: C_19  and  C_20
REMARK                            x       y       z     vdW  Elec       q    Type
REMARK                         _______ _______ _______ _____ _____    ______ ____
ROOT
ATOM      1  C   UNL     1       3.405   5.434  19.205  0.00  0.00    +0.000 A 
ATOM      2  N   UNL     1       3.439   6.514  18.420  0.00  0.00    +0.000 NA
ATOM      3  C   UNL     1       2.566   7.486  18.726  0.00  0.00    +0.000 A 
ATOM      4  C   UNL     1       2.054   8.317  17.739  0.00  0.00    +0.000 A 
ATOM      5  C   UNL     1       1.135   9.325  18.054  0.00  0.00    +0.000 A 
ATOM      6  C   UNL     1       0.855   9.595  19.394  0.00  0.00    +0.000 A 
ATOM      7 CL   UNL     1      -0.132  10.938  19.805  0.00  0.00    +0.000 Cl
ATOM      8  C   UNL     1       1.313   8.740  20.382  0.00  0.00    +0.000 A 
ATOM      9  C   UNL     1       2.010   7.581  20.007  0.00  0.00    +0.000 A 
ATOM     10  C   UNL     1       1.951   6.400  20.751  0.00  0.00    +0.000 A 
ATOM     11  C   UNL     1       2.338   5.238  20.068  0.00  0.00    +0.000 A 
ENDROOT
BRANCH  11  12
ATOM     12  C   UNL     1       1.293   4.270  19.504  0.00  0.00    +0.000 C 
ATOM     13 BR   UNL     1       1.437   4.064  17.598  0.00  0.00    +0.000 Br
ATOM     14 BR   UNL     1       1.301   2.534  20.443  0.00  0.00    +0.000 Br
ENDBRANCH  11  12
BRANCH   1  16
ATOM     15  O   UNL     1       4.520   3.483  19.841  0.00  0.00    +0.000 OA
ATOM     16  C   UNL     1       4.376   4.352  18.990  0.00  0.00    +0.000 C 
BRANCH  16  17
ATOM     17  C   UNL     1       5.253   4.345  17.780  0.00  0.00    +0.000 A 
ATOM     18  C   UNL     1       6.590   4.741  17.945  0.00  0.00    +0.000 A 
ATOM     19  C   UNL     1       7.442   4.820  16.843  0.00  0.00    +0.000 A 
ATOM     20  C   UNL     1       6.966   4.518  15.567  0.00  0.00    +0.000 A 
ATOM     21  C   UNL     1       5.631   4.133  15.397  0.00  0.00    +0.000 A 
ATOM     22  C   UNL     1       4.777   4.051  16.495  0.00  0.00    +0.000 A 
ENDBRANCH  16  17
ENDBRANCH   1  16
TORSDOF 3
ENDMDL
MODEL 4
REMARK VINA RESULT:      -8.3      3.597      5.275
REMARK  Name = 
REMARK  3 active torsions:
REMARK  status: ('A' for Active; 'I' for Inactive)
REMARK    1  A    between atoms: C_2  and  C_3
REMARK    2  A    between atoms: C_2  and  C_9
REMARK    3  A    between atoms: C_19  and  C_20
REMARK                            x       y       z     vdW  Elec       q    Type
REMARK                         _______ _______ _______ _____ _____    ______ ____
ROOT
ATOM      1  C   UNL     1       3.391   5.489  19.207  0.00  0.00    +0.000 A 
ATOM      2  N   UNL     1       3.409   6.574  18.428  0.00  0.00    +0.000 NA
ATOM      3  C   UNL     1       2.530   7.536  18.745  0.00  0.00    +0.000 A 
ATOM      4  C   UNL     1       2.003   8.367  17.767  0.00  0.00    +0.000 A 
ATOM      5  C   UNL     1       1.077   9.365  18.094  0.00  0.00    +0.000 A 
ATOM      6  C   UNL     1       0.805   9.626  19.437  0.00  0.00    +0.000 A 
ATOM      7 CL   UNL     1      -0.191  10.957  19.862  0.00  0.00    +0.000 Cl
ATOM      8  C   UNL     1       1.277   8.770  20.417  0.00  0.00    +0.000 A 
ATOM      9  C   UNL     1       1.982   7.619  20.031  0.00  0.00    +0.000 A 
ATOM     10  C   UNL     1       1.940   6.433  20.769  0.00  0.00    +0.000 A 
ATOM     11  C   UNL     1       2.332   5.279  20.077  0.00  0.00    +0.000 A 
ENDROOT
BRANCH  11  12
ATOM     12  C   UNL     1       1.292   4.305  19.516  0.00  0.00    +0.000 C 
ATOM     13 BR   UNL     1       1.453   4.074  17.614  0.00  0.00    +0.000 Br
ATOM     14 BR   UNL     1       1.289   2.580  20.476  0.00  0.00    +0.000 Br
ENDBRANCH  11  12
BRANCH   1  16
ATOM     15  O   UNL     1       4.475   3.504  19.790  0.00  0.00    +0.000 OA
ATOM     16  C   UNL     1       4.370   4.417  18.980  0.00  0.00    +0.000 C 
BRANCH  16  17
ATOM     17  C   UNL     1       5.301   4.471  17.812  0.00  0.00    +0.000 A 
ATOM     18  C   UNL     1       4.815   4.024  16.573  0.00  0.00    +0.000 A 
ATOM     19  C   UNL     1       5.654   3.988  15.459  0.00  0.00    +0.000 A 
ATOM     20  C   UNL     1       6.986   4.384  15.573  0.00  0.00    +0.000 A 
ATOM     21  C   UNL     1       7.478   4.821  16.809  0.00  0.00    +0.000 A 
ATOM     22  C   UNL     1       6.642   4.862  17.924  0.00  0.00    +0.000 A 
ENDBRANCH  16  17
ENDBRANCH   1  16
TORSDOF 3
ENDMDL
MODEL 5
REMARK VINA RESULT:      -8.2      3.269      4.860
REMARK  Name = 
REMARK  3 active torsions:
REMARK  status: ('A' for Active; 'I' for Inactive)
REMARK    1  A    between atoms: C_2  and  C_3
REMARK    2  A    between atoms: C_2  and  C_9
REMARK    3  A    between atoms: C_19  and  C_20
REMARK                            x       y       z     vdW  Elec       q    Type
REMARK                         _______ _______ _______ _____ _____    ______ ____
ROOT
ATOM      1  C   UNL     1       4.077   5.442  18.857  0.00  0.00    +0.000 A 
ATOM      2  N   UNL     1       3.890   6.574  18.172  0.00  0.00    +0.000 NA
ATOM      3  C   UNL     1       2.885   7.354  18.598  0.00  0.00    +0.000 A 
ATOM      4  C   UNL     1       2.191   8.164  17.711  0.00  0.00    +0.000 A 
ATOM      5  C   UNL     1       1.134   8.972  18.151  0.00  0.00    +0.000 A 
ATOM      6  C   UNL     1       0.885   9.079  19.519  0.00  0.00    +0.000 A 
ATOM      7 CL   UNL     1      -0.289  10.195  20.087  0.00  0.00    +0.000 Cl
ATOM      8  C   UNL     1       1.529   8.235  20.407  0.00  0.00    +0.000 A 
ATOM      9  C   UNL     1       2.388   7.247  19.903  0.00  0.00    +0.000 A 
ATOM     10  C   UNL     1       2.566   6.015  20.538  0.00  0.00    +0.000 A 
ATOM     11  C   UNL     1       3.104   4.997  19.739  0.00  0.00    +0.000 A 
ENDROOT
BRANCH  11  12
ATOM     12  C   UNL     1       2.206   3.915  19.129  0.00  0.00    +0.000 C 
ATOM     13 BR   UNL     1       0.901   3.257  20.377  0.00  0.00    +0.000 Br
ATOM     14 BR   UNL     1       1.385   4.497  17.431  0.00  0.00    +0.000 Br
ENDBRANCH  11  12
BRANCH   1  16
ATOM     15  O   UNL     1       5.777   3.930  19.386  0.00  0.00    +0.000 OA
ATOM     16  C   UNL     1       5.202   4.562  18.509  0.00  0.00    +0.000 C 
BRANCH  16  17
ATOM     17  C   UNL     1       5.708   4.494  17.104  0.00  0.00    +0.000 A 
ATOM     18  C   UNL     1       7.009   4.961  16.859  0.00  0.00    +0.000 A 
ATOM     19  C   UNL     1       7.516   4.987  15.560  0.00  0.00    +0.000 A 
ATOM     20  C   UNL     1       6.726   4.559  14.493  0.00  0.00    +0.000 A 
ATOM     21  C   UNL     1       5.424   4.102  14.731  0.00  0.00    +0.000 A 
ATOM     22  C   UNL     1       4.915   4.072  16.028  0.00  0.00    +0.000 A 
ENDBRANCH  16  17
ENDBRANCH   1  16
TORSDOF 3
ENDMDL
MODEL 6
REMARK VINA RESULT:      -8.1      3.287      4.803
REMARK  Name = 
REMARK  3 active torsions:
REMARK  status: ('A' for Active; 'I' for Inactive)
REMARK    1  A    between atoms: C_2  and  C_3
REMARK    2  A    between atoms: C_2  and  C_9
REMARK    3  A    between atoms: C_19  and  C_20
REMARK                            x       y       z     vdW  Elec       q    Type
REMARK                         _______ _______ _______ _____ _____    ______ ____
ROOT
ATOM      1  C   UNL     1       4.039   5.494  18.849  0.00  0.00    +0.000 A 
ATOM      2  N   UNL     1       3.841   6.630  18.175  0.00  0.00    +0.000 NA
ATOM      3  C   UNL     1       2.835   7.401  18.615  0.00  0.00    +0.000 A 
ATOM      4  C   UNL     1       2.130   8.215  17.740  0.00  0.00    +0.000 A 
ATOM      5  C   UNL     1       1.073   9.014  18.194  0.00  0.00    +0.000 A 
ATOM      6  C   UNL     1       0.833   9.108  19.565  0.00  0.00    +0.000 A 
ATOM      7 CL   UNL     1      -0.342  10.213  20.150  0.00  0.00    +0.000 Cl
ATOM      8  C   UNL     1       1.488   8.260  20.441  0.00  0.00    +0.000 A 
ATOM      9  C   UNL     1       2.349   7.281  19.922  0.00  0.00    +0.000 A 
ATOM     10  C   UNL     1       2.538   6.044  20.546  0.00  0.00    +0.000 A 
ATOM     11  C   UNL     1       3.075   5.036  19.734  0.00  0.00    +0.000 A 
ENDROOT
BRANCH  11  12
ATOM     12  C   UNL     1       2.179   3.955  19.122  0.00  0.00    +0.000 C 
ATOM     13 BR   UNL     1       0.864   3.303  20.364  0.00  0.00    +0.000 Br
ATOM     14 BR   UNL     1       1.369   4.534  17.418  0.00  0.00    +0.000 Br
ENDBRANCH  11  12
BRANCH   1  16
ATOM     15  O   UNL     1       5.701   3.928  19.339  0.00  0.00    +0.000 OA
ATOM     16  C   UNL     1       5.166   4.623  18.485  0.00  0.00    +0.000 C 
BRANCH  16  17
ATOM     17  C   UNL     1       5.723   4.639  17.098  0.00  0.00    +0.000 A 
ATOM     18  C   UNL     1       4.928   4.101  16.074  0.00  0.00    +0.000 A 
ATOM     19  C   UNL     1       5.417   4.025  14.769  0.00  0.00    +0.000 A 
ATOM     20  C   UNL     1       6.704   4.474  14.477  0.00  0.00    +0.000 A 
ATOM     21  C   UNL     1       7.504   5.002  15.497  0.00  0.00    +0.000 A 
ATOM     22  C   UNL     1       7.019   5.082  16.802  0.00  0.00    +0.000 A 
ENDBRANCH  16  17
ENDBRANCH   1  16
TORSDOF 3
ENDMDL
MODEL 7
REMARK VINA RESULT:      -8.0      2.755      3.929
REMARK  Name = 
REMARK  3 active torsions:
REMARK  status: ('A' for Active; 'I' for Inactive)
REMARK    1  A    between atoms: C_2  and  C_3
REMARK    2  A    between atoms: C_2  and  C_9
REMARK    3  A    between atoms: C_19  and  C_20
REMARK                            x       y       z     vdW  Elec       q    Type
REMARK                         _______ _______ _______ _____ _____    ______ ____
ROOT
ATOM      1  C   UNL     1       4.891   5.385  17.896  0.00  0.00    +0.000 A 
ATOM      2  N   UNL     1       4.600   6.633  17.520  0.00  0.00    +0.000 NA
ATOM      3  C   UNL     1       3.546   7.196  18.128  0.00  0.00    +0.000 A 
ATOM      4  C   UNL     1       2.772   8.144  17.475  0.00  0.00    +0.000 A 
ATOM      5  C   UNL     1       1.664   8.725  18.104  0.00  0.00    +0.000 A 
ATOM      6  C   UNL     1       1.435   8.464  19.455  0.00  0.00    +0.000 A 
ATOM      7 CL   UNL     1       0.188   9.301  20.286  0.00  0.00    +0.000 Cl
ATOM      8  C   UNL     1       2.162   7.479  20.101  0.00  0.00    +0.000 A 
ATOM      9  C   UNL     1       3.087   6.723  19.364  0.00  0.00    +0.000 A 
ATOM     10  C   UNL     1       3.374   5.390  19.667  0.00  0.00    +0.000 A 
ATOM     11  C   UNL     1       3.975   4.654  18.637  0.00  0.00    +0.000 A 
ENDROOT
BRANCH  11  12
ATOM     12  C   UNL     1       3.153   3.691  17.774  0.00  0.00    +0.000 C 
ATOM     13 BR   UNL     1       3.482   1.849  18.214  0.00  0.00    +0.000 Br
ATOM     14 BR   UNL     1       1.229   4.128  17.793  0.00  0.00    +0.000 Br
ENDBRANCH  11  12
BRANCH   1  16
ATOM     15  O   UNL     1       6.942   4.283  18.086  0.00  0.00    +0.000 OA
ATOM     16  C   UNL     1       6.075   4.716  17.338  0.00  0.00    +0.000 C 
BRANCH  16  17
ATOM     17  C   UNL     1       6.273   4.632  15.858  0.00  0.00    +0.000 A 
ATOM     18  C   UNL     1       5.313   3.930  15.113  0.00  0.00    +0.000 A 
ATOM     19  C   UNL     1       5.475   3.759  13.738  0.00  0.00    +0.000 A 
ATOM     20  C   UNL     1       6.601   4.276  13.097  0.00  0.00    +0.000 A 
ATOM     21  C   UNL     1       7.566   4.967  13.837  0.00  0.00    +0.000 A 
ATOM     22  C   UNL     1       7.407   5.143  15.211  0.00  0.00    +0.000 A 
ENDBRANCH  16  17
ENDBRANCH   1  16
TORSDOF 3
ENDMDL
MODEL 8
REMARK VINA RESULT:      -8.0      2.784      4.056
REMARK  Name = 
REMARK  3 active torsions:
REMARK  status: ('A' for Active; 'I' for Inactive)
REMARK    1  A    between atoms: C_2  and  C_3
REMARK    2  A    between atoms: C_2  and  C_9
REMARK    3  A    between atoms: C_19  and  C_20
REMARK                            x       y       z     vdW  Elec       q    Type
REMARK                         _______ _______ _______ _____ _____    ______ ____
ROOT
ATOM      1  C   UNL     1       4.879   5.341  17.968  0.00  0.00    +0.000 A 
ATOM      2  N   UNL     1       4.613   6.586  17.565  0.00  0.00    +0.000 NA
ATOM      3  C   UNL     1       3.555   7.173  18.142  0.00  0.00    +0.000 A 
ATOM      4  C   UNL     1       2.807   8.120  17.456  0.00  0.00    +0.000 A 
ATOM      5  C   UNL     1       1.695   8.727  18.053  0.00  0.00    +0.000 A 
ATOM      6  C   UNL     1       1.435   8.492  19.403  0.00  0.00    +0.000 A 
ATOM      7 CL   UNL     1       0.183   9.361  20.194  0.00  0.00    +0.000 Cl
ATOM      8  C   UNL     1       2.135   7.509  20.081  0.00  0.00    +0.000 A 
ATOM      9  C   UNL     1       3.063   6.728  19.375  0.00  0.00    +0.000 A 
ATOM     10  C   UNL     1       3.326   5.397  19.707  0.00  0.00    +0.000 A 
ATOM     11  C   UNL     1       3.938   4.635  18.702  0.00  0.00    +0.000 A 
ENDROOT
BRANCH  11  12
ATOM     12  C   UNL     1       3.120   3.668  17.839  0.00  0.00    +0.000 C 
ATOM     13 BR   UNL     1       3.543   1.828  18.197  0.00  0.00    +0.000 Br
ATOM     14 BR   UNL     1       1.182   4.022  17.953  0.00  0.00    +0.000 Br
ENDBRANCH  11  12
BRANCH   1  16
ATOM     15  O   UNL     1       6.933   4.257  18.215  0.00  0.00    +0.000 OA
ATOM     16  C   UNL     1       6.064   4.646  17.446  0.00  0.00    +0.000 C 
BRANCH  16  17
ATOM     17  C   UNL     1       6.262   4.483  15.973  0.00  0.00    +0.000 A 
ATOM     18  C   UNL     1       7.333   5.171  15.382  0.00  0.00    +0.000 A 
ATOM     19  C   UNL     1       7.531   5.113  14.002  0.00  0.00    +0.000 A 
ATOM     20  C   UNL     1       6.658   4.380  13.200  0.00  0.00    +0.000 A 
ATOM     21  C   UNL     1       5.582   3.701  13.783  0.00  0.00    +0.000 A 
ATOM     22  C   UNL     1       5.381   3.754  15.162  0.00  0.00    +0.000 A 
ENDBRANCH  16  17
ENDBRANCH   1  16
TORSDOF 3
ENDMDL
MODEL 9
REMARK VINA RESULT:      -7.9      1.843      2.401
REMARK  Name = 
REMARK  3 active torsions:
REMARK  status: ('A' for Active; 'I' for Inactive)
REMARK    1  A    between atoms: C_2  and  C_3
REMARK    2  A    between atoms: C_2  and  C_9
REMARK    3  A    between atoms: C_19  and  C_20
REMARK                            x       y       z     vdW  Elec       q    Type
REMARK                         _______ _______ _______ _____ _____    ______ ____
ROOT
ATOM      1  C   UNL     1       4.982   5.036  16.514  0.00  0.00    +0.000 A 
ATOM      2  N   UNL     1       3.935   4.766  17.298  0.00  0.00    +0.000 NA
ATOM      3  C   UNL     1       3.373   5.821  17.906  0.00  0.00    +0.000 A 
ATOM      4  C   UNL     1       2.753   5.683  19.139  0.00  0.00    +0.000 A 
ATOM      5  C   UNL     1       2.175   6.785  19.781  0.00  0.00    +0.000 A 
ATOM      6  C   UNL     1       2.086   7.999  19.100  0.00  0.00    +0.000 A 
ATOM      7 CL   UNL     1       1.227   9.309  19.801  0.00  0.00    +0.000 Cl
ATOM      8  C   UNL     1       2.750   8.166  17.897  0.00  0.00    +0.000 A 
ATOM      9  C   UNL     1       3.547   7.119  17.410  0.00  0.00    +0.000 A 
ATOM     10  C   UNL     1       4.696   7.347  16.647  0.00  0.00    +0.000 A 
ATOM     11  C   UNL     1       5.599   6.276  16.584  0.00  0.00    +0.000 A 
ENDROOT
BRANCH  11  12
ATOM     12  C   UNL     1       6.862   6.258  17.451  0.00  0.00    +0.000 C 
ATOM     13 BR   UNL     1       7.661   7.998  17.619  0.00  0.00    +0.000 Br
ATOM     14 BR   UNL     1       6.551   5.410  19.206  0.00  0.00    +0.000 Br
ENDBRANCH  11  12
BRANCH   1  16
ATOM     15  O   UNL     1       5.745   2.844  16.253  0.00  0.00    +0.000 OA
ATOM     16  C   UNL     1       5.614   3.952  15.748  0.00  0.00    +0.000 C 
BRANCH  16  17
ATOM     17  C   UNL     1       6.176   4.209  14.387  0.00  0.00    +0.000 A 
ATOM     18  C   UNL     1       5.595   3.528  13.306  0.00  0.00    +0.000 A 
ATOM     19  C   UNL     1       6.116   3.674  12.020  0.00  0.00    +0.000 A 
ATOM     20  C   UNL     1       7.226   4.489  11.804  0.00  0.00    +0.000 A 
ATOM     21  C   UNL     1       7.815   5.162  12.880  0.00  0.00    +0.000 A 
ATOM     22  C   UNL     1       7.296   5.022  14.166  0.00  0.00    +0.000 A 
ENDBRANCH  16  17
ENDBRANCH   1  16
TORSDOF 3
ENDMDL
