MODEL 1
REMARK VINA RESULT:      -8.3      0.000      0.000
REMARK  Name = 
REMARK  11 active torsions:
REMARK  status: ('A' for Active; 'I' for Inactive)
REMARK    1  A    between atoms: C_1  and  C_2
REMARK    2  A    between atoms: C_2  and  O_3
REMARK    3  A    between atoms: O_3  and  C_4
REMARK    4  A    between atoms: C_9  and  C_10
REMARK    5  A    between atoms: N_12  and  N_13
REMARK    6  A    between atoms: C_14  and  C_16
REMARK    7  A    between atoms: C_20  and  S_21
REMARK    8  A    between atoms: S_21  and  N_24
REMARK    9  A    between atoms: N_24  and  C_25
REMARK   10  A    between atoms: C_28  and  O_29
REMARK   11  A    between atoms: O_29  and  C_30
REMARK                            x       y       z     vdW  Elec       q    Type
REMARK                         _______ _______ _______ _____ _____    ______ ____
ROOT
ATOM      1  C   UNL     1       3.497   6.158  19.146  0.00  0.00    +0.000 A 
ATOM      2  C   UNL     1       3.159   4.868  19.579  0.00  0.00    +0.000 A 
ATOM      3  C   UNL     1       4.086   3.827  19.501  0.00  0.00    +0.000 A 
ATOM      4  C   UNL     1       5.354   4.066  18.974  0.00  0.00    +0.000 A 
ATOM      5  C   UNL     1       5.687   5.343  18.510  0.00  0.00    +0.000 A 
ATOM      6  C   UNL     1       4.769   6.397  18.606  0.00  0.00    +0.000 A 
ENDROOT
BRANCH   1   8
ATOM      7  N   UNL     1       1.967   7.437  20.548  0.00  0.00    +0.000 N 
ATOM      8  C   UNL     1       2.474   7.233  19.283  0.00  0.00    +0.000 C 
ATOM      9  O   UNL     1       2.100   7.865  18.299  0.00  0.00    +0.000 OA
ATOM     10  H   UNL     1       2.167   6.851  21.357  0.00  0.00    +0.000 HD
BRANCH   7  13
ATOM     11  C   UNL     1       1.012   9.252  21.759  0.00  0.00    +0.000 C 
ATOM     12  O   UNL     1       1.917   9.193  22.592  0.00  0.00    +0.000 OA
ATOM     13  N   UNL     1       0.936   8.359  20.713  0.00  0.00    +0.000 N 
ATOM     14  H   UNL     1       0.198   8.374  20.005  0.00  0.00    +0.000 HD
BRANCH  11  20
ATOM     15  C   UNL     1      -0.299  11.251  20.862  0.00  0.00    +0.000 A 
ATOM     16  N   UNL     1      -1.238  12.223  20.987  0.00  0.00    +0.000 NA
ATOM     17  C   UNL     1      -1.920  12.283  22.150  0.00  0.00    +0.000 A 
ATOM     18  C   UNL     1      -1.711  11.412  23.202  0.00  0.00    +0.000 A 
ATOM     19  C   UNL     1      -0.753  10.415  23.049  0.00  0.00    +0.000 A 
ATOM     20  C   UNL     1      -0.027  10.312  21.854  0.00  0.00    +0.000 A 
BRANCH  15  21
ATOM     21  O   UNL     1       0.386  11.184  19.665  0.00  0.00    +0.000 OA
BRANCH  21  23
ATOM     22  C   UNL     1      -1.036  10.193  18.027  0.00  0.00    +0.000 C 
ATOM     23  C   UNL     1      -0.438  11.491  18.538  0.00  0.00    +0.000 C 
ENDBRANCH  21  23
ENDBRANCH  15  21
ENDBRANCH  11  20
ENDBRANCH   7  13
ENDBRANCH   1   8
BRANCH   5  24
ATOM     24  S   UNL     1       7.320   5.642  17.866  0.00  0.00    +0.000 S 
ATOM     25  O   UNL     1       7.939   6.653  18.693  0.00  0.00    +0.000 OA
ATOM     26  O   UNL     1       7.940   4.348  17.670  0.00  0.00    +0.000 OA
BRANCH  24  27
ATOM     27  N   UNL     1       7.032   6.265  16.325  0.00  0.00    +0.000 N 
ATOM     28  H   UNL     1       7.598   7.081  16.101  0.00  0.00    +0.000 HD
BRANCH  27  29
ATOM     29  C   UNL     1       6.682   5.377  15.276  0.00  0.00    +0.000 A 
ATOM     30  C   UNL     1       7.553   5.219  14.202  0.00  0.00    +0.000 A 
ATOM     31  C   UNL     1       7.197   4.387  13.139  0.00  0.00    +0.000 A 
ATOM     32  C   UNL     1       5.970   3.721  13.142  0.00  0.00    +0.000 A 
ATOM     33  C   UNL     1       5.093   3.898  14.215  0.00  0.00    +0.000 A 
ATOM     34  C   UNL     1       5.457   4.714  15.290  0.00  0.00    +0.000 A 
BRANCH  32  35
ATOM     35  O   UNL     1       5.717   2.962  12.033  0.00  0.00    +0.000 OA
ATOM     36  C   UNL     1       4.429   3.125  11.452  0.00  0.00    +0.000 C 
ENDBRANCH  32  35
ENDBRANCH  27  29
ENDBRANCH  24  27
ENDBRANCH   5  24
TORSDOF 9
ENDMDL
MODEL 2
REMARK VINA RESULT:      -8.0      1.133      1.412
REMARK  Name = 
REMARK  11 active torsions:
REMARK  status: ('A' for Active; 'I' for Inactive)
REMARK    1  A    between atoms: C_1  and  C_2
REMARK    2  A    between atoms: C_2  and  O_3
REMARK    3  A    between atoms: O_3  and  C_4
REMARK    4  A    between atoms: C_9  and  C_10
REMARK    5  A    between atoms: N_12  and  N_13
REMARK    6  A    between atoms: C_14  and  C_16
REMARK    7  A    between atoms: C_20  and  S_21
REMARK    8  A    between atoms: S_21  and  N_24
REMARK    9  A    between atoms: N_24  and  C_25
REMARK   10  A    between atoms: C_28  and  O_29
REMARK   11  A    between atoms: O_29  and  C_30
REMARK                            x       y       z     vdW  Elec       q    Type
REMARK                         _______ _______ _______ _____ _____    ______ ____
ROOT
ATOM      1  C   UNL     1       3.196   6.739  18.070  0.00  0.00    +0.000 A 
ATOM      2  C   UNL     1       2.499   5.524  18.139  0.00  0.00    +0.000 A 
ATOM      3  C   UNL     1       3.167   4.311  17.963  0.00  0.00    +0.000 A 
ATOM      4  C   UNL     1       4.537   4.305  17.700  0.00  0.00    +0.000 A 
ATOM      5  C   UNL     1       5.231   5.516  17.598  0.00  0.00    +0.000 A 
ATOM      6  C   UNL     1       4.571   6.735  17.795  0.00  0.00    +0.000 A 
ENDROOT
BRANCH   1   8
ATOM      7  N   UNL     1       1.984   8.219  19.581  0.00  0.00    +0.000 N 
ATOM      8  C   UNL     1       2.431   7.998  18.297  0.00  0.00    +0.000 C 
ATOM      9  O   UNL     1       2.200   8.761  17.363  0.00  0.00    +0.000 OA
ATOM     10  H   UNL     1       2.054   7.550  20.345  0.00  0.00    +0.000 HD
BRANCH   7  13
ATOM     11  C   UNL     1       0.222   9.244  20.812  0.00  0.00    +0.000 C 
ATOM     12  O   UNL     1       0.009   8.192  21.415  0.00  0.00    +0.000 OA
ATOM     13  N   UNL     1       1.178   9.330  19.824  0.00  0.00    +0.000 N 
ATOM     14  H   UNL     1       1.380  10.183  19.299  0.00  0.00    +0.000 HD
BRANCH  11  20
ATOM     15  C   UNL     1      -1.073  11.364  20.219  0.00  0.00    +0.000 A 
ATOM     16  N   UNL     1      -1.752  12.489  20.559  0.00  0.00    +0.000 NA
ATOM     17  C   UNL     1      -1.897  12.754  21.874  0.00  0.00    +0.000 A 
ATOM     18  C   UNL     1      -1.398  11.943  22.876  0.00  0.00    +0.000 A 
ATOM     19  C   UNL     1      -0.716  10.787  22.506  0.00  0.00    +0.000 A 
ATOM     20  C   UNL     1      -0.548  10.471  21.151  0.00  0.00    +0.000 A 
BRANCH  15  21
ATOM     21  O   UNL     1      -0.938  11.090  18.873  0.00  0.00    +0.000 OA
BRANCH  21  23
ATOM     22  C   UNL     1      -2.476   9.901  17.490  0.00  0.00    +0.000 C 
ATOM     23  C   UNL     1      -2.166  11.230  18.155  0.00  0.00    +0.000 C 
ENDBRANCH  21  23
ENDBRANCH  15  21
ENDBRANCH  11  20
ENDBRANCH   7  13
ENDBRANCH   1   8
BRANCH   5  24
ATOM     24  S   UNL     1       6.986   5.494  17.291  0.00  0.00    +0.000 S 
ATOM     25  O   UNL     1       7.603   6.424  18.210  0.00  0.00    +0.000 OA
ATOM     26  O   UNL     1       7.389   4.104  17.245  0.00  0.00    +0.000 OA
BRANCH  24  27
ATOM     27  N   UNL     1       7.121   6.076  15.714  0.00  0.00    +0.000 N 
ATOM     28  H   UNL     1       7.913   6.700  15.574  0.00  0.00    +0.000 HD
BRANCH  27  29
ATOM     29  C   UNL     1       6.714   5.250  14.636  0.00  0.00    +0.000 A 
ATOM     30  C   UNL     1       5.421   4.732  14.629  0.00  0.00    +0.000 A 
ATOM     31  C   UNL     1       5.024   3.876  13.601  0.00  0.00    +0.000 A 
ATOM     32  C   UNL     1       5.917   3.528  12.585  0.00  0.00    +0.000 A 
ATOM     33  C   UNL     1       7.217   4.036  12.608  0.00  0.00    +0.000 A 
ATOM     34  C   UNL     1       7.611   4.911  13.625  0.00  0.00    +0.000 A 
BRANCH  32  35
ATOM     35  O   UNL     1       5.426   2.657  11.653  0.00  0.00    +0.000 OA
ATOM     36  C   UNL     1       4.131   2.958  11.146  0.00  0.00    +0.000 C 
ENDBRANCH  32  35
ENDBRANCH  27  29
ENDBRANCH  24  27
ENDBRANCH   5  24
TORSDOF 9
ENDMDL
MODEL 3
REMARK VINA RESULT:      -7.9      3.497      9.385
REMARK  Name = 
REMARK  11 active torsions:
REMARK  status: ('A' for Active; 'I' for Inactive)
REMARK    1  A    between atoms: C_1  and  C_2
REMARK    2  A    between atoms: C_2  and  O_3
REMARK    3  A    between atoms: O_3  and  C_4
REMARK    4  A    between atoms: C_9  and  C_10
REMARK    5  A    between atoms: N_12  and  N_13
REMARK    6  A    between atoms: C_14  and  C_16
REMARK    7  A    between atoms: C_20  and  S_21
REMARK    8  A    between atoms: S_21  and  N_24
REMARK    9  A    between atoms: N_24  and  C_25
REMARK   10  A    between atoms: C_28  and  O_29
REMARK   11  A    between atoms: O_29  and  C_30
REMARK                            x       y       z     vdW  Elec       q    Type
REMARK                         _______ _______ _______ _____ _____    ______ ____
ROOT
ATOM      1  C   UNL     1       0.149   9.591  21.416  0.00  0.00    +0.000 A 
ATOM      2  C   UNL     1      -0.122   9.719  22.785  0.00  0.00    +0.000 A 
ATOM      3  C   UNL     1      -0.946  10.745  23.253  0.00  0.00    +0.000 A 
ATOM      4  C   UNL     1      -1.492  11.660  22.354  0.00  0.00    +0.000 A 
ATOM      5  C   UNL     1      -1.198  11.556  20.990  0.00  0.00    +0.000 A 
ATOM      6  C   UNL     1      -0.390  10.517  20.512  0.00  0.00    +0.000 A 
ENDROOT
BRANCH   1   8
ATOM      7  N   UNL     1       1.593   8.577  19.733  0.00  0.00    +0.000 N 
ATOM      8  C   UNL     1       1.012   8.457  20.977  0.00  0.00    +0.000 C 
ATOM      9  O   UNL     1       1.152   7.469  21.692  0.00  0.00    +0.000 OA
ATOM     10  H   UNL     1       1.399   9.325  19.069  0.00  0.00    +0.000 HD
BRANCH   7  13
ATOM     11  C   UNL     1       2.842   7.595  17.959  0.00  0.00    +0.000 C 
ATOM     12  O   UNL     1       2.597   8.558  17.232  0.00  0.00    +0.000 OA
ATOM     13  N   UNL     1       2.326   7.503  19.233  0.00  0.00    +0.000 N 
ATOM     14  H   UNL     1       2.503   6.718  19.864  0.00  0.00    +0.000 HD
BRANCH  11  20
ATOM     15  C   UNL     1       3.462   5.140  17.629  0.00  0.00    +0.000 A 
ATOM     16  N   UNL     1       4.301   4.161  17.202  0.00  0.00    +0.000 NA
ATOM     17  C   UNL     1       5.459   4.544  16.624  0.00  0.00    +0.000 A 
ATOM     18  C   UNL     1       5.823   5.865  16.446  0.00  0.00    +0.000 A 
ATOM     19  C   UNL     1       4.943   6.853  16.880  0.00  0.00    +0.000 A 
ATOM     20  C   UNL     1       3.727   6.499  17.480  0.00  0.00    +0.000 A 
BRANCH  15  21
ATOM     21  O   UNL     1       2.272   4.745  18.207  0.00  0.00    +0.000 OA
BRANCH  21  23
ATOM     22  C   UNL     1       1.467   4.118  20.364  0.00  0.00    +0.000 C 
ATOM     23  C   UNL     1       2.457   3.795  19.260  0.00  0.00    +0.000 C 
ENDBRANCH  21  23
ENDBRANCH  15  21
ENDBRANCH  11  20
ENDBRANCH   7  13
ENDBRANCH   1   8
BRANCH   5  24
ATOM     24  S   UNL     1      -1.926  12.715  19.848  0.00  0.00    +0.000 S 
ATOM     25  O   UNL     1      -2.320  13.884  20.602  0.00  0.00    +0.000 OA
ATOM     26  O   UNL     1      -1.024  12.817  18.720  0.00  0.00    +0.000 OA
BRANCH  24  27
ATOM     27  N   UNL     1      -3.297  11.910  19.285  0.00  0.00    +0.000 N 
ATOM     28  H   UNL     1      -4.171  12.305  19.624  0.00  0.00    +0.000 HD
BRANCH  27  29
ATOM     29  C   UNL     1      -3.274  11.332  17.990  0.00  0.00    +0.000 A 
ATOM     30  C   UNL     1      -2.266  10.427  17.670  0.00  0.00    +0.000 A 
ATOM     31  C   UNL     1      -2.202   9.890  16.384  0.00  0.00    +0.000 A 
ATOM     32  C   UNL     1      -3.136  10.259  15.415  0.00  0.00    +0.000 A 
ATOM     33  C   UNL     1      -4.134  11.181  15.738  0.00  0.00    +0.000 A 
ATOM     34  C   UNL     1      -4.213  11.705  17.032  0.00  0.00    +0.000 A 
BRANCH  32  35
ATOM     35  O   UNL     1      -2.952   9.694  14.184  0.00  0.00    +0.000 OA
ATOM     36  C   UNL     1      -3.967   9.959  13.222  0.00  0.00    +0.000 C 
ENDBRANCH  32  35
ENDBRANCH  27  29
ENDBRANCH  24  27
ENDBRANCH   5  24
TORSDOF 9
ENDMDL
MODEL 4
REMARK VINA RESULT:      -7.9      4.709      8.660
REMARK  Name = 
REMARK  11 active torsions:
REMARK  status: ('A' for Active; 'I' for Inactive)
REMARK    1  A    between atoms: C_1  and  C_2
REMARK    2  A    between atoms: C_2  and  O_3
REMARK    3  A    between atoms: O_3  and  C_4
REMARK    4  A    between atoms: C_9  and  C_10
REMARK    5  A    between atoms: N_12  and  N_13
REMARK    6  A    between atoms: C_14  and  C_16
REMARK    7  A    between atoms: C_20  and  S_21
REMARK    8  A    between atoms: S_21  and  N_24
REMARK    9  A    between atoms: N_24  and  C_25
REMARK   10  A    between atoms: C_28  and  O_29
REMARK   11  A    between atoms: O_29  and  C_30
REMARK                            x       y       z     vdW  Elec       q    Type
REMARK                         _______ _______ _______ _____ _____    ______ ____
ROOT
ATOM      1  C   UNL     1       6.538   6.216  17.738  0.00  0.00    +0.000 A 
ATOM      2  C   UNL     1       6.676   5.766  16.417  0.00  0.00    +0.000 A 
ATOM      3  C   UNL     1       5.647   5.052  15.799  0.00  0.00    +0.000 A 
ATOM      4  C   UNL     1       4.477   4.770  16.504  0.00  0.00    +0.000 A 
ATOM      5  C   UNL     1       4.348   5.188  17.833  0.00  0.00    +0.000 A 
ATOM      6  C   UNL     1       5.367   5.922  18.452  0.00  0.00    +0.000 A 
ENDROOT
BRANCH   1   8
ATOM      7  N   UNL     1       7.795   8.298  17.898  0.00  0.00    +0.000 N 
ATOM      8  C   UNL     1       7.660   6.997  18.331  0.00  0.00    +0.000 C 
ATOM      9  O   UNL     1       8.425   6.473  19.136  0.00  0.00    +0.000 OA
ATOM     10  H   UNL     1       7.254   8.720  17.146  0.00  0.00    +0.000 HD
BRANCH   7  13
ATOM     11  C   UNL     1       8.873  10.405  18.163  0.00  0.00    +0.000 C 
ATOM     12  O   UNL     1       7.968  10.964  17.543  0.00  0.00    +0.000 OA
ATOM     13  N   UNL     1       8.887   9.040  18.344  0.00  0.00    +0.000 N 
ATOM     14  H   UNL     1       9.623   8.540  18.848  0.00  0.00    +0.000 HD
BRANCH  11  20
ATOM     15  C   UNL     1      10.047  11.613  20.082  0.00  0.00    +0.000 A 
ATOM     16  N   UNL     1      11.062  12.361  20.587  0.00  0.00    +0.000 NA
ATOM     17  C   UNL     1      12.039  12.738  19.736  0.00  0.00    +0.000 A 
ATOM     18  C   UNL     1      12.056  12.400  18.396  0.00  0.00    +0.000 A 
ATOM     19  C   UNL     1      11.014  11.622  17.901  0.00  0.00    +0.000 A 
ATOM     20  C   UNL     1       9.982  11.203  18.752  0.00  0.00    +0.000 A 
BRANCH  15  21
ATOM     21  O   UNL     1       9.057  11.217  20.959  0.00  0.00    +0.000 OA
BRANCH  21  23
ATOM     22  C   UNL     1       8.083  11.541  23.113  0.00  0.00    +0.000 C 
ATOM     23  C   UNL     1       8.742  12.221  21.926  0.00  0.00    +0.000 C 
ENDBRANCH  21  23
ENDBRANCH  15  21
ENDBRANCH  11  20
ENDBRANCH   7  13
ENDBRANCH   1   8
BRANCH   5  24
ATOM     24  S   UNL     1       2.838   4.846  18.714  0.00  0.00    +0.000 S 
ATOM     25  O   UNL     1       1.736   5.173  17.837  0.00  0.00    +0.000 OA
ATOM     26  O   UNL     1       2.975   3.524  19.289  0.00  0.00    +0.000 OA
BRANCH  24  27
ATOM     27  N   UNL     1       2.878   5.929  20.007  0.00  0.00    +0.000 N 
ATOM     28  H   UNL     1       3.743   5.896  20.542  0.00  0.00    +0.000 HD
BRANCH  27  29
ATOM     29  C   UNL     1       2.202   7.170  19.889  0.00  0.00    +0.000 A 
ATOM     30  C   UNL     1       1.405   7.612  20.941  0.00  0.00    +0.000 A 
ATOM     31  C   UNL     1       0.695   8.806  20.817  0.00  0.00    +0.000 A 
ATOM     32  C   UNL     1       0.771   9.556  19.642  0.00  0.00    +0.000 A 
ATOM     33  C   UNL     1       1.558   9.098  18.583  0.00  0.00    +0.000 A 
ATOM     34  C   UNL     1       2.288   7.912  18.713  0.00  0.00    +0.000 A 
BRANCH  32  35
ATOM     35  O   UNL     1       0.005  10.689  19.624  0.00  0.00    +0.000 OA
ATOM     36  C   UNL     1      -0.601  11.006  18.376  0.00  0.00    +0.000 C 
ENDBRANCH  32  35
ENDBRANCH  27  29
ENDBRANCH  24  27
ENDBRANCH   5  24
TORSDOF 9
ENDMDL
MODEL 5
REMARK VINA RESULT:      -7.9      3.419     10.355
REMARK  Name = 
REMARK  11 active torsions:
REMARK  status: ('A' for Active; 'I' for Inactive)
REMARK    1  A    between atoms: C_1  and  C_2
REMARK    2  A    between atoms: C_2  and  O_3
REMARK    3  A    between atoms: O_3  and  C_4
REMARK    4  A    between atoms: C_9  and  C_10
REMARK    5  A    between atoms: N_12  and  N_13
REMARK    6  A    between atoms: C_14  and  C_16
REMARK    7  A    between atoms: C_20  and  S_21
REMARK    8  A    between atoms: S_21  and  N_24
REMARK    9  A    between atoms: N_24  and  C_25
REMARK   10  A    between atoms: C_28  and  O_29
REMARK   11  A    between atoms: O_29  and  C_30
REMARK                            x       y       z     vdW  Elec       q    Type
REMARK                         _______ _______ _______ _____ _____    ______ ____
ROOT
ATOM      1  C   UNL     1       0.997   9.591  19.133  0.00  0.00    +0.000 A 
ATOM      2  C   UNL     1       1.037   9.115  20.452  0.00  0.00    +0.000 A 
ATOM      3  C   UNL     1       0.100   9.549  21.392  0.00  0.00    +0.000 A 
ATOM      4  C   UNL     1      -0.875  10.475  21.024  0.00  0.00    +0.000 A 
ATOM      5  C   UNL     1      -0.900  10.979  19.718  0.00  0.00    +0.000 A 
ATOM      6  C   UNL     1       0.024  10.532  18.765  0.00  0.00    +0.000 A 
ENDROOT
BRANCH   1   8
ATOM      7  N   UNL     1       2.561   7.843  18.471  0.00  0.00    +0.000 N 
ATOM      8  C   UNL     1       2.006   9.068  18.170  0.00  0.00    +0.000 C 
ATOM      9  O   UNL     1       2.328   9.729  17.186  0.00  0.00    +0.000 OA
ATOM     10  H   UNL     1       2.405   7.330  19.336  0.00  0.00    +0.000 HD
BRANCH   7  13
ATOM     11  C   UNL     1       4.145   6.138  17.967  0.00  0.00    +0.000 C 
ATOM     12  O   UNL     1       3.829   5.522  18.985  0.00  0.00    +0.000 OA
ATOM     13  N   UNL     1       3.582   7.356  17.657  0.00  0.00    +0.000 N 
ATOM     14  H   UNL     1       3.822   7.899  16.824  0.00  0.00    +0.000 HD
BRANCH  11  20
ATOM     15  C   UNL     1       6.284   6.231  16.575  0.00  0.00    +0.000 A 
ATOM     16  N   UNL     1       7.167   5.692  15.696  0.00  0.00    +0.000 NA
ATOM     17  C   UNL     1       6.901   4.456  15.225  0.00  0.00    +0.000 A 
ATOM     18  C   UNL     1       5.788   3.723  15.593  0.00  0.00    +0.000 A 
ATOM     19  C   UNL     1       4.902   4.288  16.506  0.00  0.00    +0.000 A 
ATOM     20  C   UNL     1       5.145   5.567  17.025  0.00  0.00    +0.000 A 
BRANCH  15  21
ATOM     21  O   UNL     1       6.568   7.490  17.066  0.00  0.00    +0.000 OA
BRANCH  21  23
ATOM     22  C   UNL     1       8.197   8.989  17.954  0.00  0.00    +0.000 C 
ATOM     23  C   UNL     1       7.795   7.534  17.798  0.00  0.00    +0.000 C 
ENDBRANCH  21  23
ENDBRANCH  15  21
ENDBRANCH  11  20
ENDBRANCH   7  13
ENDBRANCH   1   8
BRANCH   5  24
ATOM     24  S   UNL     1      -2.168  12.140  19.253  0.00  0.00    +0.000 S 
ATOM     25  O   UNL     1      -2.751  11.677  18.013  0.00  0.00    +0.000 OA
ATOM     26  O   UNL     1      -2.982  12.369  20.428  0.00  0.00    +0.000 OA
BRANCH  24  27
ATOM     27  N   UNL     1      -1.317  13.571  18.983  0.00  0.00    +0.000 N 
ATOM     28  H   UNL     1      -1.876  14.306  18.556  0.00  0.00    +0.000 HD
BRANCH  27  29
ATOM     29  C   UNL     1      -0.289  13.943  19.886  0.00  0.00    +0.000 A 
ATOM     30  C   UNL     1       1.037  13.888  19.464  0.00  0.00    +0.000 A 
ATOM     31  C   UNL     1       2.061  14.202  20.359  0.00  0.00    +0.000 A 
ATOM     32  C   UNL     1       1.766  14.562  21.675  0.00  0.00    +0.000 A 
ATOM     33  C   UNL     1       0.434  14.598  22.096  0.00  0.00    +0.000 A 
ATOM     34  C   UNL     1      -0.594  14.305  21.196  0.00  0.00    +0.000 A 
BRANCH  32  35
ATOM     35  O   UNL     1       2.851  14.814  22.467  0.00  0.00    +0.000 OA
ATOM     36  C   UNL     1       3.949  15.455  21.827  0.00  0.00    +0.000 C 
ENDBRANCH  32  35
ENDBRANCH  27  29
ENDBRANCH  24  27
ENDBRANCH   5  24
TORSDOF 9
ENDMDL
MODEL 6
REMARK VINA RESULT:      -7.7      3.492      9.415
REMARK  Name = 
REMARK  11 active torsions:
REMARK  status: ('A' for Active; 'I' for Inactive)
REMARK    1  A    between atoms: C_1  and  C_2
REMARK    2  A    between atoms: C_2  and  O_3
REMARK    3  A    between atoms: O_3  and  C_4
REMARK    4  A    between atoms: C_9  and  C_10
REMARK    5  A    between atoms: N_12  and  N_13
REMARK    6  A    between atoms: C_14  and  C_16
REMARK    7  A    between atoms: C_20  and  S_21
REMARK    8  A    between atoms: S_21  and  N_24
REMARK    9  A    between atoms: N_24  and  C_25
REMARK   10  A    between atoms: C_28  and  O_29
REMARK   11  A    between atoms: O_29  and  C_30
REMARK                            x       y       z     vdW  Elec       q    Type
REMARK                         _______ _______ _______ _____ _____    ______ ____
ROOT
ATOM      1  C   UNL     1       0.711   9.496  21.131  0.00  0.00    +0.000 A 
ATOM      2  C   UNL     1      -0.139   9.110  22.178  0.00  0.00    +0.000 A 
ATOM      3  C   UNL     1      -0.824  10.069  22.926  0.00  0.00    +0.000 A 
ATOM      4  C   UNL     1      -0.651  11.424  22.643  0.00  0.00    +0.000 A 
ATOM      5  C   UNL     1       0.221  11.816  21.622  0.00  0.00    +0.000 A 
ATOM      6  C   UNL     1       0.894  10.858  20.853  0.00  0.00    +0.000 A 
ENDROOT
BRANCH   1   8
ATOM      7  N   UNL     1       1.786   7.309  21.058  0.00  0.00    +0.000 N 
ATOM      8  C   UNL     1       1.391   8.424  20.351  0.00  0.00    +0.000 C 
ATOM      9  O   UNL     1       1.602   8.568  19.149  0.00  0.00    +0.000 OA
ATOM     10  H   UNL     1       1.734   7.214  22.070  0.00  0.00    +0.000 HD
BRANCH   7  13
ATOM     11  C   UNL     1       1.907   5.112  20.148  0.00  0.00    +0.000 C 
ATOM     12  O   UNL     1       0.780   4.856  20.572  0.00  0.00    +0.000 OA
ATOM     13  N   UNL     1       2.515   6.323  20.396  0.00  0.00    +0.000 N 
ATOM     14  H   UNL     1       3.450   6.570  20.065  0.00  0.00    +0.000 HD
BRANCH  11  20
ATOM     15  C   UNL     1       3.623   4.418  18.388  0.00  0.00    +0.000 A 
ATOM     16  N   UNL     1       4.265   3.483  17.642  0.00  0.00    +0.000 NA
ATOM     17  C   UNL     1       3.910   2.194  17.820  0.00  0.00    +0.000 A 
ATOM     18  C   UNL     1       2.940   1.787  18.717  0.00  0.00    +0.000 A 
ATOM     19  C   UNL     1       2.303   2.760  19.483  0.00  0.00    +0.000 A 
ATOM     20  C   UNL     1       2.647   4.111  19.333  0.00  0.00    +0.000 A 
BRANCH  15  21
ATOM     21  O   UNL     1       3.999   5.735  18.212  0.00  0.00    +0.000 OA
BRANCH  21  23
ATOM     22  C   UNL     1       5.819   6.829  17.125  0.00  0.00    +0.000 C 
ATOM     23  C   UNL     1       4.578   5.978  16.928  0.00  0.00    +0.000 C 
ENDBRANCH  21  23
ENDBRANCH  15  21
ENDBRANCH  11  20
ENDBRANCH   7  13
ENDBRANCH   1   8
BRANCH   5  24
ATOM     24  S   UNL     1       0.411  13.548  21.251  0.00  0.00    +0.000 S 
ATOM     25  O   UNL     1       0.543  14.252  22.507  0.00  0.00    +0.000 OA
ATOM     26  O   UNL     1       1.424  13.650  20.221  0.00  0.00    +0.000 OA
BRANCH  24  27
ATOM     27  N   UNL     1      -1.051  13.960  20.517  0.00  0.00    +0.000 N 
ATOM     28  H   UNL     1      -1.144  14.954  20.320  0.00  0.00    +0.000 HD
BRANCH  27  29
ATOM     29  C   UNL     1      -1.664  13.036  19.634  0.00  0.00    +0.000 A 
ATOM     30  C   UNL     1      -1.004  12.677  18.462  0.00  0.00    +0.000 A 
ATOM     31  C   UNL     1      -1.619  11.808  17.560  0.00  0.00    +0.000 A 
ATOM     32  C   UNL     1      -2.894  11.304  17.819  0.00  0.00    +0.000 A 
ATOM     33  C   UNL     1      -3.559  11.682  18.988  0.00  0.00    +0.000 A 
ATOM     34  C   UNL     1      -2.936  12.536  19.904  0.00  0.00    +0.000 A 
BRANCH  32  35
ATOM     35  O   UNL     1      -3.408  10.491  16.848  0.00  0.00    +0.000 OA
ATOM     36  C   UNL     1      -3.193  10.916  15.507  0.00  0.00    +0.000 C 
ENDBRANCH  32  35
ENDBRANCH  27  29
ENDBRANCH  24  27
ENDBRANCH   5  24
TORSDOF 9
ENDMDL
MODEL 7
REMARK VINA RESULT:      -7.7      3.490      9.964
REMARK  Name = 
REMARK  11 active torsions:
REMARK  status: ('A' for Active; 'I' for Inactive)
REMARK    1  A    between atoms: C_1  and  C_2
REMARK    2  A    between atoms: C_2  and  O_3
REMARK    3  A    between atoms: O_3  and  C_4
REMARK    4  A    between atoms: C_9  and  C_10
REMARK    5  A    between atoms: N_12  and  N_13
REMARK    6  A    between atoms: C_14  and  C_16
REMARK    7  A    between atoms: C_20  and  S_21
REMARK    8  A    between atoms: S_21  and  N_24
REMARK    9  A    between atoms: N_24  and  C_25
REMARK   10  A    between atoms: C_28  and  O_29
REMARK   11  A    between atoms: O_29  and  C_30
REMARK                            x       y       z     vdW  Elec       q    Type
REMARK                         _______ _______ _______ _____ _____    ______ ____
ROOT
ATOM      1  C   UNL     1       1.071   9.471  19.358  0.00  0.00    +0.000 A 
ATOM      2  C   UNL     1       1.076   8.853  20.617  0.00  0.00    +0.000 A 
ATOM      3  C   UNL     1       0.224   9.299  21.629  0.00  0.00    +0.000 A 
ATOM      4  C   UNL     1      -0.629  10.376  21.394  0.00  0.00    +0.000 A 
ATOM      5  C   UNL     1      -0.615  11.017  20.150  0.00  0.00    +0.000 A 
ATOM      6  C   UNL     1       0.222  10.562  19.124  0.00  0.00    +0.000 A 
ENDROOT
BRANCH   1   8
ATOM      7  N   UNL     1       2.629   7.751  18.612  0.00  0.00    +0.000 N 
ATOM      8  C   UNL     1       1.983   8.930  18.310  0.00  0.00    +0.000 C 
ATOM      9  O   UNL     1       2.153   9.541  17.259  0.00  0.00    +0.000 OA
ATOM     10  H   UNL     1       2.603   7.287  19.517  0.00  0.00    +0.000 HD
BRANCH   7  13
ATOM     11  C   UNL     1       4.289   6.135  18.059  0.00  0.00    +0.000 C 
ATOM     12  O   UNL     1       4.184   5.622  19.172  0.00  0.00    +0.000 OA
ATOM     13  N   UNL     1       3.569   7.256  17.709  0.00  0.00    +0.000 N 
ATOM     14  H   UNL     1       3.633   7.713  16.797  0.00  0.00    +0.000 HD
BRANCH  11  20
ATOM     15  C   UNL     1       6.292   6.192  16.475  0.00  0.00    +0.000 A 
ATOM     16  N   UNL     1       7.091   5.631  15.531  0.00  0.00    +0.000 NA
ATOM     17  C   UNL     1       6.781   4.385  15.114  0.00  0.00    +0.000 A 
ATOM     18  C   UNL     1       5.707   3.663  15.599  0.00  0.00    +0.000 A 
ATOM     19  C   UNL     1       4.909   4.251  16.576  0.00  0.00    +0.000 A 
ATOM     20  C   UNL     1       5.198   5.541  17.042  0.00  0.00    +0.000 A 
BRANCH  15  21
ATOM     21  O   UNL     1       6.620   7.461  16.908  0.00  0.00    +0.000 OA
BRANCH  21  23
ATOM     22  C   UNL     1       8.186   8.911  17.974  0.00  0.00    +0.000 C 
ATOM     23  C   UNL     1       7.745   7.470  17.790  0.00  0.00    +0.000 C 
ENDBRANCH  21  23
ENDBRANCH  15  21
ENDBRANCH  11  20
ENDBRANCH   7  13
ENDBRANCH   1   8
BRANCH   5  24
ATOM     24  S   UNL     1      -1.729  12.375  19.853  0.00  0.00    +0.000 S 
ATOM     25  O   UNL     1      -1.887  12.506  18.422  0.00  0.00    +0.000 OA
ATOM     26  O   UNL     1      -2.872  12.179  20.720  0.00  0.00    +0.000 OA
BRANCH  24  27
ATOM     27  N   UNL     1      -0.899  13.712  20.461  0.00  0.00    +0.000 N 
ATOM     28  H   UNL     1      -1.200  13.991  21.391  0.00  0.00    +0.000 HD
BRANCH  27  29
ATOM     29  C   UNL     1       0.460  13.900  20.104  0.00  0.00    +0.000 A 
ATOM     30  C   UNL     1       1.452  13.613  21.037  0.00  0.00    +0.000 A 
ATOM     31  C   UNL     1       2.791  13.843  20.717  0.00  0.00    +0.000 A 
ATOM     32  C   UNL     1       3.141  14.366  19.471  0.00  0.00    +0.000 A 
ATOM     33  C   UNL     1       2.139  14.668  18.545  0.00  0.00    +0.000 A 
ATOM     34  C   UNL     1       0.799  14.419  18.856  0.00  0.00    +0.000 A 
BRANCH  32  35
ATOM     35  O   UNL     1       4.478  14.580  19.284  0.00  0.00    +0.000 OA
ATOM     36  C   UNL     1       5.041  15.662  20.018  0.00  0.00    +0.000 C 
ENDBRANCH  32  35
ENDBRANCH  27  29
ENDBRANCH  24  27
ENDBRANCH   5  24
TORSDOF 9
ENDMDL
MODEL 8
REMARK VINA RESULT:      -7.7      2.686      3.867
REMARK  Name = 
REMARK  11 active torsions:
REMARK  status: ('A' for Active; 'I' for Inactive)
REMARK    1  A    between atoms: C_1  and  C_2
REMARK    2  A    between atoms: C_2  and  O_3
REMARK    3  A    between atoms: O_3  and  C_4
REMARK    4  A    between atoms: C_9  and  C_10
REMARK    5  A    between atoms: N_12  and  N_13
REMARK    6  A    between atoms: C_14  and  C_16
REMARK    7  A    between atoms: C_20  and  S_21
REMARK    8  A    between atoms: S_21  and  N_24
REMARK    9  A    between atoms: N_24  and  C_25
REMARK   10  A    between atoms: C_28  and  O_29
REMARK   11  A    between atoms: O_29  and  C_30
REMARK                            x       y       z     vdW  Elec       q    Type
REMARK                         _______ _______ _______ _____ _____    ______ ____
ROOT
ATOM      1  C   UNL     1       2.161   6.294  19.472  0.00  0.00    +0.000 A 
ATOM      2  C   UNL     1       2.034   5.942  20.824  0.00  0.00    +0.000 A 
ATOM      3  C   UNL     1       2.191   4.616  21.230  0.00  0.00    +0.000 A 
ATOM      4  C   UNL     1       2.459   3.628  20.283  0.00  0.00    +0.000 A 
ATOM      5  C   UNL     1       2.554   3.967  18.929  0.00  0.00    +0.000 A 
ATOM      6  C   UNL     1       2.420   5.299  18.518  0.00  0.00    +0.000 A 
ENDROOT
BRANCH   1   8
ATOM      7  N   UNL     1       1.434   8.547  20.054  0.00  0.00    +0.000 N 
ATOM      8  C   UNL     1       2.012   7.731  19.106  0.00  0.00    +0.000 C 
ATOM      9  O   UNL     1       2.367   8.131  18.001  0.00  0.00    +0.000 OA
ATOM     10  H   UNL     1       1.021   8.223  20.927  0.00  0.00    +0.000 HD
BRANCH   7  13
ATOM     11  C   UNL     1       0.234  10.565  20.452  0.00  0.00    +0.000 C 
ATOM     12  O   UNL     1      -0.444  10.011  21.317  0.00  0.00    +0.000 OA
ATOM     13  N   UNL     1       1.179   9.876  19.724  0.00  0.00    +0.000 N 
ATOM     14  H   UNL     1       1.757  10.301  18.995  0.00  0.00    +0.000 HD
BRANCH  11  20
ATOM     15  C   UNL     1      -0.402  12.548  18.974  0.00  0.00    +0.000 A 
ATOM     16  N   UNL     1      -0.531  13.880  18.744  0.00  0.00    +0.000 NA
ATOM     17  C   UNL     1      -0.167  14.720  19.735  0.00  0.00    +0.000 A 
ATOM     18  C   UNL     1       0.319  14.294  20.957  0.00  0.00    +0.000 A 
ATOM     19  C   UNL     1       0.430  12.924  21.178  0.00  0.00    +0.000 A 
ATOM     20  C   UNL     1       0.057  12.016  20.177  0.00  0.00    +0.000 A 
BRANCH  15  21
ATOM     21  O   UNL     1      -0.789  11.692  17.962  0.00  0.00    +0.000 OA
BRANCH  21  23
ATOM     22  C   UNL     1      -2.556  10.094  17.836  0.00  0.00    +0.000 C 
ATOM     23  C   UNL     1      -2.209  11.572  17.851  0.00  0.00    +0.000 C 
ENDBRANCH  21  23
ENDBRANCH  15  21
ENDBRANCH  11  20
ENDBRANCH   7  13
ENDBRANCH   1   8
BRANCH   5  24
ATOM     24  S   UNL     1       2.926   2.700  17.734  0.00  0.00    +0.000 S 
ATOM     25  O   UNL     1       2.624   1.423  18.341  0.00  0.00    +0.000 OA
ATOM     26  O   UNL     1       2.312   3.104  16.486  0.00  0.00    +0.000 OA
BRANCH  24  27
ATOM     27  N   UNL     1       4.591   2.844  17.507  0.00  0.00    +0.000 N 
ATOM     28  H   UNL     1       4.992   2.101  16.939  0.00  0.00    +0.000 HD
BRANCH  27  29
ATOM     29  C   UNL     1       5.169   4.137  17.435  0.00  0.00    +0.000 A 
ATOM     30  C   UNL     1       5.055   4.865  16.254  0.00  0.00    +0.000 A 
ATOM     31  C   UNL     1       5.662   6.117  16.152  0.00  0.00    +0.000 A 
ATOM     32  C   UNL     1       6.391   6.640  17.222  0.00  0.00    +0.000 A 
ATOM     33  C   UNL     1       6.516   5.896  18.398  0.00  0.00    +0.000 A 
ATOM     34  C   UNL     1       5.890   4.651  18.510  0.00  0.00    +0.000 A 
BRANCH  32  35
ATOM     35  O   UNL     1       6.968   7.858  16.994  0.00  0.00    +0.000 OA
ATOM     36  C   UNL     1       8.038   8.209  17.865  0.00  0.00    +0.000 C 
ENDBRANCH  32  35
ENDBRANCH  27  29
ENDBRANCH  24  27
ENDBRANCH   5  24
TORSDOF 9
ENDMDL
MODEL 9
REMARK VINA RESULT:      -7.6      2.803      4.187
REMARK  Name = 
REMARK  11 active torsions:
REMARK  status: ('A' for Active; 'I' for Inactive)
REMARK    1  A    between atoms: C_1  and  C_2
REMARK    2  A    between atoms: C_2  and  O_3
REMARK    3  A    between atoms: O_3  and  C_4
REMARK    4  A    between atoms: C_9  and  C_10
REMARK    5  A    between atoms: N_12  and  N_13
REMARK    6  A    between atoms: C_14  and  C_16
REMARK    7  A    between atoms: C_20  and  S_21
REMARK    8  A    between atoms: S_21  and  N_24
REMARK    9  A    between atoms: N_24  and  C_25
REMARK   10  A    between atoms: C_28  and  O_29
REMARK   11  A    between atoms: O_29  and  C_30
REMARK                            x       y       z     vdW  Elec       q    Type
REMARK                         _______ _______ _______ _____ _____    ______ ____
ROOT
ATOM      1  C   UNL     1       1.937   5.740  20.399  0.00  0.00    +0.000 A 
ATOM      2  C   UNL     1       1.950   4.935  21.547  0.00  0.00    +0.000 A 
ATOM      3  C   UNL     1       2.276   3.580  21.460  0.00  0.00    +0.000 A 
ATOM      4  C   UNL     1       2.577   3.017  20.220  0.00  0.00    +0.000 A 
ATOM      5  C   UNL     1       2.533   3.808  19.067  0.00  0.00    +0.000 A 
ATOM      6  C   UNL     1       2.228   5.172  19.150  0.00  0.00    +0.000 A 
ENDROOT
BRANCH   1   8
ATOM      7  N   UNL     1       1.692   7.962  19.427  0.00  0.00    +0.000 N 
ATOM      8  C   UNL     1       1.610   7.185  20.562  0.00  0.00    +0.000 C 
ATOM      9  O   UNL     1       1.316   7.635  21.666  0.00  0.00    +0.000 OA
ATOM     10  H   UNL     1       2.049   7.644  18.528  0.00  0.00    +0.000 HD
BRANCH   7  13
ATOM     11  C   UNL     1       1.710  10.128  18.438  0.00  0.00    +0.000 C 
ATOM     12  O   UNL     1       2.151   9.663  17.387  0.00  0.00    +0.000 OA
ATOM     13  N   UNL     1       1.495   9.337  19.545  0.00  0.00    +0.000 N 
ATOM     14  H   UNL     1       1.135   9.688  20.435  0.00  0.00    +0.000 HD
BRANCH  11  20
ATOM     15  C   UNL     1       0.108  12.084  18.801  0.00  0.00    +0.000 A 
ATOM     16  N   UNL     1      -0.170  13.412  18.861  0.00  0.00    +0.000 NA
ATOM     17  C   UNL     1       0.844  14.271  18.626  0.00  0.00    +0.000 A 
ATOM     18  C   UNL     1       2.134  13.867  18.335  0.00  0.00    +0.000 A 
ATOM     19  C   UNL     1       2.401  12.502  18.291  0.00  0.00    +0.000 A 
ATOM     20  C   UNL     1       1.377  11.575  18.536  0.00  0.00    +0.000 A 
BRANCH  15  21
ATOM     21  O   UNL     1      -0.929  11.209  19.056  0.00  0.00    +0.000 OA
BRANCH  21  23
ATOM     22  C   UNL     1      -1.783   9.915  17.243  0.00  0.00    +0.000 C 
ATOM     23  C   UNL     1      -1.919  11.209  18.024  0.00  0.00    +0.000 C 
ENDBRANCH  21  23
ENDBRANCH  15  21
ENDBRANCH  11  20
ENDBRANCH   7  13
ENDBRANCH   1   8
BRANCH   5  24
ATOM     24  S   UNL     1       2.947   3.083  17.493  0.00  0.00    +0.000 S 
ATOM     25  O   UNL     1       2.269   1.809  17.406  0.00  0.00    +0.000 OA
ATOM     26  O   UNL     1       2.750   4.110  16.491  0.00  0.00    +0.000 OA
BRANCH  24  27
ATOM     27  N   UNL     1       4.613   2.837  17.594  0.00  0.00    +0.000 N 
ATOM     28  H   UNL     1       4.904   1.899  17.331  0.00  0.00    +0.000 HD
BRANCH  27  29
ATOM     29  C   UNL     1       5.488   3.919  17.319  0.00  0.00    +0.000 A 
ATOM     30  C   UNL     1       5.743   4.855  18.318  0.00  0.00    +0.000 A 
ATOM     31  C   UNL     1       6.561   5.952  18.045  0.00  0.00    +0.000 A 
ATOM     32  C   UNL     1       7.117   6.122  16.776  0.00  0.00    +0.000 A 
ATOM     33  C   UNL     1       6.843   5.189  15.774  0.00  0.00    +0.000 A 
ATOM     34  C   UNL     1       6.040   4.077  16.051  0.00  0.00    +0.000 A 
BRANCH  32  35
ATOM     35  O   UNL     1       7.873   7.250  16.618  0.00  0.00    +0.000 OA
ATOM     36  C   UNL     1       7.779   8.210  17.665  0.00  0.00    +0.000 C 
ENDBRANCH  32  35
ENDBRANCH  27  29
ENDBRANCH  24  27
ENDBRANCH   5  24
TORSDOF 9
ENDMDL
