MODEL 1
REMARK VINA RESULT:      -6.7      0.000      0.000
REMARK  Name = 
REMARK  6 active torsions:
REMARK  status: ('A' for Active; 'I' for Inactive)
REMARK    1  A    between atoms: C_1  and  C_2
REMARK    2  A    between atoms: C_2  and  C_3
REMARK    3  A    between atoms: C_2  and  N_14
REMARK    4  A    between atoms: N_5  and  C_6
REMARK    5  A    between atoms: C_6  and  C_7
REMARK    6  A    between atoms: C_18  and  C_19
REMARK                            x       y       z     vdW  Elec       q    Type
REMARK                         _______ _______ _______ _____ _____    ______ ____
ROOT
ATOM      1  C   UNL     1       0.659   8.525  21.121  0.00  0.00    +0.000 C 
ATOM      2  C   UNL     1       1.527   8.826  19.903  0.00  0.00    +0.000 C 
ENDROOT
BRANCH   2   3
ATOM      3  N   UNL     1       0.970   9.640  18.799  0.00  0.00    +0.000 NA
ATOM      4  C   UNL     1       1.861  10.700  18.305  0.00  0.00    +0.000 C 
ATOM      5  C   UNL     1       1.621  12.090  18.909  0.00  0.00    +0.000 C 
ATOM      6  O   UNL     1       0.271  12.521  18.726  0.00  0.00    +0.000 OA
ATOM      7  C   UNL     1      -0.685  11.613  19.304  0.00  0.00    +0.000 C 
ATOM      8  C   UNL     1      -0.418  10.132  18.925  0.00  0.00    +0.000 C 
BRANCH   7   9
ATOM      9  C   UNL     1      -0.820  11.846  20.792  0.00  0.00    +0.000 A 
ATOM     10  N   UNL     1      -0.960  10.917  21.718  0.00  0.00    +0.000 NA
ATOM     11  C   UNL     1      -1.134  11.498  22.955  0.00  0.00    +0.000 A 
ATOM     12  C   UNL     1      -1.079  12.873  22.978  0.00  0.00    +0.000 A 
ATOM     13  S   UNL     1      -0.805  13.467  21.398  0.00  0.00    +0.000 S 
ENDBRANCH   7   9
ENDBRANCH   2   3
BRANCH   2  14
ATOM     14  C   UNL     1       2.140   7.522  19.349  0.00  0.00    +0.000 C 
ATOM     15  O   UNL     1       2.764   7.458  18.295  0.00  0.00    +0.000 OA
ATOM     16  N   UNL     1       1.950   6.435  20.183  0.00  0.00    +0.000 N 
ATOM     17  H   UNL     1       1.713   6.668  21.142  0.00  0.00    +0.000 HD
BRANCH  16  18
ATOM     18  C   UNL     1       2.512   5.106  19.891  0.00  0.00    +0.000 C 
ATOM     19  C   UNL     1       1.866   4.518  18.616  0.00  0.00    +0.000 C 
ATOM     20  C   UNL     1       2.531   3.224  18.141  0.00  0.00    +0.000 C 
ATOM     21  C   UNL     1       4.039   3.373  17.972  0.00  0.00    +0.000 C 
ATOM     22  C   UNL     1       4.712   3.977  19.200  0.00  0.00    +0.000 C 
ATOM     23  C   UNL     1       4.033   5.274  19.642  0.00  0.00    +0.000 C 
BRANCH  18  24
ATOM     24  C   UNL     1       2.327   4.192  21.058  0.00  0.00    +0.000 C 
ATOM     25  N   UNL     1       2.226   3.444  21.939  0.00  0.00    +0.000 NA
ENDBRANCH  18  24
ENDBRANCH  16  18
ENDBRANCH   2  14
TORSDOF 5
ENDMDL
MODEL 2
REMARK VINA RESULT:      -6.6      0.880      1.536
REMARK  Name = 
REMARK  6 active torsions:
REMARK  status: ('A' for Active; 'I' for Inactive)
REMARK    1  A    between atoms: C_1  and  C_2
REMARK    2  A    between atoms: C_2  and  C_3
REMARK    3  A    between atoms: C_2  and  N_14
REMARK    4  A    between atoms: N_5  and  C_6
REMARK    5  A    between atoms: C_6  and  C_7
REMARK    6  A    between atoms: C_18  and  C_19
REMARK                            x       y       z     vdW  Elec       q    Type
REMARK                         _______ _______ _______ _____ _____    ______ ____
ROOT
ATOM      1  C   UNL     1       0.827   8.540  21.042  0.00  0.00    +0.000 C 
ATOM      2  C   UNL     1       1.638   8.839  19.786  0.00  0.00    +0.000 C 
ENDROOT
BRANCH   2   3
ATOM      3  N   UNL     1       1.029   9.646  18.704  0.00  0.00    +0.000 NA
ATOM      4  C   UNL     1       1.873  10.742  18.203  0.00  0.00    +0.000 C 
ATOM      5  C   UNL     1       1.598  12.116  18.830  0.00  0.00    +0.000 C 
ATOM      6  O   UNL     1       0.230  12.502  18.682  0.00  0.00    +0.000 OA
ATOM      7  C   UNL     1      -0.681  11.555  19.270  0.00  0.00    +0.000 C 
ATOM      8  C   UNL     1      -0.372  10.089  18.866  0.00  0.00    +0.000 C 
BRANCH   7   9
ATOM      9  C   UNL     1      -0.791  11.766  20.763  0.00  0.00    +0.000 A 
ATOM     10  N   UNL     1      -0.893  10.822  21.678  0.00  0.00    +0.000 NA
ATOM     11  C   UNL     1      -1.054  11.384  22.927  0.00  0.00    +0.000 A 
ATOM     12  C   UNL     1      -1.026  12.759  22.967  0.00  0.00    +0.000 A 
ATOM     13  S   UNL     1      -0.796  13.379  21.389  0.00  0.00    +0.000 S 
ENDBRANCH   7   9
ENDBRANCH   2   3
BRANCH   2  14
ATOM     14  C   UNL     1       2.232   7.535  19.210  0.00  0.00    +0.000 C 
ATOM     15  O   UNL     1       2.897   7.488  18.181  0.00  0.00    +0.000 OA
ATOM     16  N   UNL     1       1.973   6.428  19.996  0.00  0.00    +0.000 N 
ATOM     17  H   UNL     1       1.703   6.635  20.952  0.00  0.00    +0.000 HD
BRANCH  16  18
ATOM     18  C   UNL     1       2.504   5.091  19.680  0.00  0.00    +0.000 C 
ATOM     19  C   UNL     1       2.093   4.078  20.773  0.00  0.00    +0.000 C 
ATOM     20  C   UNL     1       2.445   2.631  20.421  0.00  0.00    +0.000 C 
ATOM     21  C   UNL     1       1.905   2.215  19.057  0.00  0.00    +0.000 C 
ATOM     22  C   UNL     1       2.265   3.205  17.955  0.00  0.00    +0.000 C 
ATOM     23  C   UNL     1       1.889   4.639  18.331  0.00  0.00    +0.000 C 
BRANCH  18  24
ATOM     24  C   UNL     1       3.988   5.141  19.524  0.00  0.00    +0.000 C 
ATOM     25  N   UNL     1       5.142   5.231  19.438  0.00  0.00    +0.000 NA
ENDBRANCH  18  24
ENDBRANCH  16  18
ENDBRANCH   2  14
TORSDOF 5
ENDMDL
MODEL 3
REMARK VINA RESULT:      -6.5      3.258      8.126
REMARK  Name = 
REMARK  6 active torsions:
REMARK  status: ('A' for Active; 'I' for Inactive)
REMARK    1  A    between atoms: C_1  and  C_2
REMARK    2  A    between atoms: C_2  and  C_3
REMARK    3  A    between atoms: C_2  and  N_14
REMARK    4  A    between atoms: N_5  and  C_6
REMARK    5  A    between atoms: C_6  and  C_7
REMARK    6  A    between atoms: C_18  and  C_19
REMARK                            x       y       z     vdW  Elec       q    Type
REMARK                         _______ _______ _______ _____ _____    ______ ____
ROOT
ATOM      1  C   UNL     1       3.473   7.583  17.800  0.00  0.00    +0.000 C 
ATOM      2  C   UNL     1       2.789   7.007  19.034  0.00  0.00    +0.000 C 
ENDROOT
BRANCH   2   3
ATOM      3  N   UNL     1       2.170   5.663  18.960  0.00  0.00    +0.000 NA
ATOM      4  C   UNL     1       2.220   4.892  20.211  0.00  0.00    +0.000 C 
ATOM      5  C   UNL     1       3.388   3.903  20.323  0.00  0.00    +0.000 C 
ATOM      6  O   UNL     1       3.409   2.983  19.230  0.00  0.00    +0.000 OA
ATOM      7  C   UNL     1       3.503   3.639  17.952  0.00  0.00    +0.000 C 
ATOM      8  C   UNL     1       2.495   4.808  17.799  0.00  0.00    +0.000 C 
BRANCH   7   9
ATOM      9  C   UNL     1       4.933   4.024  17.647  0.00  0.00    +0.000 A 
ATOM     10  N   UNL     1       5.877   4.283  18.530  0.00  0.00    +0.000 NA
ATOM     11  C   UNL     1       7.034   4.677  17.891  0.00  0.00    +0.000 A 
ATOM     12  C   UNL     1       6.984   4.672  16.517  0.00  0.00    +0.000 A 
ATOM     13  S   UNL     1       5.436   4.162  15.996  0.00  0.00    +0.000 S 
ENDBRANCH   7   9
ENDBRANCH   2   3
BRANCH   2  14
ATOM     14  C   UNL     1       1.784   8.026  19.614  0.00  0.00    +0.000 C 
ATOM     15  O   UNL     1       1.132   7.833  20.634  0.00  0.00    +0.000 OA
ATOM     16  N   UNL     1       1.722   9.200  18.886  0.00  0.00    +0.000 N 
ATOM     17  H   UNL     1       2.515   9.367  18.275  0.00  0.00    +0.000 HD
BRANCH  16  18
ATOM     18  C   UNL     1       0.886  10.341  19.296  0.00  0.00    +0.000 C 
ATOM     19  C   UNL     1       1.358  11.633  18.589  0.00  0.00    +0.000 C 
ATOM     20  C   UNL     1       0.423  12.824  18.815  0.00  0.00    +0.000 C 
ATOM     21  C   UNL     1      -1.024  12.503  18.462  0.00  0.00    +0.000 C 
ATOM     22  C   UNL     1      -1.520  11.219  19.118  0.00  0.00    +0.000 C 
ATOM     23  C   UNL     1      -0.572  10.045  18.863  0.00  0.00    +0.000 C 
BRANCH  18  24
ATOM     24  C   UNL     1       0.911  10.502  20.780  0.00  0.00    +0.000 C 
ATOM     25  N   UNL     1       0.929  10.689  21.925  0.00  0.00    +0.000 NA
ENDBRANCH  18  24
ENDBRANCH  16  18
ENDBRANCH   2  14
TORSDOF 5
ENDMDL
MODEL 4
REMARK VINA RESULT:      -6.5      3.944      6.612
REMARK  Name = 
REMARK  6 active torsions:
REMARK  status: ('A' for Active; 'I' for Inactive)
REMARK    1  A    between atoms: C_1  and  C_2
REMARK    2  A    between atoms: C_2  and  C_3
REMARK    3  A    between atoms: C_2  and  N_14
REMARK    4  A    between atoms: N_5  and  C_6
REMARK    5  A    between atoms: C_6  and  C_7
REMARK    6  A    between atoms: C_18  and  C_19
REMARK                            x       y       z     vdW  Elec       q    Type
REMARK                         _______ _______ _______ _____ _____    ______ ____
ROOT
ATOM      1  C   UNL     1       2.739   3.361  17.043  0.00  0.00    +0.000 C 
ATOM      2  C   UNL     1       3.568   2.851  18.217  0.00  0.00    +0.000 C 
ENDROOT
BRANCH   2   3
ATOM      3  N   UNL     1       2.923   2.678  19.539  0.00  0.00    +0.000 NA
ATOM      4  C   UNL     1       1.514   2.260  19.487  0.00  0.00    +0.000 C 
ATOM      5  C   UNL     1       0.490   3.399  19.588  0.00  0.00    +0.000 C 
ATOM      6  O   UNL     1       0.681   4.178  20.771  0.00  0.00    +0.000 OA
ATOM      7  C   UNL     1       1.997   4.756  20.849  0.00  0.00    +0.000 C 
ATOM      8  C   UNL     1       3.125   3.730  20.558  0.00  0.00    +0.000 C 
BRANCH   7   9
ATOM      9  C   UNL     1       2.087   6.013  20.014  0.00  0.00    +0.000 A 
ATOM     10  N   UNL     1       2.627   6.117  18.815  0.00  0.00    +0.000 NA
ATOM     11  C   UNL     1       2.601   7.428  18.392  0.00  0.00    +0.000 A 
ATOM     12  C   UNL     1       1.996   8.317  19.250  0.00  0.00    +0.000 A 
ATOM     13  S   UNL     1       1.442   7.491  20.642  0.00  0.00    +0.000 S 
ENDBRANCH   7   9
ENDBRANCH   2   3
BRANCH   2  14
ATOM     14  C   UNL     1       4.862   3.681  18.359  0.00  0.00    +0.000 C 
ATOM     15  O   UNL     1       5.675   3.524  19.263  0.00  0.00    +0.000 OA
ATOM     16  N   UNL     1       5.034   4.597  17.338  0.00  0.00    +0.000 N 
ATOM     17  H   UNL     1       4.482   4.418  16.504  0.00  0.00    +0.000 HD
BRANCH  16  18
ATOM     18  C   UNL     1       6.232   5.446  17.229  0.00  0.00    +0.000 C 
ATOM     19  C   UNL     1       5.830   6.937  17.160  0.00  0.00    +0.000 C 
ATOM     20  C   UNL     1       7.025   7.891  17.237  0.00  0.00    +0.000 C 
ATOM     21  C   UNL     1       7.911   7.617  18.446  0.00  0.00    +0.000 C 
ATOM     22  C   UNL     1       8.308   6.150  18.566  0.00  0.00    +0.000 C 
ATOM     23  C   UNL     1       7.092   5.224  18.499  0.00  0.00    +0.000 C 
BRANCH  18  24
ATOM     24  C   UNL     1       7.045   5.054  16.038  0.00  0.00    +0.000 C 
ATOM     25  N   UNL     1       7.680   4.809  15.099  0.00  0.00    +0.000 NA
ENDBRANCH  18  24
ENDBRANCH  16  18
ENDBRANCH   2  14
TORSDOF 5
ENDMDL
MODEL 5
REMARK VINA RESULT:      -6.4      3.219      7.994
REMARK  Name = 
REMARK  6 active torsions:
REMARK  status: ('A' for Active; 'I' for Inactive)
REMARK    1  A    between atoms: C_1  and  C_2
REMARK    2  A    between atoms: C_2  and  C_3
REMARK    3  A    between atoms: C_2  and  N_14
REMARK    4  A    between atoms: N_5  and  C_6
REMARK    5  A    between atoms: C_6  and  C_7
REMARK    6  A    between atoms: C_18  and  C_19
REMARK                            x       y       z     vdW  Elec       q    Type
REMARK                         _______ _______ _______ _____ _____    ______ ____
ROOT
ATOM      1  C   UNL     1       4.047   7.574  17.413  0.00  0.00    +0.000 C 
ATOM      2  C   UNL     1       2.954   7.463  18.471  0.00  0.00    +0.000 C 
ENDROOT
BRANCH   2   3
ATOM      3  N   UNL     1       2.233   6.180  18.639  0.00  0.00    +0.000 NA
ATOM      4  C   UNL     1       2.198   5.668  20.017  0.00  0.00    +0.000 C 
ATOM      5  C   UNL     1       3.283   4.638  20.360  0.00  0.00    +0.000 C 
ATOM      6  O   UNL     1       3.252   3.522  19.468  0.00  0.00    +0.000 OA
ATOM      7  C   UNL     1       3.422   3.905  18.091  0.00  0.00    +0.000 C 
ATOM      8  C   UNL     1       2.512   5.092  17.678  0.00  0.00    +0.000 C 
BRANCH   7   9
ATOM      9  C   UNL     1       4.884   4.117  17.765  0.00  0.00    +0.000 A 
ATOM     10  N   UNL     1       5.858   4.299  18.634  0.00  0.00    +0.000 NA
ATOM     11  C   UNL     1       7.046   4.539  17.977  0.00  0.00    +0.000 A 
ATOM     12  C   UNL     1       6.984   4.491  16.603  0.00  0.00    +0.000 A 
ATOM     13  S   UNL     1       5.384   4.139  16.108  0.00  0.00    +0.000 S 
ENDBRANCH   7   9
ENDBRANCH   2   3
BRANCH   2  14
ATOM     14  C   UNL     1       1.949   8.626  18.325  0.00  0.00    +0.000 C 
ATOM     15  O   UNL     1       1.594   9.086  17.245  0.00  0.00    +0.000 OA
ATOM     16  N   UNL     1       1.455   9.071  19.537  0.00  0.00    +0.000 N 
ATOM     17  H   UNL     1       1.568   8.423  20.310  0.00  0.00    +0.000 HD
BRANCH  16  18
ATOM     18  C   UNL     1       0.428  10.122  19.635  0.00  0.00    +0.000 C 
ATOM     19  C   UNL     1       1.021  11.491  19.228  0.00  0.00    +0.000 C 
ATOM     20  C   UNL     1      -0.030  12.599  19.121  0.00  0.00    +0.000 C 
ATOM     21  C   UNL     1      -1.192  12.213  18.213  0.00  0.00    +0.000 C 
ATOM     22  C   UNL     1      -1.788  10.855  18.564  0.00  0.00    +0.000 C 
ATOM     23  C   UNL     1      -0.715   9.767  18.650  0.00  0.00    +0.000 C 
BRANCH  18  24
ATOM     24  C   UNL     1      -0.141  10.173  21.015  0.00  0.00    +0.000 C 
ATOM     25  N   UNL     1      -0.540  10.255  22.101  0.00  0.00    +0.000 NA
ENDBRANCH  18  24
ENDBRANCH  16  18
ENDBRANCH   2  14
TORSDOF 5
ENDMDL
MODEL 6
REMARK VINA RESULT:      -6.4      0.953      1.620
REMARK  Name = 
REMARK  6 active torsions:
REMARK  status: ('A' for Active; 'I' for Inactive)
REMARK    1  A    between atoms: C_1  and  C_2
REMARK    2  A    between atoms: C_2  and  C_3
REMARK    3  A    between atoms: C_2  and  N_14
REMARK    4  A    between atoms: N_5  and  C_6
REMARK    5  A    between atoms: C_6  and  C_7
REMARK    6  A    between atoms: C_18  and  C_19
REMARK                            x       y       z     vdW  Elec       q    Type
REMARK                         _______ _______ _______ _____ _____    ______ ____
ROOT
ATOM      1  C   UNL     1       0.991   8.580  20.902  0.00  0.00    +0.000 C 
ATOM      2  C   UNL     1       1.779   8.792  19.614  0.00  0.00    +0.000 C 
ENDROOT
BRANCH   2   3
ATOM      3  N   UNL     1       1.195   9.621  18.535  0.00  0.00    +0.000 NA
ATOM      4  C   UNL     1       2.055  10.718  18.066  0.00  0.00    +0.000 C 
ATOM      5  C   UNL     1       1.781  12.084  18.710  0.00  0.00    +0.000 C 
ATOM      6  O   UNL     1       0.419  12.483  18.545  0.00  0.00    +0.000 OA
ATOM      7  C   UNL     1      -0.510  11.534  19.102  0.00  0.00    +0.000 C 
ATOM      8  C   UNL     1      -0.205  10.072  18.681  0.00  0.00    +0.000 C 
BRANCH   7   9
ATOM      9  C   UNL     1      -0.643  11.723  20.597  0.00  0.00    +0.000 A 
ATOM     10  N   UNL     1      -0.828  10.770  21.489  0.00  0.00    +0.000 NA
ATOM     11  C   UNL     1      -0.984  11.316  22.745  0.00  0.00    +0.000 A 
ATOM     12  C   UNL     1      -0.869  12.685  22.815  0.00  0.00    +0.000 A 
ATOM     13  S   UNL     1      -0.561  13.321  21.257  0.00  0.00    +0.000 S 
ENDBRANCH   7   9
ENDBRANCH   2   3
BRANCH   2  14
ATOM     14  C   UNL     1       2.255   7.436  19.048  0.00  0.00    +0.000 C 
ATOM     15  O   UNL     1       2.787   7.307  17.951  0.00  0.00    +0.000 OA
ATOM     16  N   UNL     1       2.056   6.384  19.923  0.00  0.00    +0.000 N 
ATOM     17  H   UNL     1       1.913   6.653  20.891  0.00  0.00    +0.000 HD
BRANCH  16  18
ATOM     18  C   UNL     1       2.500   5.012  19.623  0.00  0.00    +0.000 C 
ATOM     19  C   UNL     1       4.034   4.974  19.431  0.00  0.00    +0.000 C 
ATOM     20  C   UNL     1       4.594   3.555  19.304  0.00  0.00    +0.000 C 
ATOM     21  C   UNL     1       4.163   2.655  20.457  0.00  0.00    +0.000 C 
ATOM     22  C   UNL     1       2.658   2.686  20.698  0.00  0.00    +0.000 C 
ATOM     23  C   UNL     1       2.131   4.115  20.833  0.00  0.00    +0.000 C 
BRANCH  18  24
ATOM     24  C   UNL     1       1.795   4.485  18.417  0.00  0.00    +0.000 C 
ATOM     25  N   UNL     1       1.301   4.077  17.450  0.00  0.00    +0.000 NA
ENDBRANCH  18  24
ENDBRANCH  16  18
ENDBRANCH   2  14
TORSDOF 5
ENDMDL
MODEL 7
REMARK VINA RESULT:      -6.3      2.081      2.928
REMARK  Name = 
REMARK  6 active torsions:
REMARK  status: ('A' for Active; 'I' for Inactive)
REMARK    1  A    between atoms: C_1  and  C_2
REMARK    2  A    between atoms: C_2  and  C_3
REMARK    3  A    between atoms: C_2  and  N_14
REMARK    4  A    between atoms: N_5  and  C_6
REMARK    5  A    between atoms: C_6  and  C_7
REMARK    6  A    between atoms: C_18  and  C_19
REMARK                            x       y       z     vdW  Elec       q    Type
REMARK                         _______ _______ _______ _____ _____    ______ ____
ROOT
ATOM      1  C   UNL     1       1.167   9.660  18.341  0.00  0.00    +0.000 C 
ATOM      2  C   UNL     1       1.035   8.983  19.701  0.00  0.00    +0.000 C 
ENDROOT
BRANCH   2   3
ATOM      3  N   UNL     1       1.403   9.734  20.923  0.00  0.00    +0.000 NA
ATOM      4  C   UNL     1       0.959   9.117  22.183  0.00  0.00    +0.000 C 
ATOM      5  C   UNL     1      -0.367   9.654  22.741  0.00  0.00    +0.000 C 
ATOM      6  O   UNL     1      -0.328  11.070  22.926  0.00  0.00    +0.000 OA
ATOM      7  C   UNL     1      -0.037  11.783  21.710  0.00  0.00    +0.000 C 
ATOM      8  C   UNL     1       1.176  11.195  20.941  0.00  0.00    +0.000 C 
BRANCH   7   9
ATOM      9  C   UNL     1      -1.280  11.935  20.862  0.00  0.00    +0.000 A 
ATOM     10  N   UNL     1      -1.422  11.546  19.610  0.00  0.00    +0.000 NA
ATOM     11  C   UNL     1      -2.661  11.918  19.133  0.00  0.00    +0.000 A 
ATOM     12  C   UNL     1      -3.481  12.550  20.039  0.00  0.00    +0.000 A 
ATOM     13  S   UNL     1      -2.679  12.692  21.544  0.00  0.00    +0.000 S 
ENDBRANCH   7   9
ENDBRANCH   2   3
BRANCH   2  14
ATOM     14  C   UNL     1       1.741   7.610  19.685  0.00  0.00    +0.000 C 
ATOM     15  O   UNL     1       1.642   6.785  20.587  0.00  0.00    +0.000 OA
ATOM     16  N   UNL     1       2.466   7.386  18.530  0.00  0.00    +0.000 N 
ATOM     17  H   UNL     1       2.218   7.981  17.747  0.00  0.00    +0.000 HD
BRANCH  16  18
ATOM     18  C   UNL     1       3.161   6.114  18.266  0.00  0.00    +0.000 C 
ATOM     19  C   UNL     1       4.237   6.307  17.173  0.00  0.00    +0.000 C 
ATOM     20  C   UNL     1       5.129   5.079  16.977  0.00  0.00    +0.000 C 
ATOM     21  C   UNL     1       5.753   4.599  18.283  0.00  0.00    +0.000 C 
ATOM     22  C   UNL     1       4.727   4.422  19.396  0.00  0.00    +0.000 C 
ATOM     23  C   UNL     1       3.861   5.670  19.576  0.00  0.00    +0.000 C 
BRANCH  18  24
ATOM     24  C   UNL     1       2.183   5.055  17.876  0.00  0.00    +0.000 C 
ATOM     25  N   UNL     1       1.402   4.233  17.630  0.00  0.00    +0.000 NA
ENDBRANCH  18  24
ENDBRANCH  16  18
ENDBRANCH   2  14
TORSDOF 5
ENDMDL
MODEL 8
REMARK VINA RESULT:      -6.3      3.322      8.186
REMARK  Name = 
REMARK  6 active torsions:
REMARK  status: ('A' for Active; 'I' for Inactive)
REMARK    1  A    between atoms: C_1  and  C_2
REMARK    2  A    between atoms: C_2  and  C_3
REMARK    3  A    between atoms: C_2  and  N_14
REMARK    4  A    between atoms: N_5  and  C_6
REMARK    5  A    between atoms: C_6  and  C_7
REMARK    6  A    between atoms: C_18  and  C_19
REMARK                            x       y       z     vdW  Elec       q    Type
REMARK                         _______ _______ _______ _____ _____    ______ ____
ROOT
ATOM      1  C   UNL     1       3.591   7.517  17.787  0.00  0.00    +0.000 C 
ATOM      2  C   UNL     1       2.870   6.926  18.994  0.00  0.00    +0.000 C 
ENDROOT
BRANCH   2   3
ATOM      3  N   UNL     1       2.241   5.590  18.881  0.00  0.00    +0.000 NA
ATOM      4  C   UNL     1       2.269   4.789  20.114  0.00  0.00    +0.000 C 
ATOM      5  C   UNL     1       3.428   3.788  20.217  0.00  0.00    +0.000 C 
ATOM      6  O   UNL     1       3.455   2.894  19.103  0.00  0.00    +0.000 OA
ATOM      7  C   UNL     1       3.570   3.579  17.842  0.00  0.00    +0.000 C 
ATOM      8  C   UNL     1       2.572   4.760  17.703  0.00  0.00    +0.000 C 
BRANCH   7   9
ATOM      9  C   UNL     1       5.006   3.959  17.562  0.00  0.00    +0.000 A 
ATOM     10  N   UNL     1       5.925   4.254  18.462  0.00  0.00    +0.000 NA
ATOM     11  C   UNL     1       7.097   4.630  17.842  0.00  0.00    +0.000 A 
ATOM     12  C   UNL     1       7.085   4.576  16.467  0.00  0.00    +0.000 A 
ATOM     13  S   UNL     1       5.554   4.040  15.922  0.00  0.00    +0.000 S 
ENDBRANCH   7   9
ENDBRANCH   2   3
BRANCH   2  14
ATOM     14  C   UNL     1       1.859   7.945  19.564  0.00  0.00    +0.000 C 
ATOM     15  O   UNL     1       1.370   7.863  20.685  0.00  0.00    +0.000 OA
ATOM     16  N   UNL     1       1.590   8.986  18.695  0.00  0.00    +0.000 N 
ATOM     17  H   UNL     1       2.275   9.116  17.957  0.00  0.00    +0.000 HD
BRANCH  16  18
ATOM     18  C   UNL     1       0.712  10.112  19.056  0.00  0.00    +0.000 C 
ATOM     19  C   UNL     1       0.395  10.081  20.569  0.00  0.00    +0.000 C 
ATOM     20  C   UNL     1      -0.356  11.322  21.057  0.00  0.00    +0.000 C 
ATOM     21  C   UNL     1       0.349  12.617  20.671  0.00  0.00    +0.000 C 
ATOM     22  C   UNL     1       0.705  12.676  19.190  0.00  0.00    +0.000 C 
ATOM     23  C   UNL     1       1.465  11.428  18.737  0.00  0.00    +0.000 C 
BRANCH  18  24
ATOM     24  C   UNL     1      -0.541  10.080  18.244  0.00  0.00    +0.000 C 
ATOM     25  N   UNL     1      -1.514  10.118  17.614  0.00  0.00    +0.000 NA
ENDBRANCH  18  24
ENDBRANCH  16  18
ENDBRANCH   2  14
TORSDOF 5
ENDMDL
MODEL 9
REMARK VINA RESULT:      -6.3      3.263      7.894
REMARK  Name = 
REMARK  6 active torsions:
REMARK  status: ('A' for Active; 'I' for Inactive)
REMARK    1  A    between atoms: C_1  and  C_2
REMARK    2  A    between atoms: C_2  and  C_3
REMARK    3  A    between atoms: C_2  and  N_14
REMARK    4  A    between atoms: N_5  and  C_6
REMARK    5  A    between atoms: C_6  and  C_7
REMARK    6  A    between atoms: C_18  and  C_19
REMARK                            x       y       z     vdW  Elec       q    Type
REMARK                         _______ _______ _______ _____ _____    ______ ____
ROOT
ATOM      1  C   UNL     1       1.817   6.103  19.074  0.00  0.00    +0.000 C 
ATOM      2  C   UNL     1       2.599   6.964  18.088  0.00  0.00    +0.000 C 
ENDROOT
BRANCH   2   3
ATOM      3  N   UNL     1       4.079   6.922  18.104  0.00  0.00    +0.000 NA
ATOM      4  C   UNL     1       4.710   6.932  16.775  0.00  0.00    +0.000 C 
ATOM      5  C   UNL     1       5.081   5.550  16.218  0.00  0.00    +0.000 C 
ATOM      6  O   UNL     1       5.933   4.831  17.112  0.00  0.00    +0.000 OA
ATOM      7  C   UNL     1       5.343   4.642  18.411  0.00  0.00    +0.000 C 
ATOM      8  C   UNL     1       4.741   5.948  18.996  0.00  0.00    +0.000 C 
BRANCH   7   9
ATOM      9  C   UNL     1       4.379   3.477  18.403  0.00  0.00    +0.000 A 
ATOM     10  N   UNL     1       3.573   3.139  17.415  0.00  0.00    +0.000 NA
ATOM     11  C   UNL     1       2.781   2.074  17.789  0.00  0.00    +0.000 A 
ATOM     12  C   UNL     1       3.017   1.572  19.048  0.00  0.00    +0.000 A 
ATOM     13  S   UNL     1       4.272   2.460  19.800  0.00  0.00    +0.000 S 
ENDBRANCH   7   9
ENDBRANCH   2   3
BRANCH   2  14
ATOM     14  C   UNL     1       2.105   8.425  18.146  0.00  0.00    +0.000 C 
ATOM     15  O   UNL     1       2.210   9.216  17.214  0.00  0.00    +0.000 OA
ATOM     16  N   UNL     1       1.494   8.745  19.344  0.00  0.00    +0.000 N 
ATOM     17  H   UNL     1       1.187   7.948  19.893  0.00  0.00    +0.000 HD
BRANCH  16  18
ATOM     18  C   UNL     1       0.882  10.061  19.594  0.00  0.00    +0.000 C 
ATOM     19  C   UNL     1       1.684  11.171  18.876  0.00  0.00    +0.000 C 
ATOM     20  C   UNL     1       1.005  12.541  18.931  0.00  0.00    +0.000 C 
ATOM     21  C   UNL     1      -0.435  12.497  18.435  0.00  0.00    +0.000 C 
ATOM     22  C   UNL     1      -1.254  11.396  19.099  0.00  0.00    +0.000 C 
ATOM     23  C   UNL     1      -0.556  10.037  19.016  0.00  0.00    +0.000 C 
BRANCH  18  24
ATOM     24  C   UNL     1       0.793  10.326  21.061  0.00  0.00    +0.000 C 
ATOM     25  N   UNL     1       0.667  10.555  22.191  0.00  0.00    +0.000 NA
ENDBRANCH  18  24
ENDBRANCH  16  18
ENDBRANCH   2  14
TORSDOF 5
ENDMDL
