MODEL 1
REMARK VINA RESULT:      -7.9      0.000      0.000
REMARK  Name = 
REMARK  9 active torsions:
REMARK  status: ('A' for Active; 'I' for Inactive)
REMARK    1  A    between atoms: C_1  and  C_2
REMARK    2  A    between atoms: C_2  and  O_3
REMARK    3  A    between atoms: O_3  and  C_4
REMARK    4  A    between atoms: C_4  and  C_6
REMARK    5  A    between atoms: C_13  and  N_14
REMARK    6  A    between atoms: N_14  and  C_15
REMARK    7  A    between atoms: C_15  and  C_16
REMARK    8  A    between atoms: C_16  and  O_17
REMARK    9  A    between atoms: C_16  and  C_18
REMARK                            x       y       z     vdW  Elec       q    Type
REMARK                         _______ _______ _______ _____ _____    ______ ____
ROOT
ATOM      1  C   UNL     1      -0.377  11.045  18.916  0.00  0.00    +0.000 A 
ATOM      2  C   UNL     1      -0.577  10.734  20.264  0.00  0.00    +0.000 A 
ATOM      3  C   UNL     1       0.107   9.665  20.841  0.00  0.00    +0.000 A 
ATOM      4  C   UNL     1       0.988   8.888  20.077  0.00  0.00    +0.000 A 
ATOM      5  C   UNL     1       1.202   9.212  18.729  0.00  0.00    +0.000 A 
ATOM      6  C   UNL     1       0.501  10.276  18.149  0.00  0.00    +0.000 A 
ATOM      7  C   UNL     1       2.119   8.400  17.861  0.00  0.00    +0.000 C 
ATOM      8  C   UNL     1       3.076   7.470  18.625  0.00  0.00    +0.000 C 
ATOM      9  C   UNL     1       2.303   6.746  19.741  0.00  0.00    +0.000 C 
ATOM     10  C   UNL     1       1.722   7.749  20.738  0.00  0.00    +0.000 C 
ENDROOT
BRANCH   1  11
ATOM     11  C   UNL     1      -1.129  12.191  18.340  0.00  0.00    +0.000 C 
ATOM     12  O   UNL     1      -0.611  13.241  18.031  0.00  0.00    +0.000 OA
BRANCH  11  13
ATOM     13  O   UNL     1      -2.461  11.915  18.341  0.00  0.00    +0.000 OA
BRANCH  13  15
ATOM     14  C   UNL     1      -3.334   9.843  17.531  0.00  0.00    +0.000 C 
ATOM     15  C   UNL     1      -2.918  11.254  17.157  0.00  0.00    +0.000 C 
ENDBRANCH  13  15
ENDBRANCH  11  13
ENDBRANCH   1  11
BRANCH   8  16
ATOM     16  N   UNL     1       3.680   6.497  17.699  0.00  0.00    +0.000 NA
ATOM     17  H   UNL     1       4.033   6.973  16.864  0.00  0.00    +0.000 HD
BRANCH  16  18
ATOM     18  C   UNL     1       4.804   5.758  18.302  0.00  0.00    +0.000 C 
BRANCH  18  19
ATOM     19  C   UNL     1       4.698   4.243  18.014  0.00  0.00    +0.000 C 
BRANCH  19  20
ATOM     20  C   UNL     1       3.392   3.669  18.529  0.00  0.00    +0.000 A 
ATOM     21  C   UNL     1       2.323   3.467  17.641  0.00  0.00    +0.000 A 
ATOM     22  C   UNL     1       1.100   2.968  18.094  0.00  0.00    +0.000 A 
ATOM     23  C   UNL     1       0.927   2.664  19.444  0.00  0.00    +0.000 A 
ATOM     24  C   UNL     1       1.978   2.863  20.334  0.00  0.00    +0.000 A 
ATOM     25 CL   UNL     1       1.767   2.503  22.003  0.00  0.00    +0.000 Cl
ATOM     26  C   UNL     1       3.203   3.360  19.887  0.00  0.00    +0.000 A 
ENDBRANCH  19  20
BRANCH  19  27
ATOM     27  O   UNL     1       5.808   3.553  18.595  0.00  0.00    +0.000 OA
ATOM     28  H   UNL     1       6.538   4.184  18.691  0.00  0.00    +0.000 HD
ENDBRANCH  19  27
ENDBRANCH  18  19
ENDBRANCH  16  18
ENDBRANCH   8  16
TORSDOF 8
ENDMDL
MODEL 2
REMARK VINA RESULT:      -7.9      4.147      7.849
REMARK  Name = 
REMARK  9 active torsions:
REMARK  status: ('A' for Active; 'I' for Inactive)
REMARK    1  A    between atoms: C_1  and  C_2
REMARK    2  A    between atoms: C_2  and  O_3
REMARK    3  A    between atoms: O_3  and  C_4
REMARK    4  A    between atoms: C_4  and  C_6
REMARK    5  A    between atoms: C_13  and  N_14
REMARK    6  A    between atoms: N_14  and  C_15
REMARK    7  A    between atoms: C_15  and  C_16
REMARK    8  A    between atoms: C_16  and  O_17
REMARK    9  A    between atoms: C_16  and  C_18
REMARK                            x       y       z     vdW  Elec       q    Type
REMARK                         _______ _______ _______ _____ _____    ______ ____
ROOT
ATOM      1  C   UNL     1       5.739   3.678  13.024  0.00  0.00    +0.000 A 
ATOM      2  C   UNL     1       6.940   4.381  12.896  0.00  0.00    +0.000 A 
ATOM      3  C   UNL     1       7.480   5.043  13.997  0.00  0.00    +0.000 A 
ATOM      4  C   UNL     1       6.823   5.019  15.234  0.00  0.00    +0.000 A 
ATOM      5  C   UNL     1       5.626   4.299  15.367  0.00  0.00    +0.000 A 
ATOM      6  C   UNL     1       5.079   3.649  14.253  0.00  0.00    +0.000 A 
ATOM      7  C   UNL     1       4.871   4.259  16.663  0.00  0.00    +0.000 C 
ATOM      8  C   UNL     1       5.675   4.712  17.893  0.00  0.00    +0.000 C 
ATOM      9  C   UNL     1       6.458   5.991  17.549  0.00  0.00    +0.000 C 
ATOM     10  C   UNL     1       7.444   5.733  16.409  0.00  0.00    +0.000 C 
ENDROOT
BRANCH   1  11
ATOM     11  C   UNL     1       5.196   2.990  11.822  0.00  0.00    +0.000 C 
ATOM     12  O   UNL     1       5.498   1.860  11.508  0.00  0.00    +0.000 OA
BRANCH  11  13
ATOM     13  O   UNL     1       4.437   3.855  11.098  0.00  0.00    +0.000 OA
BRANCH  13  15
ATOM     14  C   UNL     1       2.743   4.229   9.454  0.00  0.00    +0.000 C 
ATOM     15  C   UNL     1       3.307   3.247  10.464  0.00  0.00    +0.000 C 
ENDBRANCH  13  15
ENDBRANCH  11  13
ENDBRANCH   1  11
BRANCH   8  16
ATOM     16  N   UNL     1       4.767   4.952  19.029  0.00  0.00    +0.000 NA
ATOM     17  H   UNL     1       5.235   4.726  19.911  0.00  0.00    +0.000 HD
BRANCH  16  18
ATOM     18  C   UNL     1       4.311   6.351  19.108  0.00  0.00    +0.000 C 
BRANCH  18  19
ATOM     19  C   UNL     1       2.770   6.434  19.204  0.00  0.00    +0.000 C 
BRANCH  19  20
ATOM     20  C   UNL     1       2.144   5.056  19.300  0.00  0.00    +0.000 A 
ATOM     21  C   UNL     1       1.685   4.419  18.135  0.00  0.00    +0.000 A 
ATOM     22  C   UNL     1       1.077   3.163  18.198  0.00  0.00    +0.000 A 
ATOM     23  C   UNL     1       0.919   2.525  19.427  0.00  0.00    +0.000 A 
ATOM     24  C   UNL     1       1.367   3.148  20.589  0.00  0.00    +0.000 A 
ATOM     25 CL   UNL     1       1.162   2.372  22.110  0.00  0.00    +0.000 Cl
ATOM     26  C   UNL     1       1.976   4.402  20.532  0.00  0.00    +0.000 A 
ENDBRANCH  19  20
BRANCH  19  27
ATOM     27  O   UNL     1       2.245   7.142  18.077  0.00  0.00    +0.000 OA
ATOM     28  H   UNL     1       2.656   6.782  17.277  0.00  0.00    +0.000 HD
ENDBRANCH  19  27
ENDBRANCH  18  19
ENDBRANCH  16  18
ENDBRANCH   8  16
TORSDOF 8
ENDMDL
MODEL 3
REMARK VINA RESULT:      -7.8      3.395      5.577
REMARK  Name = 
REMARK  9 active torsions:
REMARK  status: ('A' for Active; 'I' for Inactive)
REMARK    1  A    between atoms: C_1  and  C_2
REMARK    2  A    between atoms: C_2  and  O_3
REMARK    3  A    between atoms: O_3  and  C_4
REMARK    4  A    between atoms: C_4  and  C_6
REMARK    5  A    between atoms: C_13  and  N_14
REMARK    6  A    between atoms: N_14  and  C_15
REMARK    7  A    between atoms: C_15  and  C_16
REMARK    8  A    between atoms: C_16  and  O_17
REMARK    9  A    between atoms: C_16  and  C_18
REMARK                            x       y       z     vdW  Elec       q    Type
REMARK                         _______ _______ _______ _____ _____    ______ ____
ROOT
ATOM      1  C   UNL     1       1.737   6.774  20.265  0.00  0.00    +0.000 A 
ATOM      2  C   UNL     1       0.997   5.763  20.883  0.00  0.00    +0.000 A 
ATOM      3  C   UNL     1       1.196   4.432  20.522  0.00  0.00    +0.000 A 
ATOM      4  C   UNL     1       2.129   4.096  19.532  0.00  0.00    +0.000 A 
ATOM      5  C   UNL     1       2.885   5.110  18.923  0.00  0.00    +0.000 A 
ATOM      6  C   UNL     1       2.670   6.447  19.279  0.00  0.00    +0.000 A 
ATOM      7  C   UNL     1       3.882   4.806  17.843  0.00  0.00    +0.000 C 
ATOM      8  C   UNL     1       4.288   3.327  17.736  0.00  0.00    +0.000 C 
ATOM      9  C   UNL     1       3.033   2.444  17.833  0.00  0.00    +0.000 C 
ATOM     10  C   UNL     1       2.331   2.645  19.176  0.00  0.00    +0.000 C 
ENDROOT
BRANCH   1  11
ATOM     11  C   UNL     1       1.489   8.181  20.679  0.00  0.00    +0.000 C 
ATOM     12  O   UNL     1       1.812   8.625  21.757  0.00  0.00    +0.000 OA
BRANCH  11  13
ATOM     13  O   UNL     1       0.754   8.818  19.728  0.00  0.00    +0.000 OA
BRANCH  13  15
ATOM     14  C   UNL     1       1.868   9.581  17.756  0.00  0.00    +0.000 C 
ATOM     15  C   UNL     1       1.408   9.954  19.154  0.00  0.00    +0.000 C 
ENDBRANCH  13  15
ENDBRANCH  11  13
ENDBRANCH   1  11
BRANCH   8  16
ATOM     16  N   UNL     1       4.992   3.089  16.463  0.00  0.00    +0.000 NA
ATOM     17  H   UNL     1       4.454   2.445  15.876  0.00  0.00    +0.000 HD
BRANCH  16  18
ATOM     18  C   UNL     1       5.209   4.325  15.691  0.00  0.00    +0.000 C 
BRANCH  18  19
ATOM     19  C   UNL     1       6.716   4.638  15.544  0.00  0.00    +0.000 C 
BRANCH  19  20
ATOM     20  C   UNL     1       7.242   5.412  16.736  0.00  0.00    +0.000 A 
ATOM     21  C   UNL     1       7.633   4.722  17.895  0.00  0.00    +0.000 A 
ATOM     22  C   UNL     1       8.093   5.413  19.019  0.00  0.00    +0.000 A 
ATOM     23  C   UNL     1       8.169   6.805  19.000  0.00  0.00    +0.000 A 
ATOM     24  C   UNL     1       7.782   7.500  17.858  0.00  0.00    +0.000 A 
ATOM     25 CL   UNL     1       7.859   9.219  17.833  0.00  0.00    +0.000 Cl
ATOM     26  C   UNL     1       7.322   6.815  16.732  0.00  0.00    +0.000 A 
ENDBRANCH  19  20
BRANCH  19  27
ATOM     27  O   UNL     1       6.951   5.365  14.335  0.00  0.00    +0.000 OA
ATOM     28  H   UNL     1       7.199   6.272  14.571  0.00  0.00    +0.000 HD
ENDBRANCH  19  27
ENDBRANCH  18  19
ENDBRANCH  16  18
ENDBRANCH   8  16
TORSDOF 8
ENDMDL
MODEL 4
REMARK VINA RESULT:      -7.8      4.306      8.384
REMARK  Name = 
REMARK  9 active torsions:
REMARK  status: ('A' for Active; 'I' for Inactive)
REMARK    1  A    between atoms: C_1  and  C_2
REMARK    2  A    between atoms: C_2  and  O_3
REMARK    3  A    between atoms: O_3  and  C_4
REMARK    4  A    between atoms: C_4  and  C_6
REMARK    5  A    between atoms: C_13  and  N_14
REMARK    6  A    between atoms: N_14  and  C_15
REMARK    7  A    between atoms: C_15  and  C_16
REMARK    8  A    between atoms: C_16  and  O_17
REMARK    9  A    between atoms: C_16  and  C_18
REMARK                            x       y       z     vdW  Elec       q    Type
REMARK                         _______ _______ _______ _____ _____    ______ ____
ROOT
ATOM      1  C   UNL     1       5.729   3.640  13.185  0.00  0.00    +0.000 A 
ATOM      2  C   UNL     1       6.875   4.431  13.068  0.00  0.00    +0.000 A 
ATOM      3  C   UNL     1       7.400   5.069  14.191  0.00  0.00    +0.000 A 
ATOM      4  C   UNL     1       6.780   4.933  15.440  0.00  0.00    +0.000 A 
ATOM      5  C   UNL     1       5.640   4.125  15.561  0.00  0.00    +0.000 A 
ATOM      6  C   UNL     1       5.108   3.499  14.427  0.00  0.00    +0.000 A 
ATOM      7  C   UNL     1       4.926   3.963  16.872  0.00  0.00    +0.000 C 
ATOM      8  C   UNL     1       5.731   4.405  18.104  0.00  0.00    +0.000 C 
ATOM      9  C   UNL     1       6.415   5.751  17.813  0.00  0.00    +0.000 C 
ATOM     10  C   UNL     1       7.384   5.624  16.637  0.00  0.00    +0.000 C 
ENDROOT
BRANCH   1  11
ATOM     11  C   UNL     1       5.202   2.981  11.961  0.00  0.00    +0.000 C 
ATOM     12  O   UNL     1       5.785   2.095  11.377  0.00  0.00    +0.000 OA
BRANCH  11  13
ATOM     13  O   UNL     1       4.064   3.606  11.555  0.00  0.00    +0.000 OA
BRANCH  13  15
ATOM     14  C   UNL     1       2.879   4.242   9.579  0.00  0.00    +0.000 C 
ATOM     15  C   UNL     1       3.525   3.093  10.332  0.00  0.00    +0.000 C 
ENDBRANCH  13  15
ENDBRANCH  11  13
ENDBRANCH   1  11
BRANCH   8  16
ATOM     16  N   UNL     1       4.841   4.519  19.273  0.00  0.00    +0.000 NA
ATOM     17  H   UNL     1       5.343   4.261  20.128  0.00  0.00    +0.000 HD
BRANCH  16  18
ATOM     18  C   UNL     1       4.315   5.883  19.458  0.00  0.00    +0.000 C 
BRANCH  18  19
ATOM     19  C   UNL     1       2.780   5.872  19.640  0.00  0.00    +0.000 C 
BRANCH  19  20
ATOM     20  C   UNL     1       2.184   7.250  19.423  0.00  0.00    +0.000 A 
ATOM     21  C   UNL     1       2.296   7.864  18.165  0.00  0.00    +0.000 A 
ATOM     22  C   UNL     1       1.783   9.144  17.946  0.00  0.00    +0.000 A 
ATOM     23  C   UNL     1       1.150   9.830  18.981  0.00  0.00    +0.000 A 
ATOM     24  C   UNL     1       1.036   9.232  20.234  0.00  0.00    +0.000 A 
ATOM     25 CL   UNL     1       0.269  10.079  21.520  0.00  0.00    +0.000 Cl
ATOM     26  C   UNL     1       1.546   7.953  20.458  0.00  0.00    +0.000 A 
ENDBRANCH  19  20
BRANCH  19  27
ATOM     27  O   UNL     1       2.444   5.384  20.942  0.00  0.00    +0.000 OA
ATOM     28  H   UNL     1       2.763   6.025  21.597  0.00  0.00    +0.000 HD
ENDBRANCH  19  27
ENDBRANCH  18  19
ENDBRANCH  16  18
ENDBRANCH   8  16
TORSDOF 8
ENDMDL
MODEL 5
REMARK VINA RESULT:      -7.7      4.327      7.777
REMARK  Name = 
REMARK  9 active torsions:
REMARK  status: ('A' for Active; 'I' for Inactive)
REMARK    1  A    between atoms: C_1  and  C_2
REMARK    2  A    between atoms: C_2  and  O_3
REMARK    3  A    between atoms: O_3  and  C_4
REMARK    4  A    between atoms: C_4  and  C_6
REMARK    5  A    between atoms: C_13  and  N_14
REMARK    6  A    between atoms: N_14  and  C_15
REMARK    7  A    between atoms: C_15  and  C_16
REMARK    8  A    between atoms: C_16  and  O_17
REMARK    9  A    between atoms: C_16  and  C_18
REMARK                            x       y       z     vdW  Elec       q    Type
REMARK                         _______ _______ _______ _____ _____    ______ ____
ROOT
ATOM      1  C   UNL     1       6.630   4.582  15.152  0.00  0.00    +0.000 A 
ATOM      2  C   UNL     1       7.359   5.577  15.810  0.00  0.00    +0.000 A 
ATOM      3  C   UNL     1       7.178   5.785  17.176  0.00  0.00    +0.000 A 
ATOM      4  C   UNL     1       6.259   5.011  17.898  0.00  0.00    +0.000 A 
ATOM      5  C   UNL     1       5.540   4.001  17.240  0.00  0.00    +0.000 A 
ATOM      6  C   UNL     1       5.715   3.806  15.865  0.00  0.00    +0.000 A 
ATOM      7  C   UNL     1       4.530   3.158  17.962  0.00  0.00    +0.000 C 
ATOM      8  C   UNL     1       4.624   3.208  19.495  0.00  0.00    +0.000 C 
ATOM      9  C   UNL     1       4.808   4.666  19.949  0.00  0.00    +0.000 C 
ATOM     10  C   UNL     1       6.099   5.252  19.378  0.00  0.00    +0.000 C 
ENDROOT
BRANCH   1  11
ATOM     11  C   UNL     1       6.853   4.397  13.693  0.00  0.00    +0.000 C 
ATOM     12  O   UNL     1       7.384   5.227  12.989  0.00  0.00    +0.000 OA
BRANCH  11  13
ATOM     13  O   UNL     1       6.267   3.241  13.281  0.00  0.00    +0.000 OA
BRANCH  13  15
ATOM     14  C   UNL     1       5.661   2.005  11.326  0.00  0.00    +0.000 C 
ATOM     15  C   UNL     1       5.587   3.350  12.026  0.00  0.00    +0.000 C 
ENDBRANCH  13  15
ENDBRANCH  11  13
ENDBRANCH   1  11
BRANCH   8  16
ATOM     16  N   UNL     1       3.408   2.630  20.094  0.00  0.00    +0.000 NA
ATOM     17  H   UNL     1       3.089   3.206  20.878  0.00  0.00    +0.000 HD
BRANCH  16  18
ATOM     18  C   UNL     1       2.294   2.524  19.134  0.00  0.00    +0.000 C 
BRANCH  18  19
ATOM     19  C   UNL     1       1.123   3.453  19.529  0.00  0.00    +0.000 C 
BRANCH  19  20
ATOM     20  C   UNL     1       1.497   4.915  19.376  0.00  0.00    +0.000 A 
ATOM     21  C   UNL     1       1.989   5.380  18.145  0.00  0.00    +0.000 A 
ATOM     22  C   UNL     1       2.369   6.715  17.985  0.00  0.00    +0.000 A 
ATOM     23  C   UNL     1       2.262   7.604  19.053  0.00  0.00    +0.000 A 
ATOM     24  C   UNL     1       1.778   7.154  20.278  0.00  0.00    +0.000 A 
ATOM     25 CL   UNL     1       1.657   8.243  21.605  0.00  0.00    +0.000 Cl
ATOM     26  C   UNL     1       1.396   5.822  20.444  0.00  0.00    +0.000 A 
ENDBRANCH  19  20
BRANCH  19  27
ATOM     27  O   UNL     1       0.714   3.183  20.873  0.00  0.00    +0.000 OA
ATOM     28  H   UNL     1       1.488   2.873  21.368  0.00  0.00    +0.000 HD
ENDBRANCH  19  27
ENDBRANCH  18  19
ENDBRANCH  16  18
ENDBRANCH   8  16
TORSDOF 8
ENDMDL
MODEL 6
REMARK VINA RESULT:      -7.7      3.589      5.550
REMARK  Name = 
REMARK  9 active torsions:
REMARK  status: ('A' for Active; 'I' for Inactive)
REMARK    1  A    between atoms: C_1  and  C_2
REMARK    2  A    between atoms: C_2  and  O_3
REMARK    3  A    between atoms: O_3  and  C_4
REMARK    4  A    between atoms: C_4  and  C_6
REMARK    5  A    between atoms: C_13  and  N_14
REMARK    6  A    between atoms: N_14  and  C_15
REMARK    7  A    between atoms: C_15  and  C_16
REMARK    8  A    between atoms: C_16  and  O_17
REMARK    9  A    between atoms: C_16  and  C_18
REMARK                            x       y       z     vdW  Elec       q    Type
REMARK                         _______ _______ _______ _____ _____    ______ ____
ROOT
ATOM      1  C   UNL     1       1.710   7.139  20.226  0.00  0.00    +0.000 A 
ATOM      2  C   UNL     1       1.319   6.059  21.021  0.00  0.00    +0.000 A 
ATOM      3  C   UNL     1       1.667   4.760  20.653  0.00  0.00    +0.000 A 
ATOM      4  C   UNL     1       2.398   4.525  19.481  0.00  0.00    +0.000 A 
ATOM      5  C   UNL     1       2.805   5.612  18.692  0.00  0.00    +0.000 A 
ATOM      6  C   UNL     1       2.440   6.913  19.058  0.00  0.00    +0.000 A 
ATOM      7  C   UNL     1       3.572   5.413  17.417  0.00  0.00    +0.000 C 
ATOM      8  C   UNL     1       4.201   4.020  17.251  0.00  0.00    +0.000 C 
ATOM      9  C   UNL     1       3.178   2.946  17.657  0.00  0.00    +0.000 C 
ATOM     10  C   UNL     1       2.771   3.109  19.122  0.00  0.00    +0.000 C 
ENDROOT
BRANCH   1  11
ATOM     11  C   UNL     1       1.314   8.507  20.655  0.00  0.00    +0.000 C 
ATOM     12  O   UNL     1       1.367   9.475  19.929  0.00  0.00    +0.000 OA
BRANCH  11  13
ATOM     13  O   UNL     1       1.017   8.506  21.982  0.00  0.00    +0.000 OA
BRANCH  13  15
ATOM     14  C   UNL     1      -0.403  10.154  22.972  0.00  0.00    +0.000 C 
ATOM     15  C   UNL     1      -0.352   8.809  22.271  0.00  0.00    +0.000 C 
ENDBRANCH  13  15
ENDBRANCH  11  13
ENDBRANCH   1  11
BRANCH   8  16
ATOM     16  N   UNL     1       4.632   3.824  15.856  0.00  0.00    +0.000 NA
ATOM     17  H   UNL     1       4.320   4.608  15.275  0.00  0.00    +0.000 HD
BRANCH  16  18
ATOM     18  C   UNL     1       6.095   3.720  15.721  0.00  0.00    +0.000 C 
BRANCH  18  19
ATOM     19  C   UNL     1       6.733   5.101  15.442  0.00  0.00    +0.000 C 
BRANCH  19  20
ATOM     20  C   UNL     1       7.264   5.735  16.713  0.00  0.00    +0.000 A 
ATOM     21  C   UNL     1       7.498   4.934  17.843  0.00  0.00    +0.000 A 
ATOM     22  C   UNL     1       7.958   5.497  19.035  0.00  0.00    +0.000 A 
ATOM     23  C   UNL     1       8.192   6.869  19.116  0.00  0.00    +0.000 A 
ATOM     24  C   UNL     1       7.961   7.673  18.003  0.00  0.00    +0.000 A 
ATOM     25 CL   UNL     1       8.234   9.369  18.099  0.00  0.00    +0.000 Cl
ATOM     26  C   UNL     1       7.502   7.116  16.808  0.00  0.00    +0.000 A 
ENDBRANCH  19  20
BRANCH  19  27
ATOM     27  O   UNL     1       5.779   5.964  14.816  0.00  0.00    +0.000 OA
ATOM     28  H   UNL     1       6.208   6.818  14.651  0.00  0.00    +0.000 HD
ENDBRANCH  19  27
ENDBRANCH  18  19
ENDBRANCH  16  18
ENDBRANCH   8  16
TORSDOF 8
ENDMDL
MODEL 7
REMARK VINA RESULT:      -7.6      3.435      8.493
REMARK  Name = 
REMARK  9 active torsions:
REMARK  status: ('A' for Active; 'I' for Inactive)
REMARK    1  A    between atoms: C_1  and  C_2
REMARK    2  A    between atoms: C_2  and  O_3
REMARK    3  A    between atoms: O_3  and  C_4
REMARK    4  A    between atoms: C_4  and  C_6
REMARK    5  A    between atoms: C_13  and  N_14
REMARK    6  A    between atoms: N_14  and  C_15
REMARK    7  A    between atoms: C_15  and  C_16
REMARK    8  A    between atoms: C_16  and  O_17
REMARK    9  A    between atoms: C_16  and  C_18
REMARK                            x       y       z     vdW  Elec       q    Type
REMARK                         _______ _______ _______ _____ _____    ______ ____
ROOT
ATOM      1  C   UNL     1       5.621   4.850  15.878  0.00  0.00    +0.000 A 
ATOM      2  C   UNL     1       5.164   3.717  16.556  0.00  0.00    +0.000 A 
ATOM      3  C   UNL     1       4.179   3.840  17.536  0.00  0.00    +0.000 A 
ATOM      4  C   UNL     1       3.649   5.097  17.856  0.00  0.00    +0.000 A 
ATOM      5  C   UNL     1       4.096   6.232  17.163  0.00  0.00    +0.000 A 
ATOM      6  C   UNL     1       5.096   6.105  16.191  0.00  0.00    +0.000 A 
ATOM      7  C   UNL     1       3.576   7.603  17.482  0.00  0.00    +0.000 C 
ATOM      8  C   UNL     1       2.281   7.627  18.312  0.00  0.00    +0.000 C 
ATOM      9  C   UNL     1       2.390   6.607  19.458  0.00  0.00    +0.000 C 
ATOM     10  C   UNL     1       2.575   5.192  18.910  0.00  0.00    +0.000 C 
ENDROOT
BRANCH   1  11
ATOM     11  C   UNL     1       6.674   4.673  14.843  0.00  0.00    +0.000 C 
ATOM     12  O   UNL     1       7.505   5.515  14.588  0.00  0.00    +0.000 OA
BRANCH  11  13
ATOM     13  O   UNL     1       6.472   3.505  14.175  0.00  0.00    +0.000 OA
BRANCH  13  15
ATOM     14  C   UNL     1       6.942   3.728  11.843  0.00  0.00    +0.000 C 
ATOM     15  C   UNL     1       5.851   3.669  12.896  0.00  0.00    +0.000 C 
ENDBRANCH  13  15
ENDBRANCH  11  13
ENDBRANCH   1  11
BRANCH   8  16
ATOM     16  N   UNL     1       2.047   8.981  18.844  0.00  0.00    +0.000 NA
ATOM     17  H   UNL     1       2.819   9.602  18.584  0.00  0.00    +0.000 HD
BRANCH  16  18
ATOM     18  C   UNL     1       0.799   9.582  18.342  0.00  0.00    +0.000 C 
BRANCH  18  19
ATOM     19  C   UNL     1       0.531  10.953  19.005  0.00  0.00    +0.000 C 
BRANCH  19  20
ATOM     20  C   UNL     1       0.030  10.795  20.428  0.00  0.00    +0.000 A 
ATOM     21  C   UNL     1      -0.013   9.518  21.011  0.00  0.00    +0.000 A 
ATOM     22  C   UNL     1      -0.499   9.339  22.308  0.00  0.00    +0.000 A 
ATOM     23  C   UNL     1      -0.948  10.436  23.043  0.00  0.00    +0.000 A 
ATOM     24  C   UNL     1      -0.912  11.706  22.474  0.00  0.00    +0.000 A 
ATOM     25 CL   UNL     1      -1.478  13.062  23.370  0.00  0.00    +0.000 Cl
ATOM     26  C   UNL     1      -0.428  11.890  21.178  0.00  0.00    +0.000 A 
ENDBRANCH  19  20
BRANCH  19  27
ATOM     27  O   UNL     1      -0.409  11.700  18.227  0.00  0.00    +0.000 OA
ATOM     28  H   UNL     1      -0.079  11.744  17.316  0.00  0.00    +0.000 HD
ENDBRANCH  19  27
ENDBRANCH  18  19
ENDBRANCH  16  18
ENDBRANCH   8  16
TORSDOF 8
ENDMDL
MODEL 8
REMARK VINA RESULT:      -7.6      2.568      4.065
REMARK  Name = 
REMARK  9 active torsions:
REMARK  status: ('A' for Active; 'I' for Inactive)
REMARK    1  A    between atoms: C_1  and  C_2
REMARK    2  A    between atoms: C_2  and  O_3
REMARK    3  A    between atoms: O_3  and  C_4
REMARK    4  A    between atoms: C_4  and  C_6
REMARK    5  A    between atoms: C_13  and  N_14
REMARK    6  A    between atoms: N_14  and  C_15
REMARK    7  A    between atoms: C_15  and  C_16
REMARK    8  A    between atoms: C_16  and  O_17
REMARK    9  A    between atoms: C_16  and  C_18
REMARK                            x       y       z     vdW  Elec       q    Type
REMARK                         _______ _______ _______ _____ _____    ______ ____
ROOT
ATOM      1  C   UNL     1       0.371  10.791  19.902  0.00  0.00    +0.000 A 
ATOM      2  C   UNL     1       0.709  11.071  18.575  0.00  0.00    +0.000 A 
ATOM      3  C   UNL     1       1.437  10.144  17.831  0.00  0.00    +0.000 A 
ATOM      4  C   UNL     1       1.846   8.934  18.406  0.00  0.00    +0.000 A 
ATOM      5  C   UNL     1       1.491   8.645  19.733  0.00  0.00    +0.000 A 
ATOM      6  C   UNL     1       0.773   9.586  20.481  0.00  0.00    +0.000 A 
ATOM      7  C   UNL     1       1.921   7.372  20.402  0.00  0.00    +0.000 C 
ATOM      8  C   UNL     1       2.415   6.274  19.446  0.00  0.00    +0.000 C 
ATOM      9  C   UNL     1       3.353   6.894  18.397  0.00  0.00    +0.000 C 
ATOM     10  C   UNL     1       2.618   7.947  17.567  0.00  0.00    +0.000 C 
ENDROOT
BRANCH   1  11
ATOM     11  C   UNL     1      -0.403  11.809  20.660  0.00  0.00    +0.000 C 
ATOM     12  O   UNL     1      -1.190  12.570  20.141  0.00  0.00    +0.000 OA
BRANCH  11  13
ATOM     13  O   UNL     1       0.002  11.824  21.958  0.00  0.00    +0.000 OA
BRANCH  13  15
ATOM     14  C   UNL     1      -0.822  10.041  23.319  0.00  0.00    +0.000 C 
ATOM     15  C   UNL     1      -1.028  11.483  22.891  0.00  0.00    +0.000 C 
ENDBRANCH  13  15
ENDBRANCH  11  13
ENDBRANCH   1  11
BRANCH   8  16
ATOM     16  N   UNL     1       3.112   5.221  20.206  0.00  0.00    +0.000 NA
ATOM     17  H   UNL     1       2.633   5.049  21.094  0.00  0.00    +0.000 HD
BRANCH  16  18
ATOM     18  C   UNL     1       3.177   3.942  19.477  0.00  0.00    +0.000 C 
BRANCH  18  19
ATOM     19  C   UNL     1       4.629   3.416  19.397  0.00  0.00    +0.000 C 
BRANCH  19  20
ATOM     20  C   UNL     1       5.417   4.120  18.310  0.00  0.00    +0.000 A 
ATOM     21  C   UNL     1       6.433   5.024  18.663  0.00  0.00    +0.000 A 
ATOM     22  C   UNL     1       7.153   5.709  17.682  0.00  0.00    +0.000 A 
ATOM     23  C   UNL     1       6.869   5.501  16.333  0.00  0.00    +0.000 A 
ATOM     24  C   UNL     1       5.862   4.611  15.971  0.00  0.00    +0.000 A 
ATOM     25 CL   UNL     1       5.496   4.360  14.309  0.00  0.00    +0.000 Cl
ATOM     26  C   UNL     1       5.139   3.923  16.947  0.00  0.00    +0.000 A 
ENDBRANCH  19  20
BRANCH  19  27
ATOM     27  O   UNL     1       4.627   2.002  19.174  0.00  0.00    +0.000 OA
ATOM     28  H   UNL     1       5.406   1.627  19.613  0.00  0.00    +0.000 HD
ENDBRANCH  19  27
ENDBRANCH  18  19
ENDBRANCH  16  18
ENDBRANCH   8  16
TORSDOF 8
ENDMDL
MODEL 9
REMARK VINA RESULT:      -7.6      3.232      5.050
REMARK  Name = 
REMARK  9 active torsions:
REMARK  status: ('A' for Active; 'I' for Inactive)
REMARK    1  A    between atoms: C_1  and  C_2
REMARK    2  A    between atoms: C_2  and  O_3
REMARK    3  A    between atoms: O_3  and  C_4
REMARK    4  A    between atoms: C_4  and  C_6
REMARK    5  A    between atoms: C_13  and  N_14
REMARK    6  A    between atoms: N_14  and  C_15
REMARK    7  A    between atoms: C_15  and  C_16
REMARK    8  A    between atoms: C_16  and  O_17
REMARK    9  A    between atoms: C_16  and  C_18
REMARK                            x       y       z     vdW  Elec       q    Type
REMARK                         _______ _______ _______ _____ _____    ______ ____
ROOT
ATOM      1  C   UNL     1       1.670   7.943  20.029  0.00  0.00    +0.000 A 
ATOM      2  C   UNL     1       1.271   6.986  20.967  0.00  0.00    +0.000 A 
ATOM      3  C   UNL     1       1.584   5.643  20.769  0.00  0.00    +0.000 A 
ATOM      4  C   UNL     1       2.287   5.238  19.626  0.00  0.00    +0.000 A 
ATOM      5  C   UNL     1       2.702   6.200  18.693  0.00  0.00    +0.000 A 
ATOM      6  C   UNL     1       2.372   7.546  18.890  0.00  0.00    +0.000 A 
ATOM      7  C   UNL     1       3.440   5.817  17.444  0.00  0.00    +0.000 C 
ATOM      8  C   UNL     1       4.035   4.399  17.454  0.00  0.00    +0.000 C 
ATOM      9  C   UNL     1       2.997   3.413  18.015  0.00  0.00    +0.000 C 
ATOM     10  C   UNL     1       2.622   3.778  19.451  0.00  0.00    +0.000 C 
ENDROOT
BRANCH   1  11
ATOM     11  C   UNL     1       1.312   9.365  20.279  0.00  0.00    +0.000 C 
ATOM     12  O   UNL     1       0.997   9.791  21.368  0.00  0.00    +0.000 OA
BRANCH  11  13
ATOM     13  O   UNL     1       1.276  10.045  19.102  0.00  0.00    +0.000 OA
BRANCH  13  15
ATOM     14  C   UNL     1      -0.965  10.268  18.303  0.00  0.00    +0.000 C 
ATOM     15  C   UNL     1       0.188  10.969  18.998  0.00  0.00    +0.000 C 
ENDBRANCH  13  15
ENDBRANCH  11  13
ENDBRANCH   1  11
BRANCH   8  16
ATOM     16  N   UNL     1       4.435   4.011  16.090  0.00  0.00    +0.000 NA
ATOM     17  H   UNL     1       4.202   4.755  15.426  0.00  0.00    +0.000 HD
BRANCH  16  18
ATOM     18  C   UNL     1       5.880   3.743  15.974  0.00  0.00    +0.000 C 
BRANCH  18  19
ATOM     19  C   UNL     1       6.658   5.022  15.588  0.00  0.00    +0.000 C 
BRANCH  19  20
ATOM     20  C   UNL     1       7.229   5.715  16.810  0.00  0.00    +0.000 A 
ATOM     21  C   UNL     1       7.520   4.966  17.961  0.00  0.00    +0.000 A 
ATOM     22  C   UNL     1       8.018   5.584  19.111  0.00  0.00    +0.000 A 
ATOM     23  C   UNL     1       8.233   6.961  19.125  0.00  0.00    +0.000 A 
ATOM     24  C   UNL     1       7.945   7.715  17.991  0.00  0.00    +0.000 A 
ATOM     25 CL   UNL     1       8.195   9.417  18.007  0.00  0.00    +0.000 Cl
ATOM     26  C   UNL     1       7.448   7.102  16.840  0.00  0.00    +0.000 A 
ENDBRANCH  19  20
BRANCH  19  27
ATOM     27  O   UNL     1       5.807   5.914  14.861  0.00  0.00    +0.000 OA
ATOM     28  H   UNL     1       6.141   6.816  14.984  0.00  0.00    +0.000 HD
ENDBRANCH  19  27
ENDBRANCH  18  19
ENDBRANCH  16  18
ENDBRANCH   8  16
TORSDOF 8
ENDMDL
