MODEL 1
REMARK VINA RESULT:      -8.2      0.000      0.000
REMARK  Name = 
REMARK  5 active torsions:
REMARK  status: ('A' for Active; 'I' for Inactive)
REMARK    1  A    between atoms: C_1  and  C_2
REMARK    2  A    between atoms: C_2  and  C_3
REMARK    3  A    between atoms: C_2  and  N_4
REMARK    4  A    between atoms: C_7  and  C_8
REMARK    5  A    between atoms: C_15  and  C_16
REMARK                            x       y       z     vdW  Elec       q    Type
REMARK                         _______ _______ _______ _____ _____    ______ ____
ROOT
ATOM      1  N   UNL     1       2.802   3.756  19.782  0.00  0.00    +0.000 N 
ATOM      2  C   UNL     1       3.802   2.826  19.664  0.00  0.00    +0.000 A 
ATOM      3  N   UNL     1       4.918   3.348  19.241  0.00  0.00    +0.000 NA
ATOM      4  C   UNL     1       4.667   4.691  19.123  0.00  0.00    +0.000 A 
ATOM      5  C   UNL     1       3.335   5.019  19.455  0.00  0.00    +0.000 A 
ENDROOT
BRANCH   4   6
ATOM      6  C   UNL     1       5.749   5.549  18.651  0.00  0.00    +0.000 A 
ATOM      7  C   UNL     1       5.531   6.342  17.507  0.00  0.00    +0.000 A 
ATOM      8  C   UNL     1       6.507   7.237  17.065  0.00  0.00    +0.000 A 
ATOM      9  C   UNL     1       7.699   7.346  17.771  0.00  0.00    +0.000 A 
ATOM     10  F   UNL     1       8.612   8.251  17.392  0.00  0.00    +0.000 F 
ATOM     11  C   UNL     1       7.953   6.534  18.870  0.00  0.00    +0.000 A 
ATOM     12  C   UNL     1       6.991   5.609  19.289  0.00  0.00    +0.000 A 
ENDBRANCH   4   6
BRANCH   5  13
ATOM     13  C   UNL     1       2.607   6.334  19.460  0.00  0.00    +0.000 A 
ATOM     14  C   UNL     1       2.462   7.089  18.290  0.00  0.00    +0.000 A 
ATOM     15  C   UNL     1       1.902   8.363  18.332  0.00  0.00    +0.000 A 
ATOM     16  N   UNL     1       1.376   8.913  19.439  0.00  0.00    +0.000 NA
ATOM     17  C   UNL     1       1.445   8.168  20.550  0.00  0.00    +0.000 A 
ATOM     18  C   UNL     1       2.064   6.923  20.611  0.00  0.00    +0.000 A 
ENDBRANCH   5  13
BRANCH   1  20
ATOM     19  C   UNL     1       0.661   2.546  19.202  0.00  0.00    +0.000 C 
ATOM     20  C   UNL     1       1.453   3.395  20.208  0.00  0.00    +0.000 C 
ATOM     21  C   UNL     1       1.485   2.677  21.564  0.00  0.00    +0.000 C 
ENDBRANCH   1  20
TORSDOF 3
ENDMDL
MODEL 2
REMARK VINA RESULT:      -7.9      0.344      1.057
REMARK  Name = 
REMARK  5 active torsions:
REMARK  status: ('A' for Active; 'I' for Inactive)
REMARK    1  A    between atoms: C_1  and  C_2
REMARK    2  A    between atoms: C_2  and  C_3
REMARK    3  A    between atoms: C_2  and  N_4
REMARK    4  A    between atoms: C_7  and  C_8
REMARK    5  A    between atoms: C_15  and  C_16
REMARK                            x       y       z     vdW  Elec       q    Type
REMARK                         _______ _______ _______ _____ _____    ______ ____
ROOT
ATOM      1  N   UNL     1       2.631   3.767  19.451  0.00  0.00    +0.000 N 
ATOM      2  C   UNL     1       3.571   2.815  19.151  0.00  0.00    +0.000 A 
ATOM      3  N   UNL     1       4.698   3.337  18.758  0.00  0.00    +0.000 NA
ATOM      4  C   UNL     1       4.520   4.693  18.851  0.00  0.00    +0.000 A 
ATOM      5  C   UNL     1       3.223   5.036  19.289  0.00  0.00    +0.000 A 
ENDROOT
BRANCH   4   6
ATOM      6  C   UNL     1       5.631   5.556  18.462  0.00  0.00    +0.000 A 
ATOM      7  C   UNL     1       5.466   6.410  17.353  0.00  0.00    +0.000 A 
ATOM      8  C   UNL     1       6.470   7.310  16.992  0.00  0.00    +0.000 A 
ATOM      9  C   UNL     1       7.638   7.362  17.743  0.00  0.00    +0.000 A 
ATOM     10  F   UNL     1       8.577   8.269  17.442  0.00  0.00    +0.000 F 
ATOM     11  C   UNL     1       7.841   6.491  18.807  0.00  0.00    +0.000 A 
ATOM     12  C   UNL     1       6.851   5.563  19.145  0.00  0.00    +0.000 A 
ENDBRANCH   4   6
BRANCH   5  13
ATOM     13  C   UNL     1       2.572   6.371  19.522  0.00  0.00    +0.000 A 
ATOM     14  C   UNL     1       1.992   6.691  20.757  0.00  0.00    +0.000 A 
ATOM     15  C   UNL     1       1.279   7.875  20.920  0.00  0.00    +0.000 A 
ATOM     16  N   UNL     1       1.179   8.825  19.976  0.00  0.00    +0.000 NA
ATOM     17  C   UNL     1       1.792   8.559  18.814  0.00  0.00    +0.000 A 
ATOM     18  C   UNL     1       2.452   7.365  18.542  0.00  0.00    +0.000 A 
ENDBRANCH   5  13
BRANCH   1  20
ATOM     19  C   UNL     1       0.548   2.420  18.969  0.00  0.00    +0.000 C 
ATOM     20  C   UNL     1       1.280   3.416  19.881  0.00  0.00    +0.000 C 
ATOM     21  C   UNL     1       1.291   2.876  21.318  0.00  0.00    +0.000 C 
ENDBRANCH   1  20
TORSDOF 3
ENDMDL
MODEL 3
REMARK VINA RESULT:      -7.7      2.834      5.622
REMARK  Name = 
REMARK  5 active torsions:
REMARK  status: ('A' for Active; 'I' for Inactive)
REMARK    1  A    between atoms: C_1  and  C_2
REMARK    2  A    between atoms: C_2  and  C_3
REMARK    3  A    between atoms: C_2  and  N_4
REMARK    4  A    between atoms: C_7  and  C_8
REMARK    5  A    between atoms: C_15  and  C_16
REMARK                            x       y       z     vdW  Elec       q    Type
REMARK                         _______ _______ _______ _____ _____    ______ ____
ROOT
ATOM      1  N   UNL     1       4.961   5.464  16.852  0.00  0.00    +0.000 N 
ATOM      2  C   UNL     1       5.323   6.742  16.511  0.00  0.00    +0.000 A 
ATOM      3  N   UNL     1       4.526   7.637  17.020  0.00  0.00    +0.000 NA
ATOM      4  C   UNL     1       3.626   6.931  17.777  0.00  0.00    +0.000 A 
ATOM      5  C   UNL     1       3.848   5.538  17.715  0.00  0.00    +0.000 A 
ENDROOT
BRANCH   4   6
ATOM      6  C   UNL     1       2.585   7.679  18.475  0.00  0.00    +0.000 A 
ATOM      7  C   UNL     1       2.289   7.336  19.810  0.00  0.00    +0.000 A 
ATOM      8  C   UNL     1       1.359   8.074  20.544  0.00  0.00    +0.000 A 
ATOM      9  C   UNL     1       0.729   9.159  19.947  0.00  0.00    +0.000 A 
ATOM     10  F   UNL     1      -0.116   9.911  20.666  0.00  0.00    +0.000 F 
ATOM     11  C   UNL     1       0.968   9.478  18.615  0.00  0.00    +0.000 A 
ATOM     12  C   UNL     1       1.871   8.715  17.868  0.00  0.00    +0.000 A 
ENDBRANCH   4   6
BRANCH   5  13
ATOM     13  C   UNL     1       3.123   4.386  18.351  0.00  0.00    +0.000 A 
ATOM     14  C   UNL     1       1.873   3.965  17.880  0.00  0.00    +0.000 A 
ATOM     15  C   UNL     1       1.153   2.984  18.557  0.00  0.00    +0.000 A 
ATOM     16  N   UNL     1       1.623   2.310  19.620  0.00  0.00    +0.000 NA
ATOM     17  C   UNL     1       2.849   2.656  20.035  0.00  0.00    +0.000 A 
ATOM     18  C   UNL     1       3.598   3.683  19.467  0.00  0.00    +0.000 A 
ENDBRANCH   5  13
BRANCH   1  20
ATOM     19  C   UNL     1       5.600   4.057  14.854  0.00  0.00    +0.000 C 
ATOM     20  C   UNL     1       5.690   4.295  16.368  0.00  0.00    +0.000 C 
ATOM     21  C   UNL     1       7.165   4.364  16.786  0.00  0.00    +0.000 C 
ENDBRANCH   1  20
TORSDOF 3
ENDMDL
MODEL 4
REMARK VINA RESULT:      -7.7      2.853      5.686
REMARK  Name = 
REMARK  5 active torsions:
REMARK  status: ('A' for Active; 'I' for Inactive)
REMARK    1  A    between atoms: C_1  and  C_2
REMARK    2  A    between atoms: C_2  and  C_3
REMARK    3  A    between atoms: C_2  and  N_4
REMARK    4  A    between atoms: C_7  and  C_8
REMARK    5  A    between atoms: C_15  and  C_16
REMARK                            x       y       z     vdW  Elec       q    Type
REMARK                         _______ _______ _______ _____ _____    ______ ____
ROOT
ATOM      1  N   UNL     1       4.896   5.490  16.854  0.00  0.00    +0.000 N 
ATOM      2  C   UNL     1       5.284   6.761  16.518  0.00  0.00    +0.000 A 
ATOM      3  N   UNL     1       4.500   7.670  17.025  0.00  0.00    +0.000 NA
ATOM      4  C   UNL     1       3.583   6.979  17.774  0.00  0.00    +0.000 A 
ATOM      5  C   UNL     1       3.779   5.583  17.711  0.00  0.00    +0.000 A 
ENDROOT
BRANCH   4   6
ATOM      6  C   UNL     1       2.552   7.745  18.469  0.00  0.00    +0.000 A 
ATOM      7  C   UNL     1       2.249   7.412  19.804  0.00  0.00    +0.000 A 
ATOM      8  C   UNL     1       1.329   8.166  20.534  0.00  0.00    +0.000 A 
ATOM      9  C   UNL     1       0.716   9.258  19.932  0.00  0.00    +0.000 A 
ATOM     10  F   UNL     1      -0.118  10.025  20.647  0.00  0.00    +0.000 F 
ATOM     11  C   UNL     1       0.962   9.569  18.600  0.00  0.00    +0.000 A 
ATOM     12  C   UNL     1       1.855   8.790  17.857  0.00  0.00    +0.000 A 
ENDBRANCH   4   6
BRANCH   5  13
ATOM     13  C   UNL     1       3.029   4.443  18.341  0.00  0.00    +0.000 A 
ATOM     14  C   UNL     1       3.557   3.741  19.431  0.00  0.00    +0.000 A 
ATOM     15  C   UNL     1       2.916   2.607  19.923  0.00  0.00    +0.000 A 
ATOM     16  N   UNL     1       1.728   2.167  19.477  0.00  0.00    +0.000 NA
ATOM     17  C   UNL     1       1.180   2.875  18.480  0.00  0.00    +0.000 A 
ATOM     18  C   UNL     1       1.795   3.968  17.878  0.00  0.00    +0.000 A 
ENDBRANCH   5  13
BRANCH   1  20
ATOM     19  C   UNL     1       5.554   4.098  14.852  0.00  0.00    +0.000 C 
ATOM     20  C   UNL     1       5.605   4.308  16.372  0.00  0.00    +0.000 C 
ATOM     21  C   UNL     1       7.069   4.328  16.834  0.00  0.00    +0.000 C 
ENDBRANCH   1  20
TORSDOF 3
ENDMDL
MODEL 5
REMARK VINA RESULT:      -7.5      0.302      1.095
REMARK  Name = 
REMARK  5 active torsions:
REMARK  status: ('A' for Active; 'I' for Inactive)
REMARK    1  A    between atoms: C_1  and  C_2
REMARK    2  A    between atoms: C_2  and  C_3
REMARK    3  A    between atoms: C_2  and  N_4
REMARK    4  A    between atoms: C_7  and  C_8
REMARK    5  A    between atoms: C_15  and  C_16
REMARK                            x       y       z     vdW  Elec       q    Type
REMARK                         _______ _______ _______ _____ _____    ______ ____
ROOT
ATOM      1  N   UNL     1       2.677   3.769  19.732  0.00  0.00    +0.000 N 
ATOM      2  C   UNL     1       3.674   2.867  19.465  0.00  0.00    +0.000 A 
ATOM      3  N   UNL     1       4.752   3.439  19.008  0.00  0.00    +0.000 NA
ATOM      4  C   UNL     1       4.481   4.783  19.022  0.00  0.00    +0.000 A 
ATOM      5  C   UNL     1       3.174   5.063  19.475  0.00  0.00    +0.000 A 
ENDROOT
BRANCH   4   6
ATOM      6  C   UNL     1       5.519   5.694  18.549  0.00  0.00    +0.000 A 
ATOM      7  C   UNL     1       6.780   5.664  19.176  0.00  0.00    +0.000 A 
ATOM      8  C   UNL     1       7.827   6.459  18.707  0.00  0.00    +0.000 A 
ATOM      9  C   UNL     1       7.617   7.279  17.605  0.00  0.00    +0.000 A 
ATOM     10  F   UNL     1       8.636   7.994  17.109  0.00  0.00    +0.000 F 
ATOM     11  C   UNL     1       6.365   7.363  17.008  0.00  0.00    +0.000 A 
ATOM     12  C   UNL     1       5.305   6.595  17.502  0.00  0.00    +0.000 A 
ENDBRANCH   4   6
BRANCH   5  13
ATOM     13  C   UNL     1       2.437   6.362  19.644  0.00  0.00    +0.000 A 
ATOM     14  C   UNL     1       2.322   7.275  18.588  0.00  0.00    +0.000 A 
ATOM     15  C   UNL     1       1.752   8.529  18.793  0.00  0.00    +0.000 A 
ATOM     16  N   UNL     1       1.189   8.915  19.950  0.00  0.00    +0.000 NA
ATOM     17  C   UNL     1       1.230   8.020  20.946  0.00  0.00    +0.000 A 
ATOM     18  C   UNL     1       1.856   6.781  20.849  0.00  0.00    +0.000 A 
ENDBRANCH   5  13
BRANCH   1  20
ATOM     19  C   UNL     1       0.555   2.487  19.247  0.00  0.00    +0.000 C 
ATOM     20  C   UNL     1       1.365   3.354  20.222  0.00  0.00    +0.000 C 
ATOM     21  C   UNL     1       1.494   2.625  21.566  0.00  0.00    +0.000 C 
ENDBRANCH   1  20
TORSDOF 3
ENDMDL
MODEL 6
REMARK VINA RESULT:      -7.5      2.923      5.586
REMARK  Name = 
REMARK  5 active torsions:
REMARK  status: ('A' for Active; 'I' for Inactive)
REMARK    1  A    between atoms: C_1  and  C_2
REMARK    2  A    between atoms: C_2  and  C_3
REMARK    3  A    between atoms: C_2  and  N_4
REMARK    4  A    between atoms: C_7  and  C_8
REMARK    5  A    between atoms: C_15  and  C_16
REMARK                            x       y       z     vdW  Elec       q    Type
REMARK                         _______ _______ _______ _____ _____    ______ ____
ROOT
ATOM      1  N   UNL     1       4.279   5.667  17.557  0.00  0.00    +0.000 N 
ATOM      2  C   UNL     1       4.690   6.849  16.997  0.00  0.00    +0.000 A 
ATOM      3  N   UNL     1       3.935   7.852  17.343  0.00  0.00    +0.000 NA
ATOM      4  C   UNL     1       3.014   7.327  18.213  0.00  0.00    +0.000 A 
ATOM      5  C   UNL     1       3.178   5.937  18.395  0.00  0.00    +0.000 A 
ENDROOT
BRANCH   4   6
ATOM      6  C   UNL     1       2.011   8.228  18.772  0.00  0.00    +0.000 A 
ATOM      7  C   UNL     1       1.325   9.097  17.900  0.00  0.00    +0.000 A 
ATOM      8  C   UNL     1       0.302   9.920  18.375  0.00  0.00    +0.000 A 
ATOM      9  C   UNL     1      -0.041   9.870  19.721  0.00  0.00    +0.000 A 
ATOM     10  F   UNL     1      -1.065  10.608  20.170  0.00  0.00    +0.000 F 
ATOM     11  C   UNL     1       0.661   9.059  20.605  0.00  0.00    +0.000 A 
ATOM     12  C   UNL     1       1.711   8.264  20.137  0.00  0.00    +0.000 A 
ENDBRANCH   4   6
BRANCH   5  13
ATOM     13  C   UNL     1       2.412   4.945  19.225  0.00  0.00    +0.000 A 
ATOM     14  C   UNL     1       2.616   4.843  20.607  0.00  0.00    +0.000 A 
ATOM     15  C   UNL     1       1.999   3.835  21.343  0.00  0.00    +0.000 A 
ATOM     16  N   UNL     1       1.107   2.972  20.829  0.00  0.00    +0.000 NA
ATOM     17  C   UNL     1       0.851   3.107  19.521  0.00  0.00    +0.000 A 
ATOM     18  C   UNL     1       1.488   4.032  18.698  0.00  0.00    +0.000 A 
ENDBRANCH   5  13
BRANCH   1  20
ATOM     19  C   UNL     1       5.044   4.023  15.798  0.00  0.00    +0.000 C 
ATOM     20  C   UNL     1       4.955   4.401  17.284  0.00  0.00    +0.000 C 
ATOM     21  C   UNL     1       6.362   4.395  17.896  0.00  0.00    +0.000 C 
ENDBRANCH   1  20
TORSDOF 3
ENDMDL
MODEL 7
REMARK VINA RESULT:      -7.5      2.920      5.623
REMARK  Name = 
REMARK  5 active torsions:
REMARK  status: ('A' for Active; 'I' for Inactive)
REMARK    1  A    between atoms: C_1  and  C_2
REMARK    2  A    between atoms: C_2  and  C_3
REMARK    3  A    between atoms: C_2  and  N_4
REMARK    4  A    between atoms: C_7  and  C_8
REMARK    5  A    between atoms: C_15  and  C_16
REMARK                            x       y       z     vdW  Elec       q    Type
REMARK                         _______ _______ _______ _____ _____    ______ ____
ROOT
ATOM      1  N   UNL     1       4.811   5.485  16.745  0.00  0.00    +0.000 N 
ATOM      2  C   UNL     1       5.202   6.755  16.406  0.00  0.00    +0.000 A 
ATOM      3  N   UNL     1       4.462   7.668  16.968  0.00  0.00    +0.000 NA
ATOM      4  C   UNL     1       3.576   6.981  17.757  0.00  0.00    +0.000 A 
ATOM      5  C   UNL     1       3.745   5.583  17.662  0.00  0.00    +0.000 A 
ENDROOT
BRANCH   4   6
ATOM      6  C   UNL     1       2.597   7.753  18.517  0.00  0.00    +0.000 A 
ATOM      7  C   UNL     1       1.965   8.844  17.889  0.00  0.00    +0.000 A 
ATOM      8  C   UNL     1       0.965   9.563  18.548  0.00  0.00    +0.000 A 
ATOM      9  C   UNL     1       0.592   9.185  19.832  0.00  0.00    +0.000 A 
ATOM     10  F   UNL     1      -0.412   9.828  20.444  0.00  0.00    +0.000 F 
ATOM     11  C   UNL     1       1.242   8.146  20.487  0.00  0.00    +0.000 A 
ATOM     12  C   UNL     1       2.270   7.451  19.842  0.00  0.00    +0.000 A 
ENDBRANCH   4   6
BRANCH   5  13
ATOM     13  C   UNL     1       3.011   4.446  18.316  0.00  0.00    +0.000 A 
ATOM     14  C   UNL     1       3.578   3.730  19.378  0.00  0.00    +0.000 A 
ATOM     15  C   UNL     1       2.947   2.599  19.889  0.00  0.00    +0.000 A 
ATOM     16  N   UNL     1       1.736   2.174  19.491  0.00  0.00    +0.000 NA
ATOM     17  C   UNL     1       1.153   2.895  18.524  0.00  0.00    +0.000 A 
ATOM     18  C   UNL     1       1.752   3.986  17.903  0.00  0.00    +0.000 A 
ENDBRANCH   5  13
BRANCH   1  20
ATOM     19  C   UNL     1       5.415   4.161  14.680  0.00  0.00    +0.000 C 
ATOM     20  C   UNL     1       5.474   4.299  16.208  0.00  0.00    +0.000 C 
ATOM     21  C   UNL     1       6.936   4.240  16.668  0.00  0.00    +0.000 C 
ENDBRANCH   1  20
TORSDOF 3
ENDMDL
MODEL 8
REMARK VINA RESULT:      -7.5      2.901      5.665
REMARK  Name = 
REMARK  5 active torsions:
REMARK  status: ('A' for Active; 'I' for Inactive)
REMARK    1  A    between atoms: C_1  and  C_2
REMARK    2  A    between atoms: C_2  and  C_3
REMARK    3  A    between atoms: C_2  and  N_4
REMARK    4  A    between atoms: C_7  and  C_8
REMARK    5  A    between atoms: C_15  and  C_16
REMARK                            x       y       z     vdW  Elec       q    Type
REMARK                         _______ _______ _______ _____ _____    ______ ____
ROOT
ATOM      1  N   UNL     1       4.211   5.658  17.505  0.00  0.00    +0.000 N 
ATOM      2  C   UNL     1       4.601   6.850  16.952  0.00  0.00    +0.000 A 
ATOM      3  N   UNL     1       3.838   7.840  17.319  0.00  0.00    +0.000 NA
ATOM      4  C   UNL     1       2.935   7.296  18.194  0.00  0.00    +0.000 A 
ATOM      5  C   UNL     1       3.117   5.906  18.360  0.00  0.00    +0.000 A 
ENDROOT
BRANCH   4   6
ATOM      6  C   UNL     1       1.928   8.179  18.775  0.00  0.00    +0.000 A 
ATOM      7  C   UNL     1       1.687   8.108  20.162  0.00  0.00    +0.000 A 
ATOM      8  C   UNL     1       0.793   8.987  20.775  0.00  0.00    +0.000 A 
ATOM      9  C   UNL     1       0.143   9.943  20.003  0.00  0.00    +0.000 A 
ATOM     10  F   UNL     1      -0.666  10.832  20.595  0.00  0.00    +0.000 F 
ATOM     11  C   UNL     1       0.326   9.992  18.626  0.00  0.00    +0.000 A 
ATOM     12  C   UNL     1       1.193   9.086  18.007  0.00  0.00    +0.000 A 
ENDBRANCH   4   6
BRANCH   5  13
ATOM     13  C   UNL     1       2.374   4.897  19.189  0.00  0.00    +0.000 A 
ATOM     14  C   UNL     1       2.594   4.786  20.568  0.00  0.00    +0.000 A 
ATOM     15  C   UNL     1       1.998   3.763  21.301  0.00  0.00    +0.000 A 
ATOM     16  N   UNL     1       1.113   2.892  20.789  0.00  0.00    +0.000 NA
ATOM     17  C   UNL     1       0.842   3.035  19.484  0.00  0.00    +0.000 A 
ATOM     18  C   UNL     1       1.458   3.975  18.664  0.00  0.00    +0.000 A 
ENDBRANCH   5  13
BRANCH   1  20
ATOM     19  C   UNL     1       5.236   4.183  15.729  0.00  0.00    +0.000 C 
ATOM     20  C   UNL     1       4.898   4.404  17.211  0.00  0.00    +0.000 C 
ATOM     21  C   UNL     1       6.178   4.276  18.048  0.00  0.00    +0.000 C 
ENDBRANCH   1  20
TORSDOF 3
ENDMDL
MODEL 9
REMARK VINA RESULT:      -7.5      2.330      4.791
REMARK  Name = 
REMARK  5 active torsions:
REMARK  status: ('A' for Active; 'I' for Inactive)
REMARK    1  A    between atoms: C_1  and  C_2
REMARK    2  A    between atoms: C_2  and  C_3
REMARK    3  A    between atoms: C_2  and  N_4
REMARK    4  A    between atoms: C_7  and  C_8
REMARK    5  A    between atoms: C_15  and  C_16
REMARK                            x       y       z     vdW  Elec       q    Type
REMARK                         _______ _______ _______ _____ _____    ______ ____
ROOT
ATOM      1  N   UNL     1       3.499   3.723  19.464  0.00  0.00    +0.000 N 
ATOM      2  C   UNL     1       2.339   3.754  20.194  0.00  0.00    +0.000 A 
ATOM      3  N   UNL     1       1.798   4.939  20.215  0.00  0.00    +0.000 NA
ATOM      4  C   UNL     1       2.600   5.717  19.422  0.00  0.00    +0.000 A 
ATOM      5  C   UNL     1       3.704   5.003  18.909  0.00  0.00    +0.000 A 
ENDROOT
BRANCH   4   6
ATOM      6  C   UNL     1       2.243   7.124  19.259  0.00  0.00    +0.000 A 
ATOM      7  C   UNL     1       2.470   7.737  18.011  0.00  0.00    +0.000 A 
ATOM      8  C   UNL     1       2.071   9.055  17.783  0.00  0.00    +0.000 A 
ATOM      9  C   UNL     1       1.438   9.759  18.801  0.00  0.00    +0.000 A 
ATOM     10  F   UNL     1       0.994  11.002  18.568  0.00  0.00    +0.000 F 
ATOM     11  C   UNL     1       1.255   9.189  20.055  0.00  0.00    +0.000 A 
ATOM     12  C   UNL     1       1.690   7.881  20.295  0.00  0.00    +0.000 A 
ENDBRANCH   4   6
BRANCH   5  13
ATOM     13  C   UNL     1       4.841   5.430  18.024  0.00  0.00    +0.000 A 
ATOM     14  C   UNL     1       4.751   5.334  16.629  0.00  0.00    +0.000 A 
ATOM     15  C   UNL     1       5.855   5.608  15.827  0.00  0.00    +0.000 A 
ATOM     16  N   UNL     1       7.025   6.072  16.296  0.00  0.00    +0.000 NA
ATOM     17  C   UNL     1       7.098   6.236  17.624  0.00  0.00    +0.000 A 
ATOM     18  C   UNL     1       6.070   5.905  18.502  0.00  0.00    +0.000 A 
ENDBRANCH   5  13
BRANCH   1  20
ATOM     19  C   UNL     1       4.657   1.818  20.652  0.00  0.00    +0.000 C 
ATOM     20  C   UNL     1       4.299   2.509  19.328  0.00  0.00    +0.000 C 
ATOM     21  C   UNL     1       3.604   1.503  18.401  0.00  0.00    +0.000 C 
ENDBRANCH   1  20
TORSDOF 3
ENDMDL
