MODEL 1
REMARK VINA RESULT:      -8.3      0.000      0.000
REMARK  Name = 
REMARK  4 active torsions:
REMARK  status: ('A' for Active; 'I' for Inactive)
REMARK    1  A    between atoms: C_1  and  N_2
REMARK    2  A    between atoms: C_3  and  N_4
REMARK    3  A    between atoms: N_5  and  C_6
REMARK    4  A    between atoms: C_9  and  O_10
REMARK                            x       y       z     vdW  Elec       q    Type
REMARK                         _______ _______ _______ _____ _____    ______ ____
ROOT
ATOM      1  N   UNL     1       2.216   7.730  19.128  0.00  0.00    +0.000 NA
ATOM      2  N   UNL     1       2.446   6.560  19.510  0.00  0.00    +0.000 NA
ENDROOT
BRANCH   1   5
ATOM      3  C   UNL     1       0.992  10.330  18.375  0.00  0.00    +0.000 C 
ATOM      4  N   UNL     1       0.893   9.662  19.650  0.00  0.00    +0.000 N 
ATOM      5  C   UNL     1       1.462   8.452  20.009  0.00  0.00    +0.000 A 
ATOM      6  N   UNL     1       1.158   8.181  21.269  0.00  0.00    +0.000 NA
ATOM      7  C   UNL     1       0.389   9.218  21.722  0.00  0.00    +0.000 A 
ATOM      8  C   UNL     1      -0.186   9.417  22.986  0.00  0.00    +0.000 A 
ATOM      9  C   UNL     1      -0.942  10.574  23.209  0.00  0.00    +0.000 A 
ATOM     10  C   UNL     1      -1.123  11.513  22.193  0.00  0.00    +0.000 A 
ATOM     11  C   UNL     1      -0.554  11.333  20.926  0.00  0.00    +0.000 A 
ATOM     12  C   UNL     1       0.199  10.167  20.728  0.00  0.00    +0.000 A 
ENDBRANCH   1   5
BRANCH   2  13
ATOM     13  C   UNL     1       3.263   5.794  18.640  0.00  0.00    +0.000 A 
ATOM     14  C   UNL     1       4.266   6.381  17.852  0.00  0.00    +0.000 A 
ATOM     15  C   UNL     1       5.091   5.601  17.049  0.00  0.00    +0.000 A 
ATOM     16  C   UNL     1       4.923   4.218  17.033  0.00  0.00    +0.000 A 
ATOM     17  C   UNL     1       3.950   3.573  17.806  0.00  0.00    +0.000 A 
ATOM     18  N   UNL     1       3.835   2.225  17.769  0.00  0.00    +0.000 NA
ATOM     19  C   UNL     1       2.905   1.625  18.537  0.00  0.00    +0.000 A 
ATOM     20  C   UNL     1       2.047   2.312  19.366  0.00  0.00    +0.000 A 
ATOM     21  C   UNL     1       2.155   3.697  19.404  0.00  0.00    +0.000 A 
ATOM     22  C   UNL     1       3.115   4.375  18.622  0.00  0.00    +0.000 A 
BRANCH  16  23
ATOM     23  O   UNL     1       5.751   3.460  16.236  0.00  0.00    +0.000 OA
ATOM     24  H   UNL     1       6.669   3.559  16.526  0.00  0.00    +0.000 HD
ENDBRANCH  16  23
ENDBRANCH   2  13
TORSDOF 3
ENDMDL
MODEL 2
REMARK VINA RESULT:      -8.0      2.951      8.197
REMARK  Name = 
REMARK  4 active torsions:
REMARK  status: ('A' for Active; 'I' for Inactive)
REMARK    1  A    between atoms: C_1  and  N_2
REMARK    2  A    between atoms: C_3  and  N_4
REMARK    3  A    between atoms: N_5  and  C_6
REMARK    4  A    between atoms: C_9  and  O_10
REMARK                            x       y       z     vdW  Elec       q    Type
REMARK                         _______ _______ _______ _____ _____    ______ ____
ROOT
ATOM      1  N   UNL     1       2.211   7.241  19.694  0.00  0.00    +0.000 NA
ATOM      2  N   UNL     1       1.817   8.398  19.423  0.00  0.00    +0.000 NA
ENDROOT
BRANCH   1   5
ATOM      3  C   UNL     1       2.570   4.301  19.464  0.00  0.00    +0.000 C 
ATOM      4  N   UNL     1       3.145   5.314  18.612  0.00  0.00    +0.000 N 
ATOM      5  C   UNL     1       2.984   6.685  18.715  0.00  0.00    +0.000 A 
ATOM      6  N   UNL     1       3.682   7.281  17.760  0.00  0.00    +0.000 NA
ATOM      7  C   UNL     1       4.293   6.291  17.040  0.00  0.00    +0.000 A 
ATOM      8  C   UNL     1       5.144   6.390  15.930  0.00  0.00    +0.000 A 
ATOM      9  C   UNL     1       5.648   5.216  15.359  0.00  0.00    +0.000 A 
ATOM     10  C   UNL     1       5.311   3.967  15.883  0.00  0.00    +0.000 A 
ATOM     11  C   UNL     1       4.465   3.849  16.993  0.00  0.00    +0.000 A 
ATOM     12  C   UNL     1       3.974   5.039  17.547  0.00  0.00    +0.000 A 
ENDBRANCH   1   5
BRANCH   2  13
ATOM     13  C   UNL     1       1.047   9.023  20.437  0.00  0.00    +0.000 A 
ATOM     14  C   UNL     1       1.215   8.713  21.796  0.00  0.00    +0.000 A 
ATOM     15  C   UNL     1       0.487   9.380  22.775  0.00  0.00    +0.000 A 
ATOM     16  C   UNL     1      -0.414  10.376  22.401  0.00  0.00    +0.000 A 
ATOM     17  C   UNL     1      -0.615  10.739  21.064  0.00  0.00    +0.000 A 
ATOM     18  N   UNL     1      -1.490  11.723  20.751  0.00  0.00    +0.000 NA
ATOM     19  C   UNL     1      -1.652  12.069  19.460  0.00  0.00    +0.000 A 
ATOM     20  C   UNL     1      -0.974  11.470  18.422  0.00  0.00    +0.000 A 
ATOM     21  C   UNL     1      -0.079  10.454  18.735  0.00  0.00    +0.000 A 
ATOM     22  C   UNL     1       0.131  10.055  20.074  0.00  0.00    +0.000 A 
BRANCH  16  23
ATOM     23  O   UNL     1      -1.122  11.029  23.383  0.00  0.00    +0.000 OA
ATOM     24  H   UNL     1      -0.828  10.731  24.256  0.00  0.00    +0.000 HD
ENDBRANCH  16  23
ENDBRANCH   2  13
TORSDOF 3
ENDMDL
MODEL 3
REMARK VINA RESULT:      -8.0      1.266      1.396
REMARK  Name = 
REMARK  4 active torsions:
REMARK  status: ('A' for Active; 'I' for Inactive)
REMARK    1  A    between atoms: C_1  and  N_2
REMARK    2  A    between atoms: C_3  and  N_4
REMARK    3  A    between atoms: N_5  and  C_6
REMARK    4  A    between atoms: C_9  and  O_10
REMARK                            x       y       z     vdW  Elec       q    Type
REMARK                         _______ _______ _______ _____ _____    ______ ____
ROOT
ATOM      1  N   UNL     1       1.787   8.239  19.769  0.00  0.00    +0.000 NA
ATOM      2  N   UNL     1       1.814   7.063  20.201  0.00  0.00    +0.000 NA
ENDROOT
BRANCH   1   5
ATOM      3  C   UNL     1       0.359  10.492  18.461  0.00  0.00    +0.000 C 
ATOM      4  N   UNL     1       0.278  10.102  19.848  0.00  0.00    +0.000 N 
ATOM      5  C   UNL     1       0.941   9.055  20.464  0.00  0.00    +0.000 A 
ATOM      6  N   UNL     1       0.619   9.028  21.749  0.00  0.00    +0.000 NA
ATOM      7  C   UNL     1      -0.256  10.059  21.959  0.00  0.00    +0.000 A 
ATOM      8  C   UNL     1      -0.889  10.465  23.143  0.00  0.00    +0.000 A 
ATOM      9  C   UNL     1      -1.753  11.566  23.103  0.00  0.00    +0.000 A 
ATOM     10  C   UNL     1      -1.982  12.248  21.908  0.00  0.00    +0.000 A 
ATOM     11  C   UNL     1      -1.356  11.859  20.717  0.00  0.00    +0.000 A 
ATOM     12  C   UNL     1      -0.495  10.755  20.783  0.00  0.00    +0.000 A 
ENDBRANCH   1   5
BRANCH   2  13
ATOM     13  C   UNL     1       2.714   6.197  19.529  0.00  0.00    +0.000 A 
ATOM     14  C   UNL     1       3.498   6.632  18.449  0.00  0.00    +0.000 A 
ATOM     15  C   UNL     1       4.414   5.780  17.842  0.00  0.00    +0.000 A 
ATOM     16  C   UNL     1       4.560   4.479  18.321  0.00  0.00    +0.000 A 
ATOM     17  C   UNL     1       3.819   3.992  19.404  0.00  0.00    +0.000 A 
ATOM     18  N   UNL     1       4.007   2.726  19.843  0.00  0.00    +0.000 NA
ATOM     19  C   UNL     1       3.296   2.286  20.898  0.00  0.00    +0.000 A 
ATOM     20  C   UNL     1       2.370   3.056  21.565  0.00  0.00    +0.000 A 
ATOM     21  C   UNL     1       2.166   4.356  21.116  0.00  0.00    +0.000 A 
ATOM     22  C   UNL     1       2.888   4.867  20.015  0.00  0.00    +0.000 A 
BRANCH  16  23
ATOM     23  O   UNL     1       5.475   3.650  17.713  0.00  0.00    +0.000 OA
ATOM     24  H   UNL     1       5.018   2.919  17.274  0.00  0.00    +0.000 HD
ENDBRANCH  16  23
ENDBRANCH   2  13
TORSDOF 3
ENDMDL
MODEL 4
REMARK VINA RESULT:      -7.5      1.550      3.157
REMARK  Name = 
REMARK  4 active torsions:
REMARK  status: ('A' for Active; 'I' for Inactive)
REMARK    1  A    between atoms: C_1  and  N_2
REMARK    2  A    between atoms: C_3  and  N_4
REMARK    3  A    between atoms: N_5  and  C_6
REMARK    4  A    between atoms: C_9  and  O_10
REMARK                            x       y       z     vdW  Elec       q    Type
REMARK                         _______ _______ _______ _____ _____    ______ ____
ROOT
ATOM      1  N   UNL     1       1.833   7.809  20.199  0.00  0.00    +0.000 NA
ATOM      2  N   UNL     1       2.202   7.321  19.106  0.00  0.00    +0.000 NA
ENDROOT
BRANCH   1   5
ATOM      3  C   UNL     1       0.745   9.256  22.554  0.00  0.00    +0.000 C 
ATOM      4  N   UNL     1       0.595   9.621  21.167  0.00  0.00    +0.000 N 
ATOM      5  C   UNL     1       1.097   8.951  20.065  0.00  0.00    +0.000 A 
ATOM      6  N   UNL     1       0.734   9.588  18.962  0.00  0.00    +0.000 NA
ATOM      7  C   UNL     1      -0.002  10.672  19.355  0.00  0.00    +0.000 A 
ATOM      8  C   UNL     1      -0.620  11.661  18.576  0.00  0.00    +0.000 A 
ATOM      9  C   UNL     1      -1.327  12.684  19.220  0.00  0.00    +0.000 A 
ATOM     10  C   UNL     1      -1.416  12.721  20.612  0.00  0.00    +0.000 A 
ATOM     11  C   UNL     1      -0.809  11.739  21.405  0.00  0.00    +0.000 A 
ATOM     12  C   UNL     1      -0.108  10.726  20.737  0.00  0.00    +0.000 A 
ENDBRANCH   1   5
BRANCH   2  13
ATOM     13  C   UNL     1       2.933   6.110  19.206  0.00  0.00    +0.000 A 
ATOM     14  C   UNL     1       2.596   5.111  20.133  0.00  0.00    +0.000 A 
ATOM     15  C   UNL     1       3.294   3.909  20.173  0.00  0.00    +0.000 A 
ATOM     16  C   UNL     1       4.336   3.691  19.275  0.00  0.00    +0.000 A 
ATOM     17  C   UNL     1       4.710   4.642  18.318  0.00  0.00    +0.000 A 
ATOM     18  N   UNL     1       5.720   4.379  17.456  0.00  0.00    +0.000 NA
ATOM     19  C   UNL     1       6.050   5.301  16.532  0.00  0.00    +0.000 A 
ATOM     20  C   UNL     1       5.415   6.517  16.412  0.00  0.00    +0.000 A 
ATOM     21  C   UNL     1       4.381   6.797  17.298  0.00  0.00    +0.000 A 
ATOM     22  C   UNL     1       3.994   5.864  18.284  0.00  0.00    +0.000 A 
BRANCH  16  23
ATOM     23  O   UNL     1       5.013   2.494  19.325  0.00  0.00    +0.000 OA
ATOM     24  H   UNL     1       4.487   1.799  18.903  0.00  0.00    +0.000 HD
ENDBRANCH  16  23
ENDBRANCH   2  13
TORSDOF 3
ENDMDL
MODEL 5
REMARK VINA RESULT:      -7.5      1.565      2.421
REMARK  Name = 
REMARK  4 active torsions:
REMARK  status: ('A' for Active; 'I' for Inactive)
REMARK    1  A    between atoms: C_1  and  N_2
REMARK    2  A    between atoms: C_3  and  N_4
REMARK    3  A    between atoms: N_5  and  C_6
REMARK    4  A    between atoms: C_9  and  O_10
REMARK                            x       y       z     vdW  Elec       q    Type
REMARK                         _______ _______ _______ _____ _____    ______ ____
ROOT
ATOM      1  N   UNL     1       2.126   8.320  19.340  0.00  0.00    +0.000 NA
ATOM      2  N   UNL     1       1.847   7.284  18.695  0.00  0.00    +0.000 NA
ENDROOT
BRANCH   1   5
ATOM      3  C   UNL     1       1.083   9.472  21.872  0.00  0.00    +0.000 C 
ATOM      4  N   UNL     1       0.640   9.777  20.533  0.00  0.00    +0.000 N 
ATOM      5  C   UNL     1       1.119   9.243  19.350  0.00  0.00    +0.000 A 
ATOM      6  N   UNL     1       0.448   9.761  18.332  0.00  0.00    +0.000 NA
ATOM      7  C   UNL     1      -0.464  10.632  18.862  0.00  0.00    +0.000 A 
ATOM      8  C   UNL     1      -1.416  11.431  18.213  0.00  0.00    +0.000 A 
ATOM      9  C   UNL     1      -2.248  12.252  18.984  0.00  0.00    +0.000 A 
ATOM     10  C   UNL     1      -2.132  12.276  20.375  0.00  0.00    +0.000 A 
ATOM     11  C   UNL     1      -1.189  11.483  21.040  0.00  0.00    +0.000 A 
ATOM     12  C   UNL     1      -0.369  10.670  20.246  0.00  0.00    +0.000 A 
ENDBRANCH   1   5
BRANCH   2  13
ATOM     13  C   UNL     1       2.854   6.285  18.698  0.00  0.00    +0.000 A 
ATOM     14  C   UNL     1       4.078   6.460  18.034  0.00  0.00    +0.000 A 
ATOM     15  C   UNL     1       5.071   5.489  18.099  0.00  0.00    +0.000 A 
ATOM     16  C   UNL     1       4.849   4.331  18.842  0.00  0.00    +0.000 A 
ATOM     17  C   UNL     1       3.655   4.105  19.537  0.00  0.00    +0.000 A 
ATOM     18  N   UNL     1       3.492   2.970  20.257  0.00  0.00    +0.000 NA
ATOM     19  C   UNL     1       2.342   2.783  20.933  0.00  0.00    +0.000 A 
ATOM     20  C   UNL     1       1.305   3.689  20.933  0.00  0.00    +0.000 A 
ATOM     21  C   UNL     1       1.463   4.853  20.190  0.00  0.00    +0.000 A 
ATOM     22  C   UNL     1       2.649   5.099  19.465  0.00  0.00    +0.000 A 
BRANCH  16  23
ATOM     23  O   UNL     1       5.844   3.382  18.900  0.00  0.00    +0.000 OA
ATOM     24  H   UNL     1       6.682   3.763  18.599  0.00  0.00    +0.000 HD
ENDBRANCH  16  23
ENDBRANCH   2  13
TORSDOF 3
ENDMDL
MODEL 6
REMARK VINA RESULT:      -7.5      1.263      2.172
REMARK  Name = 
REMARK  4 active torsions:
REMARK  status: ('A' for Active; 'I' for Inactive)
REMARK    1  A    between atoms: C_1  and  N_2
REMARK    2  A    between atoms: C_3  and  N_4
REMARK    3  A    between atoms: N_5  and  C_6
REMARK    4  A    between atoms: C_9  and  O_10
REMARK                            x       y       z     vdW  Elec       q    Type
REMARK                         _______ _______ _______ _____ _____    ______ ____
ROOT
ATOM      1  N   UNL     1       2.346   8.210  18.939  0.00  0.00    +0.000 NA
ATOM      2  N   UNL     1       2.361   7.668  17.809  0.00  0.00    +0.000 NA
ENDROOT
BRANCH   1   5
ATOM      3  C   UNL     1       1.360   9.009  21.625  0.00  0.00    +0.000 C 
ATOM      4  N   UNL     1       0.885   9.487  20.349  0.00  0.00    +0.000 N 
ATOM      5  C   UNL     1       1.338   9.118  19.094  0.00  0.00    +0.000 A 
ATOM      6  N   UNL     1       0.642   9.763  18.170  0.00  0.00    +0.000 NA
ATOM      7  C   UNL     1      -0.260  10.551  18.831  0.00  0.00    +0.000 A 
ATOM      8  C   UNL     1      -1.229  11.424  18.316  0.00  0.00    +0.000 A 
ATOM      9  C   UNL     1      -2.044  12.130  19.209  0.00  0.00    +0.000 A 
ATOM     10  C   UNL     1      -1.896  11.970  20.587  0.00  0.00    +0.000 A 
ATOM     11  C   UNL     1      -0.936  11.101  21.119  0.00  0.00    +0.000 A 
ATOM     12  C   UNL     1      -0.133  10.404  20.206  0.00  0.00    +0.000 A 
ENDBRANCH   1   5
BRANCH   2  13
ATOM     13  C   UNL     1       3.369   6.688  17.627  0.00  0.00    +0.000 A 
ATOM     14  C   UNL     1       4.709   7.034  17.394  0.00  0.00    +0.000 A 
ATOM     15  C   UNL     1       5.689   6.055  17.273  0.00  0.00    +0.000 A 
ATOM     16  C   UNL     1       5.335   4.712  17.395  0.00  0.00    +0.000 A 
ATOM     17  C   UNL     1       4.019   4.305  17.642  0.00  0.00    +0.000 A 
ATOM     18  N   UNL     1       3.726   2.990  17.768  0.00  0.00    +0.000 NA
ATOM     19  C   UNL     1       2.456   2.623  18.025  0.00  0.00    +0.000 A 
ATOM     20  C   UNL     1       1.420   3.519  18.164  0.00  0.00    +0.000 A 
ATOM     21  C   UNL     1       1.712   4.871  18.029  0.00  0.00    +0.000 A 
ATOM     22  C   UNL     1       3.027   5.310  17.763  0.00  0.00    +0.000 A 
BRANCH  16  23
ATOM     23  O   UNL     1       6.318   3.756  17.279  0.00  0.00    +0.000 OA
ATOM     24  H   UNL     1       7.164   4.176  17.066  0.00  0.00    +0.000 HD
ENDBRANCH  16  23
ENDBRANCH   2  13
TORSDOF 3
ENDMDL
MODEL 7
REMARK VINA RESULT:      -7.5      3.372      8.298
REMARK  Name = 
REMARK  4 active torsions:
REMARK  status: ('A' for Active; 'I' for Inactive)
REMARK    1  A    between atoms: C_1  and  N_2
REMARK    2  A    between atoms: C_3  and  N_4
REMARK    3  A    between atoms: N_5  and  C_6
REMARK    4  A    between atoms: C_9  and  O_10
REMARK                            x       y       z     vdW  Elec       q    Type
REMARK                         _______ _______ _______ _____ _____    ______ ____
ROOT
ATOM      1  N   UNL     1       4.788   3.695  16.918  0.00  0.00    +0.000 NA
ATOM      2  N   UNL     1       3.542   3.665  16.790  0.00  0.00    +0.000 NA
ENDROOT
BRANCH   1   5
ATOM      3  C   UNL     1       6.936   5.739  16.734  0.00  0.00    +0.000 C 
ATOM      4  N   UNL     1       6.451   4.892  15.671  0.00  0.00    +0.000 N 
ATOM      5  C   UNL     1       5.450   3.939  15.750  0.00  0.00    +0.000 A 
ATOM      6  N   UNL     1       5.283   3.381  14.560  0.00  0.00    +0.000 NA
ATOM      7  C   UNL     1       6.180   3.974  13.715  0.00  0.00    +0.000 A 
ATOM      8  C   UNL     1       6.405   3.745  12.350  0.00  0.00    +0.000 A 
ATOM      9  C   UNL     1       7.394   4.490  11.695  0.00  0.00    +0.000 A 
ATOM     10  C   UNL     1       8.144   5.442  12.386  0.00  0.00    +0.000 A 
ATOM     11  C   UNL     1       7.930   5.685  13.749  0.00  0.00    +0.000 A 
ATOM     12  C   UNL     1       6.935   4.929  14.382  0.00  0.00    +0.000 A 
ENDBRANCH   1   5
BRANCH   2  13
ATOM     13  C   UNL     1       2.819   3.456  17.992  0.00  0.00    +0.000 A 
ATOM     14  C   UNL     1       2.483   2.170  18.444  0.00  0.00    +0.000 A 
ATOM     15  C   UNL     1       1.823   1.989  19.654  0.00  0.00    +0.000 A 
ATOM     16  C   UNL     1       1.500   3.099  20.432  0.00  0.00    +0.000 A 
ATOM     17  C   UNL     1       1.821   4.404  20.042  0.00  0.00    +0.000 A 
ATOM     18  N   UNL     1       1.499   5.450  20.839  0.00  0.00    +0.000 NA
ATOM     19  C   UNL     1       1.835   6.696  20.452  0.00  0.00    +0.000 A 
ATOM     20  C   UNL     1       2.492   6.975  19.275  0.00  0.00    +0.000 A 
ATOM     21  C   UNL     1       2.820   5.906  18.449  0.00  0.00    +0.000 A 
ATOM     22  C   UNL     1       2.493   4.580  18.808  0.00  0.00    +0.000 A 
BRANCH  16  23
ATOM     23  O   UNL     1       0.851   2.901  21.629  0.00  0.00    +0.000 OA
ATOM     24  H   UNL     1       1.481   2.602  22.301  0.00  0.00    +0.000 HD
ENDBRANCH  16  23
ENDBRANCH   2  13
TORSDOF 3
ENDMDL
MODEL 8
REMARK VINA RESULT:      -7.4      1.440      2.608
REMARK  Name = 
REMARK  4 active torsions:
REMARK  status: ('A' for Active; 'I' for Inactive)
REMARK    1  A    between atoms: C_1  and  N_2
REMARK    2  A    between atoms: C_3  and  N_4
REMARK    3  A    between atoms: N_5  and  C_6
REMARK    4  A    between atoms: C_9  and  O_10
REMARK                            x       y       z     vdW  Elec       q    Type
REMARK                         _______ _______ _______ _____ _____    ______ ____
ROOT
ATOM      1  N   UNL     1       1.946   7.417  20.945  0.00  0.00    +0.000 NA
ATOM      2  N   UNL     1       1.339   6.356  20.677  0.00  0.00    +0.000 NA
ENDROOT
BRANCH   1   5
ATOM      3  C   UNL     1       1.224   9.456  18.908  0.00  0.00    +0.000 C 
ATOM      4  N   UNL     1       0.782   9.407  20.280  0.00  0.00    +0.000 N 
ATOM      5  C   UNL     1       1.115   8.462  21.235  0.00  0.00    +0.000 A 
ATOM      6  N   UNL     1       0.523   8.768  22.380  0.00  0.00    +0.000 NA
ATOM      7  C   UNL     1      -0.195   9.911  22.160  0.00  0.00    +0.000 A 
ATOM      8  C   UNL     1      -0.994  10.647  23.048  0.00  0.00    +0.000 A 
ATOM      9  C   UNL     1      -1.637  11.800  22.580  0.00  0.00    +0.000 A 
ATOM     10  C   UNL     1      -1.488  12.210  21.254  0.00  0.00    +0.000 A 
ATOM     11  C   UNL     1      -0.691  11.490  20.356  0.00  0.00    +0.000 A 
ATOM     12  C   UNL     1      -0.057  10.340  20.848  0.00  0.00    +0.000 A 
ENDBRANCH   1   5
BRANCH   2  13
ATOM     13  C   UNL     1       2.171   5.238  20.412  0.00  0.00    +0.000 A 
ATOM     14  C   UNL     1       2.088   4.055  21.162  0.00  0.00    +0.000 A 
ATOM     15  C   UNL     1       2.876   2.953  20.847  0.00  0.00    +0.000 A 
ATOM     16  C   UNL     1       3.753   3.025  19.766  0.00  0.00    +0.000 A 
ATOM     17  C   UNL     1       3.871   4.171  18.973  0.00  0.00    +0.000 A 
ATOM     18  N   UNL     1       4.726   4.188  17.924  0.00  0.00    +0.000 NA
ATOM     19  C   UNL     1       4.808   5.296  17.162  0.00  0.00    +0.000 A 
ATOM     20  C   UNL     1       4.066   6.432  17.393  0.00  0.00    +0.000 A 
ATOM     21  C   UNL     1       3.191   6.425  18.472  0.00  0.00    +0.000 A 
ATOM     22  C   UNL     1       3.064   5.289  19.301  0.00  0.00    +0.000 A 
BRANCH  16  23
ATOM     23  O   UNL     1       4.522   1.924  19.465  0.00  0.00    +0.000 OA
ATOM     24  H   UNL     1       3.961   1.138  19.393  0.00  0.00    +0.000 HD
ENDBRANCH  16  23
ENDBRANCH   2  13
TORSDOF 3
ENDMDL
MODEL 9
REMARK VINA RESULT:      -7.4      3.302      8.233
REMARK  Name = 
REMARK  4 active torsions:
REMARK  status: ('A' for Active; 'I' for Inactive)
REMARK    1  A    between atoms: C_1  and  N_2
REMARK    2  A    between atoms: C_3  and  N_4
REMARK    3  A    between atoms: N_5  and  C_6
REMARK    4  A    between atoms: C_9  and  O_10
REMARK                            x       y       z     vdW  Elec       q    Type
REMARK                         _______ _______ _______ _____ _____    ______ ____
ROOT
ATOM      1  N   UNL     1       1.822   8.180  19.302  0.00  0.00    +0.000 NA
ATOM      2  N   UNL     1       1.360   9.159  18.673  0.00  0.00    +0.000 NA
ENDROOT
BRANCH   1   5
ATOM      3  C   UNL     1       2.050   5.253  19.758  0.00  0.00    +0.000 C 
ATOM      4  N   UNL     1       2.758   6.035  18.773  0.00  0.00    +0.000 N 
ATOM      5  C   UNL     1       2.658   7.398  18.557  0.00  0.00    +0.000 A 
ATOM      6  N   UNL     1       3.477   7.748  17.576  0.00  0.00    +0.000 NA
ATOM      7  C   UNL     1       4.104   6.605  17.159  0.00  0.00    +0.000 A 
ATOM      8  C   UNL     1       5.066   6.432  16.153  0.00  0.00    +0.000 A 
ATOM      9  C   UNL     1       5.564   5.146  15.910  0.00  0.00    +0.000 A 
ATOM     10  C   UNL     1       5.113   4.055  16.654  0.00  0.00    +0.000 A 
ATOM     11  C   UNL     1       4.156   4.211  17.665  0.00  0.00    +0.000 A 
ATOM     12  C   UNL     1       3.673   5.507  17.890  0.00  0.00    +0.000 A 
ENDBRANCH   1   5
BRANCH   2  13
ATOM     13  C   UNL     1       0.520  10.017  19.429  0.00  0.00    +0.000 A 
ATOM     14  C   UNL     1       0.900  10.508  20.688  0.00  0.00    +0.000 A 
ATOM     15  C   UNL     1       0.083  11.392  21.385  0.00  0.00    +0.000 A 
ATOM     16  C   UNL     1      -1.123  11.801  20.820  0.00  0.00    +0.000 A 
ATOM     17  C   UNL     1      -1.549  11.357  19.563  0.00  0.00    +0.000 A 
ATOM     18  N   UNL     1      -2.722  11.794  19.049  0.00  0.00    +0.000 NA
ATOM     19  C   UNL     1      -3.103  11.369  17.829  0.00  0.00    +0.000 A 
ATOM     20  C   UNL     1      -2.361  10.498  17.063  0.00  0.00    +0.000 A 
ATOM     21  C   UNL     1      -1.158  10.040  17.587  0.00  0.00    +0.000 A 
ATOM     22  C   UNL     1      -0.712  10.457  18.860  0.00  0.00    +0.000 A 
BRANCH  16  23
ATOM     23  O   UNL     1      -1.917  12.681  21.521  0.00  0.00    +0.000 OA
ATOM     24  H   UNL     1      -1.827  12.521  22.471  0.00  0.00    +0.000 HD
ENDBRANCH  16  23
ENDBRANCH   2  13
TORSDOF 3
ENDMDL
