MODEL 1
REMARK VINA RESULT:      -8.0      0.000      0.000
REMARK  Name = 
REMARK  14 active torsions:
REMARK  status: ('A' for Active; 'I' for Inactive)
REMARK    1  A    between atoms: C_1  and  O_2
REMARK    2  A    between atoms: O_2  and  C_3
REMARK    3  A    between atoms: C_6  and  C_7
REMARK    4  A    between atoms: C_7  and  C_8
REMARK    5  A    between atoms: C_8  and  N_9
REMARK    6  A    between atoms: C_10  and  C_12
REMARK    7  A    between atoms: C_15  and  C_16
REMARK    8  A    between atoms: C_16  and  N_17
REMARK    9  A    between atoms: N_17  and  S_18
REMARK   10  A    between atoms: S_18  and  C_21
REMARK   11  A    between atoms: C_23  and  C_24
REMARK   12  A    between atoms: C_27  and  C_28
REMARK   13  A    between atoms: C_32  and  O_33
REMARK   14  A    between atoms: O_33  and  C_34
REMARK                            x       y       z     vdW  Elec       q    Type
REMARK                         _______ _______ _______ _____ _____    ______ ____
ROOT
ATOM      1  C   UNL     1       6.359   5.593  17.097  0.00  0.00    +0.000 A 
ATOM      2  C   UNL     1       5.885   5.009  15.917  0.00  0.00    +0.000 A 
ATOM      3  C   UNL     1       5.036   3.897  15.966  0.00  0.00    +0.000 A 
ATOM      4  C   UNL     1       4.667   3.334  17.195  0.00  0.00    +0.000 A 
ATOM      5  C   UNL     1       5.152   3.926  18.374  0.00  0.00    +0.000 A 
ATOM      6  C   UNL     1       5.997   5.043  18.327  0.00  0.00    +0.000 A 
ENDROOT
BRANCH   1   8
ATOM      7  N   UNL     1       7.119   7.766  17.943  0.00  0.00    +0.000 N 
ATOM      8  C   UNL     1       7.260   6.778  16.985  0.00  0.00    +0.000 C 
ATOM      9  O   UNL     1       8.052   6.856  16.053  0.00  0.00    +0.000 OA
ATOM     10  H   UNL     1       6.324   7.745  18.565  0.00  0.00    +0.000 HD
BRANCH   7  11
ATOM     11  C   UNL     1       7.889   8.992  17.829  0.00  0.00    +0.000 C 
BRANCH  11  12
ATOM     12  C   UNL     1       8.889   9.173  18.975  0.00  0.00    +0.000 C 
BRANCH  12  16
ATOM     13  C   UNL     1      10.065  13.331  19.155  0.00  0.00    +0.000 A 
ATOM     14  C   UNL     1      10.008  12.652  17.928  0.00  0.00    +0.000 A 
ATOM     15  C   UNL     1       9.657  11.303  17.863  0.00  0.00    +0.000 A 
ATOM     16  C   UNL     1       9.393  10.592  19.033  0.00  0.00    +0.000 A 
ATOM     17  C   UNL     1       9.540  11.247  20.264  0.00  0.00    +0.000 A 
ATOM     18  C   UNL     1       9.885  12.607  20.343  0.00  0.00    +0.000 A 
BRANCH  13  20
ATOM     19  C   UNL     1       9.163  15.501  19.415  0.00  0.00    +0.000 C 
ATOM     20  O   UNL     1      10.312  14.679  19.205  0.00  0.00    +0.000 OA
ENDBRANCH  13  20
BRANCH  18  21
ATOM     21  O   UNL     1       9.963  13.038  21.641  0.00  0.00    +0.000 OA
ATOM     22  C   UNL     1       8.926  12.700  22.546  0.00  0.00    +0.000 C 
ENDBRANCH  18  21
ENDBRANCH  12  16
ENDBRANCH  11  12
ENDBRANCH   7  11
ENDBRANCH   1   8
BRANCH   4  23
ATOM     23  C   UNL     1       3.724   2.151  17.284  0.00  0.00    +0.000 C 
BRANCH  23  24
ATOM     24  N   UNL     1       2.311   2.530  17.208  0.00  0.00    +0.000 NA
ATOM     25  H   UNL     1       1.756   2.070  16.487  0.00  0.00    +0.000 HD
BRANCH  24  26
ATOM     26  S   UNL     1       1.462   2.593  18.659  0.00  0.00    +0.000 S 
ATOM     27  O   UNL     1       0.063   2.463  18.315  0.00  0.00    +0.000 OA
ATOM     28  O   UNL     1       2.092   1.662  19.571  0.00  0.00    +0.000 OA
BRANCH  26  29
ATOM     29  C   UNL     1       1.731   4.257  19.252  0.00  0.00    +0.000 A 
ATOM     30  C   UNL     1       1.930   5.259  18.285  0.00  0.00    +0.000 A 
ATOM     31  C   UNL     1       2.262   6.564  18.665  0.00  0.00    +0.000 A 
ATOM     32  C   UNL     1       2.557   7.618  17.636  0.00  0.00    +0.000 C 
ATOM     33  C   UNL     1       2.376   6.868  20.024  0.00  0.00    +0.000 A 
ATOM     34  C   UNL     1       2.164   5.877  20.989  0.00  0.00    +0.000 A 
ATOM     35  C   UNL     1       1.845   4.558  20.624  0.00  0.00    +0.000 A 
ATOM     36  C   UNL     1       1.680   3.539  21.714  0.00  0.00    +0.000 C 
ENDBRANCH  26  29
ENDBRANCH  24  26
ENDBRANCH  23  24
ENDBRANCH   4  23
TORSDOF 10
ENDMDL
MODEL 2
REMARK VINA RESULT:      -7.9      5.297      9.220
REMARK  Name = 
REMARK  14 active torsions:
REMARK  status: ('A' for Active; 'I' for Inactive)
REMARK    1  A    between atoms: C_1  and  O_2
REMARK    2  A    between atoms: O_2  and  C_3
REMARK    3  A    between atoms: C_6  and  C_7
REMARK    4  A    between atoms: C_7  and  C_8
REMARK    5  A    between atoms: C_8  and  N_9
REMARK    6  A    between atoms: C_10  and  C_12
REMARK    7  A    between atoms: C_15  and  C_16
REMARK    8  A    between atoms: C_16  and  N_17
REMARK    9  A    between atoms: N_17  and  S_18
REMARK   10  A    between atoms: S_18  and  C_21
REMARK   11  A    between atoms: C_23  and  C_24
REMARK   12  A    between atoms: C_27  and  C_28
REMARK   13  A    between atoms: C_32  and  O_33
REMARK   14  A    between atoms: O_33  and  C_34
REMARK                            x       y       z     vdW  Elec       q    Type
REMARK                         _______ _______ _______ _____ _____    ______ ____
ROOT
ATOM      1  C   UNL     1       1.189   8.826  20.455  0.00  0.00    +0.000 A 
ATOM      2  C   UNL     1       1.574   9.033  19.126  0.00  0.00    +0.000 A 
ATOM      3  C   UNL     1       2.144   7.994  18.381  0.00  0.00    +0.000 A 
ATOM      4  C   UNL     1       2.361   6.736  18.960  0.00  0.00    +0.000 A 
ATOM      5  C   UNL     1       1.974   6.540  20.297  0.00  0.00    +0.000 A 
ATOM      6  C   UNL     1       1.399   7.577  21.042  0.00  0.00    +0.000 A 
ENDROOT
BRANCH   1   8
ATOM      7  N   UNL     1      -0.656  10.409  20.778  0.00  0.00    +0.000 N 
ATOM      8  C   UNL     1       0.586   9.970  21.201  0.00  0.00    +0.000 C 
ATOM      9  O   UNL     1       1.206  10.496  22.117  0.00  0.00    +0.000 OA
ATOM     10  H   UNL     1      -1.029  10.074  19.901  0.00  0.00    +0.000 HD
BRANCH   7  11
ATOM     11  C   UNL     1      -1.250  11.585  21.389  0.00  0.00    +0.000 C 
BRANCH  11  12
ATOM     12  C   UNL     1      -1.414  12.746  20.405  0.00  0.00    +0.000 C 
BRANCH  12  16
ATOM     13  C   UNL     1      -3.535  11.219  16.958  0.00  0.00    +0.000 A 
ATOM     14  C   UNL     1      -2.164  11.513  16.888  0.00  0.00    +0.000 A 
ATOM     15  C   UNL     1      -1.478  12.032  17.986  0.00  0.00    +0.000 A 
ATOM     16  C   UNL     1      -2.160  12.307  19.171  0.00  0.00    +0.000 A 
ATOM     17  C   UNL     1      -3.546  12.101  19.210  0.00  0.00    +0.000 A 
ATOM     18  C   UNL     1      -4.248  11.570  18.115  0.00  0.00    +0.000 A 
BRANCH  13  20
ATOM     19  C   UNL     1      -3.366  10.329  14.775  0.00  0.00    +0.000 C 
ATOM     20  O   UNL     1      -4.182  10.617  15.911  0.00  0.00    +0.000 OA
ENDBRANCH  13  20
BRANCH  18  21
ATOM     21  O   UNL     1      -5.586  11.446  18.379  0.00  0.00    +0.000 OA
ATOM     22  C   UNL     1      -6.062  11.725  19.684  0.00  0.00    +0.000 C 
ENDBRANCH  18  21
ENDBRANCH  12  16
ENDBRANCH  11  12
ENDBRANCH   7  11
ENDBRANCH   1   8
BRANCH   4  23
ATOM     23  C   UNL     1       2.945   5.581  18.171  0.00  0.00    +0.000 C 
BRANCH  23  24
ATOM     24  N   UNL     1       2.944   4.316  18.910  0.00  0.00    +0.000 NA
ATOM     25  H   UNL     1       2.047   3.839  18.989  0.00  0.00    +0.000 HD
BRANCH  24  26
ATOM     26  S   UNL     1       4.168   3.222  18.546  0.00  0.00    +0.000 S 
ATOM     27  O   UNL     1       4.888   2.996  19.780  0.00  0.00    +0.000 OA
ATOM     28  O   UNL     1       3.566   2.120  17.826  0.00  0.00    +0.000 OA
BRANCH  26  29
ATOM     29  C   UNL     1       5.244   4.120  17.437  0.00  0.00    +0.000 A 
ATOM     30  C   UNL     1       5.158   3.810  16.068  0.00  0.00    +0.000 A 
ATOM     31  C   UNL     1       6.044   4.381  15.147  0.00  0.00    +0.000 A 
ATOM     32  C   UNL     1       6.010   3.991  13.697  0.00  0.00    +0.000 C 
ATOM     33  C   UNL     1       7.008   5.283  15.603  0.00  0.00    +0.000 A 
ATOM     34  C   UNL     1       7.087   5.605  16.962  0.00  0.00    +0.000 A 
ATOM     35  C   UNL     1       6.216   5.029  17.902  0.00  0.00    +0.000 A 
ATOM     36  C   UNL     1       6.393   5.387  19.349  0.00  0.00    +0.000 C 
ENDBRANCH  26  29
ENDBRANCH  24  26
ENDBRANCH  23  24
ENDBRANCH   4  23
TORSDOF 10
ENDMDL
MODEL 3
REMARK VINA RESULT:      -7.9      5.645      9.569
REMARK  Name = 
REMARK  14 active torsions:
REMARK  status: ('A' for Active; 'I' for Inactive)
REMARK    1  A    between atoms: C_1  and  O_2
REMARK    2  A    between atoms: O_2  and  C_3
REMARK    3  A    between atoms: C_6  and  C_7
REMARK    4  A    between atoms: C_7  and  C_8
REMARK    5  A    between atoms: C_8  and  N_9
REMARK    6  A    between atoms: C_10  and  C_12
REMARK    7  A    between atoms: C_15  and  C_16
REMARK    8  A    between atoms: C_16  and  N_17
REMARK    9  A    between atoms: N_17  and  S_18
REMARK   10  A    between atoms: S_18  and  C_21
REMARK   11  A    between atoms: C_23  and  C_24
REMARK   12  A    between atoms: C_27  and  C_28
REMARK   13  A    between atoms: C_32  and  O_33
REMARK   14  A    between atoms: O_33  and  C_34
REMARK                            x       y       z     vdW  Elec       q    Type
REMARK                         _______ _______ _______ _____ _____    ______ ____
ROOT
ATOM      1  C   UNL     1       1.280   9.229  20.160  0.00  0.00    +0.000 A 
ATOM      2  C   UNL     1       1.623   9.282  18.804  0.00  0.00    +0.000 A 
ATOM      3  C   UNL     1       2.133   8.152  18.156  0.00  0.00    +0.000 A 
ATOM      4  C   UNL     1       2.333   6.955  18.858  0.00  0.00    +0.000 A 
ATOM      5  C   UNL     1       1.989   6.913  20.220  0.00  0.00    +0.000 A 
ATOM      6  C   UNL     1       1.473   8.042  20.869  0.00  0.00    +0.000 A 
ENDROOT
BRANCH   1   8
ATOM      7  N   UNL     1      -0.597  10.452  21.156  0.00  0.00    +0.000 N 
ATOM      8  C   UNL     1       0.739  10.464  20.800  0.00  0.00    +0.000 C 
ATOM      9  O   UNL     1       1.465  11.439  20.954  0.00  0.00    +0.000 OA
ATOM     10  H   UNL     1      -1.193   9.704  20.828  0.00  0.00    +0.000 HD
BRANCH   7  11
ATOM     11  C   UNL     1      -1.212  11.658  21.682  0.00  0.00    +0.000 C 
BRANCH  11  12
ATOM     12  C   UNL     1      -1.525  12.688  20.594  0.00  0.00    +0.000 C 
BRANCH  12  16
ATOM     13  C   UNL     1      -5.075  11.845  18.270  0.00  0.00    +0.000 A 
ATOM     14  C   UNL     1      -5.154  12.580  19.464  0.00  0.00    +0.000 A 
ATOM     15  C   UNL     1      -4.018  12.832  20.235  0.00  0.00    +0.000 A 
ATOM     16  C   UNL     1      -2.781  12.320  19.846  0.00  0.00    +0.000 A 
ATOM     17  C   UNL     1      -2.720  11.509  18.705  0.00  0.00    +0.000 A 
ATOM     18  C   UNL     1      -3.854  11.253  17.914  0.00  0.00    +0.000 A 
BRANCH  13  20
ATOM     19  C   UNL     1      -6.847  12.893  17.109  0.00  0.00    +0.000 C 
ATOM     20  O   UNL     1      -6.173  11.685  17.466  0.00  0.00    +0.000 OA
ENDBRANCH  13  20
BRANCH  18  21
ATOM     21  O   UNL     1      -3.560  10.447  16.847  0.00  0.00    +0.000 OA
ATOM     22  C   UNL     1      -3.480  11.017  15.552  0.00  0.00    +0.000 C 
ENDBRANCH  18  21
ENDBRANCH  12  16
ENDBRANCH  11  12
ENDBRANCH   7  11
ENDBRANCH   1   8
BRANCH   4  23
ATOM     23  C   UNL     1       2.853   5.704  18.177  0.00  0.00    +0.000 C 
BRANCH  23  24
ATOM     24  N   UNL     1       3.137   4.612  19.111  0.00  0.00    +0.000 NA
ATOM     25  H   UNL     1       2.340   4.237  19.625  0.00  0.00    +0.000 HD
BRANCH  24  26
ATOM     26  S   UNL     1       4.120   3.368  18.551  0.00  0.00    +0.000 S 
ATOM     27  O   UNL     1       4.886   2.913  19.690  0.00  0.00    +0.000 OA
ATOM     28  O   UNL     1       3.280   2.452  17.808  0.00  0.00    +0.000 OA
BRANCH  26  29
ATOM     29  C   UNL     1       5.243   4.173  17.417  0.00  0.00    +0.000 A 
ATOM     30  C   UNL     1       5.151   3.815  16.060  0.00  0.00    +0.000 A 
ATOM     31  C   UNL     1       6.067   4.310  15.126  0.00  0.00    +0.000 A 
ATOM     32  C   UNL     1       6.025   3.867  13.691  0.00  0.00    +0.000 C 
ATOM     33  C   UNL     1       7.069   5.184  15.554  0.00  0.00    +0.000 A 
ATOM     34  C   UNL     1       7.155   5.553  16.901  0.00  0.00    +0.000 A 
ATOM     35  C   UNL     1       6.252   5.053  17.855  0.00  0.00    +0.000 A 
ATOM     36  C   UNL     1       6.437   5.458  19.289  0.00  0.00    +0.000 C 
ENDBRANCH  26  29
ENDBRANCH  24  26
ENDBRANCH  23  24
ENDBRANCH   4  23
TORSDOF 10
ENDMDL
MODEL 4
REMARK VINA RESULT:      -7.8      1.042      1.352
REMARK  Name = 
REMARK  14 active torsions:
REMARK  status: ('A' for Active; 'I' for Inactive)
REMARK    1  A    between atoms: C_1  and  O_2
REMARK    2  A    between atoms: O_2  and  C_3
REMARK    3  A    between atoms: C_6  and  C_7
REMARK    4  A    between atoms: C_7  and  C_8
REMARK    5  A    between atoms: C_8  and  N_9
REMARK    6  A    between atoms: C_10  and  C_12
REMARK    7  A    between atoms: C_15  and  C_16
REMARK    8  A    between atoms: C_16  and  N_17
REMARK    9  A    between atoms: N_17  and  S_18
REMARK   10  A    between atoms: S_18  and  C_21
REMARK   11  A    between atoms: C_23  and  C_24
REMARK   12  A    between atoms: C_27  and  C_28
REMARK   13  A    between atoms: C_32  and  O_33
REMARK   14  A    between atoms: O_33  and  C_34
REMARK                            x       y       z     vdW  Elec       q    Type
REMARK                         _______ _______ _______ _____ _____    ______ ____
ROOT
ATOM      1  C   UNL     1       6.581   5.799  17.655  0.00  0.00    +0.000 A 
ATOM      2  C   UNL     1       6.090   4.998  18.693  0.00  0.00    +0.000 A 
ATOM      3  C   UNL     1       5.181   3.968  18.427  0.00  0.00    +0.000 A 
ATOM      4  C   UNL     1       4.727   3.736  17.122  0.00  0.00    +0.000 A 
ATOM      5  C   UNL     1       5.223   4.548  16.087  0.00  0.00    +0.000 A 
ATOM      6  C   UNL     1       6.138   5.576  16.351  0.00  0.00    +0.000 A 
ENDROOT
BRANCH   1   8
ATOM      7  N   UNL     1       7.593   7.974  17.150  0.00  0.00    +0.000 N 
ATOM      8  C   UNL     1       7.550   6.882  17.997  0.00  0.00    +0.000 C 
ATOM      9  O   UNL     1       8.284   6.759  18.971  0.00  0.00    +0.000 OA
ATOM     10  H   UNL     1       7.115   7.933  16.261  0.00  0.00    +0.000 HD
BRANCH   7  11
ATOM     11  C   UNL     1       8.587   9.011  17.364  0.00  0.00    +0.000 C 
BRANCH  11  12
ATOM     12  C   UNL     1       8.117  10.090  18.343  0.00  0.00    +0.000 C 
BRANCH  12  16
ATOM     13  C   UNL     1      11.226  12.902  19.410  0.00  0.00    +0.000 A 
ATOM     14  C   UNL     1      11.252  12.233  18.175  0.00  0.00    +0.000 A 
ATOM     15  C   UNL     1      10.269  11.304  17.834  0.00  0.00    +0.000 A 
ATOM     16  C   UNL     1       9.256  10.993  18.741  0.00  0.00    +0.000 A 
ATOM     17  C   UNL     1       9.284  11.591  20.009  0.00  0.00    +0.000 A 
ATOM     18  C   UNL     1      10.263  12.535  20.362  0.00  0.00    +0.000 A 
BRANCH  13  20
ATOM     19  C   UNL     1      12.256  14.912  18.714  0.00  0.00    +0.000 C 
ATOM     20  O   UNL     1      12.135  13.885  19.699  0.00  0.00    +0.000 OA
ENDBRANCH  13  20
BRANCH  18  21
ATOM     21  O   UNL     1      10.091  12.993  21.641  0.00  0.00    +0.000 OA
ATOM     22  C   UNL     1       9.783  14.361  21.850  0.00  0.00    +0.000 C 
ENDBRANCH  18  21
ENDBRANCH  12  16
ENDBRANCH  11  12
ENDBRANCH   7  11
ENDBRANCH   1   8
BRANCH   4  23
ATOM     23  C   UNL     1       3.768   2.609  16.795  0.00  0.00    +0.000 C 
BRANCH  23  24
ATOM     24  N   UNL     1       2.360   2.986  16.938  0.00  0.00    +0.000 NA
ATOM     25  H   UNL     1       1.724   2.643  16.219  0.00  0.00    +0.000 HD
BRANCH  24  26
ATOM     26  S   UNL     1       1.677   2.814  18.465  0.00  0.00    +0.000 S 
ATOM     27  O   UNL     1       0.277   2.525  18.252  0.00  0.00    +0.000 OA
ATOM     28  O   UNL     1       2.517   1.905  19.216  0.00  0.00    +0.000 OA
BRANCH  26  29
ATOM     29  C   UNL     1       1.800   4.445  19.186  0.00  0.00    +0.000 A 
ATOM     30  C   UNL     1       1.996   5.523  18.305  0.00  0.00    +0.000 A 
ATOM     31  C   UNL     1       2.219   6.816  18.794  0.00  0.00    +0.000 A 
ATOM     32  C   UNL     1       2.512   7.956  17.861  0.00  0.00    +0.000 C 
ATOM     33  C   UNL     1       2.225   7.028  20.175  0.00  0.00    +0.000 A 
ATOM     34  C   UNL     1       2.016   5.960  21.054  0.00  0.00    +0.000 A 
ATOM     35  C   UNL     1       1.806   4.653  20.580  0.00  0.00    +0.000 A 
ATOM     36  C   UNL     1       1.636   3.551  21.585  0.00  0.00    +0.000 C 
ENDBRANCH  26  29
ENDBRANCH  24  26
ENDBRANCH  23  24
ENDBRANCH   4  23
TORSDOF 10
ENDMDL
MODEL 5
REMARK VINA RESULT:      -7.8      5.042      8.579
REMARK  Name = 
REMARK  14 active torsions:
REMARK  status: ('A' for Active; 'I' for Inactive)
REMARK    1  A    between atoms: C_1  and  O_2
REMARK    2  A    between atoms: O_2  and  C_3
REMARK    3  A    between atoms: C_6  and  C_7
REMARK    4  A    between atoms: C_7  and  C_8
REMARK    5  A    between atoms: C_8  and  N_9
REMARK    6  A    between atoms: C_10  and  C_12
REMARK    7  A    between atoms: C_15  and  C_16
REMARK    8  A    between atoms: C_16  and  N_17
REMARK    9  A    between atoms: N_17  and  S_18
REMARK   10  A    between atoms: S_18  and  C_21
REMARK   11  A    between atoms: C_23  and  C_24
REMARK   12  A    between atoms: C_27  and  C_28
REMARK   13  A    between atoms: C_32  and  O_33
REMARK   14  A    between atoms: O_33  and  C_34
REMARK                            x       y       z     vdW  Elec       q    Type
REMARK                         _______ _______ _______ _____ _____    ______ ____
ROOT
ATOM      1  C   UNL     1       1.728   6.417  20.024  0.00  0.00    +0.000 A 
ATOM      2  C   UNL     1       2.187   6.751  18.744  0.00  0.00    +0.000 A 
ATOM      3  C   UNL     1       2.168   8.080  18.307  0.00  0.00    +0.000 A 
ATOM      4  C   UNL     1       1.666   9.096  19.132  0.00  0.00    +0.000 A 
ATOM      5  C   UNL     1       1.204   8.750  20.413  0.00  0.00    +0.000 A 
ATOM      6  C   UNL     1       1.228   7.421  20.855  0.00  0.00    +0.000 A 
ENDROOT
BRANCH   1   8
ATOM      7  N   UNL     1       2.997   4.488  20.848  0.00  0.00    +0.000 N 
ATOM      8  C   UNL     1       1.773   4.984  20.438  0.00  0.00    +0.000 C 
ATOM      9  O   UNL     1       0.761   4.297  20.369  0.00  0.00    +0.000 OA
ATOM     10  H   UNL     1       3.832   5.037  20.697  0.00  0.00    +0.000 HD
BRANCH   7  11
ATOM     11  C   UNL     1       3.134   3.076  21.160  0.00  0.00    +0.000 C 
BRANCH  11  12
ATOM     12  C   UNL     1       4.137   2.362  20.251  0.00  0.00    +0.000 C 
BRANCH  12  16
ATOM     13  C   UNL     1       4.898   4.968  16.884  0.00  0.00    +0.000 A 
ATOM     14  C   UNL     1       3.994   3.898  16.777  0.00  0.00    +0.000 A 
ATOM     15  C   UNL     1       3.764   3.036  17.849  0.00  0.00    +0.000 A 
ATOM     16  C   UNL     1       4.465   3.201  19.043  0.00  0.00    +0.000 A 
ATOM     17  C   UNL     1       5.434   4.211  19.117  0.00  0.00    +0.000 A 
ATOM     18  C   UNL     1       5.670   5.093  18.048  0.00  0.00    +0.000 A 
BRANCH  13  20
ATOM     19  C   UNL     1       5.828   5.418  14.758  0.00  0.00    +0.000 C 
ATOM     20  O   UNL     1       5.046   5.871  15.864  0.00  0.00    +0.000 OA
ENDBRANCH  13  20
BRANCH  18  21
ATOM     21  O   UNL     1       6.650   6.002  18.345  0.00  0.00    +0.000 OA
ATOM     22  C   UNL     1       7.603   5.690  19.347  0.00  0.00    +0.000 C 
ENDBRANCH  18  21
ENDBRANCH  12  16
ENDBRANCH  11  12
ENDBRANCH   7  11
ENDBRANCH   1   8
BRANCH   4  23
ATOM     23  C   UNL     1       1.662  10.549  18.700  0.00  0.00    +0.000 C 
BRANCH  23  24
ATOM     24  N   UNL     1       0.438  10.941  17.997  0.00  0.00    +0.000 NA
ATOM     25  H   UNL     1      -0.059  10.199  17.505  0.00  0.00    +0.000 HD
BRANCH  24  26
ATOM     26  S   UNL     1      -0.640  11.923  18.836  0.00  0.00    +0.000 S 
ATOM     27  O   UNL     1      -0.659  11.434  20.196  0.00  0.00    +0.000 OA
ATOM     28  O   UNL     1      -0.291  13.297  18.545  0.00  0.00    +0.000 OA
BRANCH  26  29
ATOM     29  C   UNL     1      -2.227  11.561  18.098  0.00  0.00    +0.000 A 
ATOM     30  C   UNL     1      -2.222  10.979  16.817  0.00  0.00    +0.000 A 
ATOM     31  C   UNL     1      -3.418  10.771  16.121  0.00  0.00    +0.000 A 
ATOM     32  C   UNL     1      -3.414  10.227  14.721  0.00  0.00    +0.000 C 
ATOM     33  C   UNL     1      -4.626  11.132  16.724  0.00  0.00    +0.000 A 
ATOM     34  C   UNL     1      -4.636  11.697  18.003  0.00  0.00    +0.000 A 
ATOM     35  C   UNL     1      -3.443  11.927  18.709  0.00  0.00    +0.000 A 
ATOM     36  C   UNL     1      -3.530  12.582  20.058  0.00  0.00    +0.000 C 
ENDBRANCH  26  29
ENDBRANCH  24  26
ENDBRANCH  23  24
ENDBRANCH   4  23
TORSDOF 10
ENDMDL
MODEL 6
REMARK VINA RESULT:      -7.7      5.201      8.716
REMARK  Name = 
REMARK  14 active torsions:
REMARK  status: ('A' for Active; 'I' for Inactive)
REMARK    1  A    between atoms: C_1  and  O_2
REMARK    2  A    between atoms: O_2  and  C_3
REMARK    3  A    between atoms: C_6  and  C_7
REMARK    4  A    between atoms: C_7  and  C_8
REMARK    5  A    between atoms: C_8  and  N_9
REMARK    6  A    between atoms: C_10  and  C_12
REMARK    7  A    between atoms: C_15  and  C_16
REMARK    8  A    between atoms: C_16  and  N_17
REMARK    9  A    between atoms: N_17  and  S_18
REMARK   10  A    between atoms: S_18  and  C_21
REMARK   11  A    between atoms: C_23  and  C_24
REMARK   12  A    between atoms: C_27  and  C_28
REMARK   13  A    between atoms: C_32  and  O_33
REMARK   14  A    between atoms: O_33  and  C_34
REMARK                            x       y       z     vdW  Elec       q    Type
REMARK                         _______ _______ _______ _____ _____    ______ ____
ROOT
ATOM      1  C   UNL     1       1.838   6.618  20.237  0.00  0.00    +0.000 A 
ATOM      2  C   UNL     1       2.150   7.340  19.079  0.00  0.00    +0.000 A 
ATOM      3  C   UNL     1       1.863   8.707  18.996  0.00  0.00    +0.000 A 
ATOM      4  C   UNL     1       1.236   9.371  20.060  0.00  0.00    +0.000 A 
ATOM      5  C   UNL     1       0.923   8.636  21.216  0.00  0.00    +0.000 A 
ATOM      6  C   UNL     1       1.215   7.269  21.303  0.00  0.00    +0.000 A 
ENDROOT
BRANCH   1   8
ATOM      7  N   UNL     1       2.093   4.476  19.072  0.00  0.00    +0.000 N 
ATOM      8  C   UNL     1       2.167   5.162  20.270  0.00  0.00    +0.000 C 
ATOM      9  O   UNL     1       2.449   4.624  21.334  0.00  0.00    +0.000 OA
ATOM     10  H   UNL     1       1.666   4.919  18.270  0.00  0.00    +0.000 HD
BRANCH   7  11
ATOM     11  C   UNL     1       2.296   3.038  19.053  0.00  0.00    +0.000 C 
BRANCH  11  12
ATOM     12  C   UNL     1       3.306   2.594  17.992  0.00  0.00    +0.000 C 
BRANCH  12  16
ATOM     13  C   UNL     1       6.585   5.356  17.418  0.00  0.00    +0.000 A 
ATOM     14  C   UNL     1       6.155   5.008  18.708  0.00  0.00    +0.000 A 
ATOM     15  C   UNL     1       5.080   4.140  18.903  0.00  0.00    +0.000 A 
ATOM     16  C   UNL     1       4.385   3.631  17.806  0.00  0.00    +0.000 A 
ATOM     17  C   UNL     1       4.756   4.053  16.522  0.00  0.00    +0.000 A 
ATOM     18  C   UNL     1       5.842   4.919  16.311  0.00  0.00    +0.000 A 
BRANCH  13  20
ATOM     19  C   UNL     1       7.677   7.402  17.875  0.00  0.00    +0.000 C 
ATOM     20  O   UNL     1       7.702   6.128  17.231  0.00  0.00    +0.000 OA
ENDBRANCH  13  20
BRANCH  18  21
ATOM     21  O   UNL     1       6.029   5.188  14.981  0.00  0.00    +0.000 OA
ATOM     22  C   UNL     1       5.620   4.232  14.018  0.00  0.00    +0.000 C 
ENDBRANCH  18  21
ENDBRANCH  12  16
ENDBRANCH  11  12
ENDBRANCH   7  11
ENDBRANCH   1   8
BRANCH   4  23
ATOM     23  C   UNL     1       0.942  10.858  20.014  0.00  0.00    +0.000 C 
BRANCH  23  24
ATOM     24  N   UNL     1      -0.048  11.221  18.997  0.00  0.00    +0.000 NA
ATOM     25  H   UNL     1      -0.367  10.470  18.387  0.00  0.00    +0.000 HD
BRANCH  24  26
ATOM     26  S   UNL     1      -1.343  12.168  19.501  0.00  0.00    +0.000 S 
ATOM     27  O   UNL     1      -1.673  11.725  20.837  0.00  0.00    +0.000 OA
ATOM     28  O   UNL     1      -0.998  13.550  19.242  0.00  0.00    +0.000 OA
BRANCH  26  29
ATOM     29  C   UNL     1      -2.681  11.692  18.416  0.00  0.00    +0.000 A 
ATOM     30  C   UNL     1      -2.333  11.124  17.178  0.00  0.00    +0.000 A 
ATOM     31  C   UNL     1      -3.313  10.831  16.223  0.00  0.00    +0.000 A 
ATOM     32  C   UNL     1      -2.940  10.301  14.868  0.00  0.00    +0.000 C 
ATOM     33  C   UNL     1      -4.652  11.093  16.523  0.00  0.00    +0.000 A 
ATOM     34  C   UNL     1      -5.004  11.646  17.759  0.00  0.00    +0.000 A 
ATOM     35  C   UNL     1      -4.031  11.960  18.723  0.00  0.00    +0.000 A 
ATOM     36  C   UNL     1      -4.480  12.594  20.007  0.00  0.00    +0.000 C 
ENDBRANCH  26  29
ENDBRANCH  24  26
ENDBRANCH  23  24
ENDBRANCH   4  23
TORSDOF 10
ENDMDL
MODEL 7
REMARK VINA RESULT:      -7.7      5.088      8.713
REMARK  Name = 
REMARK  14 active torsions:
REMARK  status: ('A' for Active; 'I' for Inactive)
REMARK    1  A    between atoms: C_1  and  O_2
REMARK    2  A    between atoms: O_2  and  C_3
REMARK    3  A    between atoms: C_6  and  C_7
REMARK    4  A    between atoms: C_7  and  C_8
REMARK    5  A    between atoms: C_8  and  N_9
REMARK    6  A    between atoms: C_10  and  C_12
REMARK    7  A    between atoms: C_15  and  C_16
REMARK    8  A    between atoms: C_16  and  N_17
REMARK    9  A    between atoms: N_17  and  S_18
REMARK   10  A    between atoms: S_18  and  C_21
REMARK   11  A    between atoms: C_23  and  C_24
REMARK   12  A    between atoms: C_27  and  C_28
REMARK   13  A    between atoms: C_32  and  O_33
REMARK   14  A    between atoms: O_33  and  C_34
REMARK                            x       y       z     vdW  Elec       q    Type
REMARK                         _______ _______ _______ _____ _____    ______ ____
ROOT
ATOM      1  C   UNL     1       2.306   7.128  19.504  0.00  0.00    +0.000 A 
ATOM      2  C   UNL     1       2.252   7.997  18.408  0.00  0.00    +0.000 A 
ATOM      3  C   UNL     1       1.608   9.235  18.514  0.00  0.00    +0.000 A 
ATOM      4  C   UNL     1       0.983   9.615  19.710  0.00  0.00    +0.000 A 
ATOM      5  C   UNL     1       1.039   8.733  20.803  0.00  0.00    +0.000 A 
ATOM      6  C   UNL     1       1.690   7.497  20.700  0.00  0.00    +0.000 A 
ENDROOT
BRANCH   1   8
ATOM      7  N   UNL     1       2.373   4.866  18.561  0.00  0.00    +0.000 N 
ATOM      8  C   UNL     1       3.007   5.822  19.334  0.00  0.00    +0.000 C 
ATOM      9  O   UNL     1       4.077   5.625  19.898  0.00  0.00    +0.000 OA
ATOM     10  H   UNL     1       1.410   5.006  18.288  0.00  0.00    +0.000 HD
BRANCH   7  11
ATOM     11  C   UNL     1       2.948   3.537  18.444  0.00  0.00    +0.000 C 
BRANCH  11  12
ATOM     12  C   UNL     1       3.602   3.292  17.081  0.00  0.00    +0.000 C 
BRANCH  12  16
ATOM     13  C   UNL     1       6.883   6.082  16.692  0.00  0.00    +0.000 A 
ATOM     14  C   UNL     1       5.807   6.106  15.790  0.00  0.00    +0.000 A 
ATOM     15  C   UNL     1       4.759   5.192  15.891  0.00  0.00    +0.000 A 
ATOM     16  C   UNL     1       4.783   4.205  16.876  0.00  0.00    +0.000 A 
ATOM     17  C   UNL     1       5.902   4.124  17.717  0.00  0.00    +0.000 A 
ATOM     18  C   UNL     1       6.961   5.044  17.632  0.00  0.00    +0.000 A 
BRANCH  13  20
ATOM     19  C   UNL     1       7.648   8.163  17.512  0.00  0.00    +0.000 C 
ATOM     20  O   UNL     1       7.859   7.044  16.652  0.00  0.00    +0.000 OA
ENDBRANCH  13  20
BRANCH  18  21
ATOM     21  O   UNL     1       7.939   4.781  18.554  0.00  0.00    +0.000 OA
ATOM     22  C   UNL     1       7.920   5.462  19.796  0.00  0.00    +0.000 C 
ENDBRANCH  18  21
ENDBRANCH  12  16
ENDBRANCH  11  12
ENDBRANCH   7  11
ENDBRANCH   1   8
BRANCH   4  23
ATOM     23  C   UNL     1       0.306  10.962  19.867  0.00  0.00    +0.000 C 
BRANCH  23  24
ATOM     24  N   UNL     1       1.039  12.057  19.228  0.00  0.00    +0.000 NA
ATOM     25  H   UNL     1       1.522  11.833  18.358  0.00  0.00    +0.000 HD
BRANCH  24  26
ATOM     26  S   UNL     1       0.243  13.533  19.101  0.00  0.00    +0.000 S 
ATOM     27  O   UNL     1      -0.707  13.389  18.021  0.00  0.00    +0.000 OA
ATOM     28  O   UNL     1      -0.194  13.907  20.429  0.00  0.00    +0.000 OA
BRANCH  26  29
ATOM     29  C   UNL     1       1.514  14.672  18.569  0.00  0.00    +0.000 A 
ATOM     30  C   UNL     1       2.804  14.147  18.371  0.00  0.00    +0.000 A 
ATOM     31  C   UNL     1       3.880  14.989  18.068  0.00  0.00    +0.000 A 
ATOM     32  C   UNL     1       5.275  14.445  17.937  0.00  0.00    +0.000 C 
ATOM     33  C   UNL     1       3.654  16.362  17.944  0.00  0.00    +0.000 A 
ATOM     34  C   UNL     1       2.370  16.885  18.126  0.00  0.00    +0.000 A 
ATOM     35  C   UNL     1       1.282  16.056  18.446  0.00  0.00    +0.000 A 
ATOM     36  C   UNL     1      -0.058  16.697  18.674  0.00  0.00    +0.000 C 
ENDBRANCH  26  29
ENDBRANCH  24  26
ENDBRANCH  23  24
ENDBRANCH   4  23
TORSDOF 10
ENDMDL
MODEL 8
REMARK VINA RESULT:      -7.7      5.463      9.334
REMARK  Name = 
REMARK  14 active torsions:
REMARK  status: ('A' for Active; 'I' for Inactive)
REMARK    1  A    between atoms: C_1  and  O_2
REMARK    2  A    between atoms: O_2  and  C_3
REMARK    3  A    between atoms: C_6  and  C_7
REMARK    4  A    between atoms: C_7  and  C_8
REMARK    5  A    between atoms: C_8  and  N_9
REMARK    6  A    between atoms: C_10  and  C_12
REMARK    7  A    between atoms: C_15  and  C_16
REMARK    8  A    between atoms: C_16  and  N_17
REMARK    9  A    between atoms: N_17  and  S_18
REMARK   10  A    between atoms: S_18  and  C_21
REMARK   11  A    between atoms: C_23  and  C_24
REMARK   12  A    between atoms: C_27  and  C_28
REMARK   13  A    between atoms: C_32  and  O_33
REMARK   14  A    between atoms: O_33  and  C_34
REMARK                            x       y       z     vdW  Elec       q    Type
REMARK                         _______ _______ _______ _____ _____    ______ ____
ROOT
ATOM      1  C   UNL     1       1.700   8.469  19.153  0.00  0.00    +0.000 A 
ATOM      2  C   UNL     1       1.394   8.129  20.476  0.00  0.00    +0.000 A 
ATOM      3  C   UNL     1       1.684   6.851  20.967  0.00  0.00    +0.000 A 
ATOM      4  C   UNL     1       2.262   5.881  20.135  0.00  0.00    +0.000 A 
ATOM      5  C   UNL     1       2.561   6.232  18.807  0.00  0.00    +0.000 A 
ATOM      6  C   UNL     1       2.277   7.513  18.317  0.00  0.00    +0.000 A 
ENDROOT
BRANCH   1   8
ATOM      7  N   UNL     1       0.173  10.387  19.121  0.00  0.00    +0.000 N 
ATOM      8  C   UNL     1       1.369   9.847  18.685  0.00  0.00    +0.000 C 
ATOM      9  O   UNL     1       2.128  10.431  17.920  0.00  0.00    +0.000 OA
ATOM     10  H   UNL     1      -0.502   9.793  19.583  0.00  0.00    +0.000 HD
BRANCH   7  11
ATOM     11  C   UNL     1      -0.260  11.678  18.617  0.00  0.00    +0.000 C 
BRANCH  11  12
ATOM     12  C   UNL     1      -1.271  12.366  19.538  0.00  0.00    +0.000 C 
BRANCH  12  16
ATOM     13  C   UNL     1      -5.318  11.888  18.090  0.00  0.00    +0.000 A 
ATOM     14  C   UNL     1      -5.070  12.301  19.409  0.00  0.00    +0.000 A 
ATOM     15  C   UNL     1      -3.768  12.431  19.893  0.00  0.00    +0.000 A 
ATOM     16  C   UNL     1      -2.683  12.111  19.077  0.00  0.00    +0.000 A 
ATOM     17  C   UNL     1      -2.935  11.610  17.793  0.00  0.00    +0.000 A 
ATOM     18  C   UNL     1      -4.241  11.483  17.289  0.00  0.00    +0.000 A 
BRANCH  13  20
ATOM     19  C   UNL     1      -7.156  13.134  17.278  0.00  0.00    +0.000 C 
ATOM     20  O   UNL     1      -6.594  11.858  17.589  0.00  0.00    +0.000 OA
ENDBRANCH  13  20
BRANCH  18  21
ATOM     21  O   UNL     1      -4.249  10.983  16.014  0.00  0.00    +0.000 OA
ATOM     22  C   UNL     1      -3.038  10.511  15.448  0.00  0.00    +0.000 C 
ENDBRANCH  18  21
ENDBRANCH  12  16
ENDBRANCH  11  12
ENDBRANCH   7  11
ENDBRANCH   1   8
BRANCH   4  23
ATOM     23  C   UNL     1       2.618   4.499  20.644  0.00  0.00    +0.000 C 
BRANCH  23  24
ATOM     24  N   UNL     1       2.556   3.466  19.607  0.00  0.00    +0.000 NA
ATOM     25  H   UNL     1       2.041   3.705  18.760  0.00  0.00    +0.000 HD
BRANCH  24  26
ATOM     26  S   UNL     1       3.994   2.683  19.226  0.00  0.00    +0.000 S 
ATOM     27  O   UNL     1       4.716   2.534  20.470  0.00  0.00    +0.000 OA
ATOM     28  O   UNL     1       3.659   1.528  18.420  0.00  0.00    +0.000 OA
BRANCH  26  29
ATOM     29  C   UNL     1       4.879   3.859  18.213  0.00  0.00    +0.000 A 
ATOM     30  C   UNL     1       5.984   4.506  18.796  0.00  0.00    +0.000 A 
ATOM     31  C   UNL     1       6.659   5.524  18.113  0.00  0.00    +0.000 A 
ATOM     32  C   UNL     1       7.787   6.274  18.763  0.00  0.00    +0.000 C 
ATOM     33  C   UNL     1       6.234   5.880  16.831  0.00  0.00    +0.000 A 
ATOM     34  C   UNL     1       5.144   5.229  16.243  0.00  0.00    +0.000 A 
ATOM     35  C   UNL     1       4.445   4.216  16.921  0.00  0.00    +0.000 A 
ATOM     36  C   UNL     1       3.256   3.597  16.243  0.00  0.00    +0.000 C 
ENDBRANCH  26  29
ENDBRANCH  24  26
ENDBRANCH  23  24
ENDBRANCH   4  23
TORSDOF 10
ENDMDL
MODEL 9
REMARK VINA RESULT:      -7.7      6.355     10.190
REMARK  Name = 
REMARK  14 active torsions:
REMARK  status: ('A' for Active; 'I' for Inactive)
REMARK    1  A    between atoms: C_1  and  O_2
REMARK    2  A    between atoms: O_2  and  C_3
REMARK    3  A    between atoms: C_6  and  C_7
REMARK    4  A    between atoms: C_7  and  C_8
REMARK    5  A    between atoms: C_8  and  N_9
REMARK    6  A    between atoms: C_10  and  C_12
REMARK    7  A    between atoms: C_15  and  C_16
REMARK    8  A    between atoms: C_16  and  N_17
REMARK    9  A    between atoms: N_17  and  S_18
REMARK   10  A    between atoms: S_18  and  C_21
REMARK   11  A    between atoms: C_23  and  C_24
REMARK   12  A    between atoms: C_27  and  C_28
REMARK   13  A    between atoms: C_32  and  O_33
REMARK   14  A    between atoms: O_33  and  C_34
REMARK                            x       y       z     vdW  Elec       q    Type
REMARK                         _______ _______ _______ _____ _____    ______ ____
ROOT
ATOM      1  C   UNL     1       0.801   9.464  19.026  0.00  0.00    +0.000 A 
ATOM      2  C   UNL     1       0.877   8.937  20.321  0.00  0.00    +0.000 A 
ATOM      3  C   UNL     1       1.648   7.799  20.581  0.00  0.00    +0.000 A 
ATOM      4  C   UNL     1       2.337   7.151  19.546  0.00  0.00    +0.000 A 
ATOM      5  C   UNL     1       2.250   7.686  18.249  0.00  0.00    +0.000 A 
ATOM      6  C   UNL     1       1.484   8.829  17.988  0.00  0.00    +0.000 A 
ENDROOT
BRANCH   1   8
ATOM      7  N   UNL     1      -1.029  10.593  17.848  0.00  0.00    +0.000 N 
ATOM      8  C   UNL     1      -0.036  10.680  18.808  0.00  0.00    +0.000 C 
ATOM      9  O   UNL     1       0.197  11.703  19.440  0.00  0.00    +0.000 OA
ATOM     10  H   UNL     1      -1.048   9.801  17.222  0.00  0.00    +0.000 HD
BRANCH   7  11
ATOM     11  C   UNL     1      -1.807  11.772  17.510  0.00  0.00    +0.000 C 
BRANCH  11  12
ATOM     12  C   UNL     1      -3.312  11.494  17.454  0.00  0.00    +0.000 C 
BRANCH  12  16
ATOM     13  C   UNL     1      -5.302  12.777  21.073  0.00  0.00    +0.000 A 
ATOM     14  C   UNL     1      -3.914  12.923  20.926  0.00  0.00    +0.000 A 
ATOM     15  C   UNL     1      -3.259  12.486  19.773  0.00  0.00    +0.000 A 
ATOM     16  C   UNL     1      -3.977  11.856  18.757  0.00  0.00    +0.000 A 
ATOM     17  C   UNL     1      -5.347  11.627  18.947  0.00  0.00    +0.000 A 
ATOM     18  C   UNL     1      -6.021  12.070  20.098  0.00  0.00    +0.000 A 
BRANCH  13  20
ATOM     19  C   UNL     1      -5.336  13.040  23.422  0.00  0.00    +0.000 C 
ATOM     20  O   UNL     1      -5.954  13.297  22.161  0.00  0.00    +0.000 OA
ENDBRANCH  13  20
BRANCH  18  21
ATOM     21  O   UNL     1      -7.351  11.747  20.066  0.00  0.00    +0.000 OA
ATOM     22  C   UNL     1      -7.833  10.714  20.907  0.00  0.00    +0.000 C 
ENDBRANCH  18  21
ENDBRANCH  12  16
ENDBRANCH  11  12
ENDBRANCH   7  11
ENDBRANCH   1   8
BRANCH   4  23
ATOM     23  C   UNL     1       3.207   5.936  19.800  0.00  0.00    +0.000 C 
BRANCH  23  24
ATOM     24  N   UNL     1       4.299   5.794  18.834  0.00  0.00    +0.000 NA
ATOM     25  H   UNL     1       5.188   6.224  19.089  0.00  0.00    +0.000 HD
BRANCH  24  26
ATOM     26  S   UNL     1       4.545   4.263  18.184  0.00  0.00    +0.000 S 
ATOM     27  O   UNL     1       5.333   3.534  19.152  0.00  0.00    +0.000 OA
ATOM     28  O   UNL     1       3.258   3.764  17.748  0.00  0.00    +0.000 OA
BRANCH  26  29
ATOM     29  C   UNL     1       5.569   4.556  16.748  0.00  0.00    +0.000 A 
ATOM     30  C   UNL     1       5.061   4.144  15.503  0.00  0.00    +0.000 A 
ATOM     31  C   UNL     1       5.844   4.230  14.347  0.00  0.00    +0.000 A 
ATOM     32  C   UNL     1       5.338   3.715  13.029  0.00  0.00    +0.000 C 
ATOM     33  C   UNL     1       7.137   4.750  14.440  0.00  0.00    +0.000 A 
ATOM     34  C   UNL     1       7.640   5.174  15.674  0.00  0.00    +0.000 A 
ATOM     35  C   UNL     1       6.873   5.080  16.848  0.00  0.00    +0.000 A 
ATOM     36  C   UNL     1       7.498   5.511  18.143  0.00  0.00    +0.000 C 
ENDBRANCH  26  29
ENDBRANCH  24  26
ENDBRANCH  23  24
ENDBRANCH   4  23
TORSDOF 10
ENDMDL
