MODEL 1
REMARK VINA RESULT:      -8.7      0.000      0.000
REMARK  Name = 
REMARK  5 active torsions:
REMARK  status: ('A' for Active; 'I' for Inactive)
REMARK    1  A    between atoms: C_1  and  O_2
REMARK    2  A    between atoms: O_2  and  C_3
REMARK    3  A    between atoms: C_7  and  N_8
REMARK    4  A    between atoms: N_13  and  N_14
REMARK    5  A    between atoms: C_15  and  C_16
REMARK                            x       y       z     vdW  Elec       q    Type
REMARK                         _______ _______ _______ _____ _____    ______ ____
ROOT
ATOM      1  N   UNL     1       4.560   5.229  17.795  0.00  0.00    +0.000 N 
ATOM      2  C   UNL     1       4.275   6.190  16.839  0.00  0.00    +0.000 A 
ATOM      3  N   UNL     1       5.211   7.112  16.737  0.00  0.00    +0.000 NA
ATOM      4  C   UNL     1       6.174   6.725  17.647  0.00  0.00    +0.000 A 
ATOM      5  C   UNL     1       7.411   7.296  18.011  0.00  0.00    +0.000 A 
ATOM      6  N   UNL     1       7.884   8.491  17.432  0.00  0.00    +0.000 N 
ATOM      7  N   UNL     1       8.160   6.631  18.937  0.00  0.00    +0.000 NA
ATOM      8  C   UNL     1       7.702   5.475  19.448  0.00  0.00    +0.000 A 
ATOM      9  N   UNL     1       6.532   4.875  19.203  0.00  0.00    +0.000 NA
ATOM     10  C   UNL     1       5.796   5.561  18.302  0.00  0.00    +0.000 A 
ATOM     11  H   UNL     1       7.238   8.890  16.754  0.00  0.00    +0.000 HD
ENDROOT
BRANCH   1  16
ATOM     12  C   UNL     1       1.994   3.227  19.596  0.00  0.00    +0.000 A 
ATOM     13  C   UNL     1       2.133   1.991  18.962  0.00  0.00    +0.000 A 
ATOM     14  C   UNL     1       3.054   1.826  17.927  0.00  0.00    +0.000 A 
ATOM     15  C   UNL     1       3.843   2.901  17.519  0.00  0.00    +0.000 A 
ATOM     16  C   UNL     1       3.732   4.136  18.169  0.00  0.00    +0.000 A 
ATOM     17  C   UNL     1       2.805   4.296  19.208  0.00  0.00    +0.000 A 
BRANCH  12  19
ATOM     18  C   UNL     1       1.389   2.681  21.825  0.00  0.00    +0.000 C 
ATOM     19  O   UNL     1       1.042   3.274  20.578  0.00  0.00    +0.000 OA
ENDBRANCH  12  19
ENDBRANCH   1  16
BRANCH   6  20
ATOM     20  N   UNL     1       8.670   9.271  18.218  0.00  0.00    +0.000 NA
ATOM     21  C   UNL     1       8.809  10.503  17.849  0.00  0.00    +0.000 C 
BRANCH  21  22
ATOM     22  C   UNL     1       9.655  11.431  18.627  0.00  0.00    +0.000 A 
ATOM     23  C   UNL     1      10.191  12.568  18.024  0.00  0.00    +0.000 A 
ATOM     24  C   UNL     1      10.952  13.416  18.805  0.00  0.00    +0.000 A 
ATOM     25  N   UNL     1      11.208  13.200  20.113  0.00  0.00    +0.000 NA
ATOM     26  C   UNL     1      10.679  12.086  20.667  0.00  0.00    +0.000 A 
ATOM     27  C   UNL     1       9.901  11.175  19.974  0.00  0.00    +0.000 A 
ENDBRANCH  21  22
ENDBRANCH   6  20
TORSDOF 4
ENDMDL
MODEL 2
REMARK VINA RESULT:      -7.5      6.394      8.650
REMARK  Name = 
REMARK  5 active torsions:
REMARK  status: ('A' for Active; 'I' for Inactive)
REMARK    1  A    between atoms: C_1  and  O_2
REMARK    2  A    between atoms: O_2  and  C_3
REMARK    3  A    between atoms: C_7  and  N_8
REMARK    4  A    between atoms: N_13  and  N_14
REMARK    5  A    between atoms: C_15  and  C_16
REMARK                            x       y       z     vdW  Elec       q    Type
REMARK                         _______ _______ _______ _____ _____    ______ ____
ROOT
ATOM      1  N   UNL     1       2.790   7.065  18.541  0.00  0.00    +0.000 N 
ATOM      2  C   UNL     1       2.948   7.801  17.377  0.00  0.00    +0.000 A 
ATOM      3  N   UNL     1       2.293   8.944  17.395  0.00  0.00    +0.000 NA
ATOM      4  C   UNL     1       1.698   8.979  18.640  0.00  0.00    +0.000 A 
ATOM      5  C   UNL     1       0.865   9.934  19.261  0.00  0.00    +0.000 A 
ATOM      6  N   UNL     1       0.471  11.120  18.610  0.00  0.00    +0.000 N 
ATOM      7  N   UNL     1       0.469   9.681  20.541  0.00  0.00    +0.000 NA
ATOM      8  C   UNL     1       0.888   8.559  21.151  0.00  0.00    +0.000 A 
ATOM      9  N   UNL     1       1.638   7.577  20.640  0.00  0.00    +0.000 NA
ATOM     10  C   UNL     1       2.000   7.835  19.365  0.00  0.00    +0.000 A 
ATOM     11  H   UNL     1       0.832  11.195  17.661  0.00  0.00    +0.000 HD
ENDROOT
BRANCH   1  16
ATOM     12  C   UNL     1       2.988   3.407  19.181  0.00  0.00    +0.000 A 
ATOM     13  C   UNL     1       4.360   3.251  19.387  0.00  0.00    +0.000 A 
ATOM     14  C   UNL     1       5.219   4.346  19.292  0.00  0.00    +0.000 A 
ATOM     15  C   UNL     1       4.708   5.607  18.987  0.00  0.00    +0.000 A 
ATOM     16  C   UNL     1       3.330   5.779  18.808  0.00  0.00    +0.000 A 
ATOM     17  C   UNL     1       2.473   4.675  18.905  0.00  0.00    +0.000 A 
BRANCH  12  19
ATOM     18  C   UNL     1       0.910   2.325  18.796  0.00  0.00    +0.000 C 
ATOM     19  O   UNL     1       2.250   2.258  19.276  0.00  0.00    +0.000 OA
ENDBRANCH  12  19
ENDBRANCH   1  16
BRANCH   6  20
ATOM     20  N   UNL     1      -0.744  11.621  18.956  0.00  0.00    +0.000 NA
ATOM     21  C   UNL     1      -1.754  11.209  18.262  0.00  0.00    +0.000 C 
BRANCH  21  22
ATOM     22  C   UNL     1      -3.116  11.704  18.548  0.00  0.00    +0.000 A 
ATOM     23  C   UNL     1      -4.150  11.483  17.640  0.00  0.00    +0.000 A 
ATOM     24  C   UNL     1      -5.410  11.944  17.969  0.00  0.00    +0.000 A 
ATOM     25  N   UNL     1      -5.690  12.600  19.116  0.00  0.00    +0.000 NA
ATOM     26  C   UNL     1      -4.665  12.804  19.973  0.00  0.00    +0.000 A 
ATOM     27  C   UNL     1      -3.368  12.380  19.739  0.00  0.00    +0.000 A 
ENDBRANCH  21  22
ENDBRANCH   6  20
TORSDOF 4
ENDMDL
MODEL 3
REMARK VINA RESULT:      -7.5      1.199      1.498
REMARK  Name = 
REMARK  5 active torsions:
REMARK  status: ('A' for Active; 'I' for Inactive)
REMARK    1  A    between atoms: C_1  and  O_2
REMARK    2  A    between atoms: O_2  and  C_3
REMARK    3  A    between atoms: C_7  and  N_8
REMARK    4  A    between atoms: N_13  and  N_14
REMARK    5  A    between atoms: C_15  and  C_16
REMARK                            x       y       z     vdW  Elec       q    Type
REMARK                         _______ _______ _______ _____ _____    ______ ____
ROOT
ATOM      1  N   UNL     1       4.647   5.480  17.453  0.00  0.00    +0.000 N 
ATOM      2  C   UNL     1       4.507   6.419  16.444  0.00  0.00    +0.000 A 
ATOM      3  N   UNL     1       5.487   7.299  16.416  0.00  0.00    +0.000 NA
ATOM      4  C   UNL     1       6.330   6.906  17.436  0.00  0.00    +0.000 A 
ATOM      5  C   UNL     1       7.544   7.441  17.915  0.00  0.00    +0.000 A 
ATOM      6  N   UNL     1       8.127   8.595  17.356  0.00  0.00    +0.000 N 
ATOM      7  N   UNL     1       8.161   6.778  18.936  0.00  0.00    +0.000 NA
ATOM      8  C   UNL     1       7.602   5.659  19.428  0.00  0.00    +0.000 A 
ATOM      9  N   UNL     1       6.441   5.097  19.076  0.00  0.00    +0.000 NA
ATOM     10  C   UNL     1       5.835   5.781  18.081  0.00  0.00    +0.000 A 
ATOM     11  H   UNL     1       7.574   8.996  16.600  0.00  0.00    +0.000 HD
ENDROOT
BRANCH   1  16
ATOM     12  C   UNL     1       3.351   2.126  18.405  0.00  0.00    +0.000 A 
ATOM     13  C   UNL     1       1.974   2.347  18.334  0.00  0.00    +0.000 A 
ATOM     14  C   UNL     1       1.477   3.605  17.995  0.00  0.00    +0.000 A 
ATOM     15  C   UNL     1       2.356   4.653  17.727  0.00  0.00    +0.000 A 
ATOM     16  C   UNL     1       3.738   4.434  17.767  0.00  0.00    +0.000 A 
ATOM     17  C   UNL     1       4.233   3.168  18.108  0.00  0.00    +0.000 A 
BRANCH  12  19
ATOM     18  C   UNL     1       4.765   0.757  19.733  0.00  0.00    +0.000 C 
ATOM     19  O   UNL     1       3.720   0.860  18.771  0.00  0.00    +0.000 OA
ENDBRANCH  12  19
ENDBRANCH   1  16
BRANCH   6  20
ATOM     20  N   UNL     1       8.856   9.371  18.200  0.00  0.00    +0.000 NA
ATOM     21  C   UNL     1       8.855  10.641  17.958  0.00  0.00    +0.000 C 
BRANCH  21  22
ATOM     22  C   UNL     1       9.628  11.570  18.808  0.00  0.00    +0.000 A 
ATOM     23  C   UNL     1      10.239  12.692  18.248  0.00  0.00    +0.000 A 
ATOM     24  C   UNL     1      10.927  13.542  19.092  0.00  0.00    +0.000 A 
ATOM     25  N   UNL     1      11.044  13.341  20.423  0.00  0.00    +0.000 NA
ATOM     26  C   UNL     1      10.446  12.241  20.933  0.00  0.00    +0.000 A 
ATOM     27  C   UNL     1       9.731  11.329  20.175  0.00  0.00    +0.000 A 
ENDBRANCH  21  22
ENDBRANCH   6  20
TORSDOF 4
ENDMDL
MODEL 4
REMARK VINA RESULT:      -7.5      6.393      8.720
REMARK  Name = 
REMARK  5 active torsions:
REMARK  status: ('A' for Active; 'I' for Inactive)
REMARK    1  A    between atoms: C_1  and  O_2
REMARK    2  A    between atoms: O_2  and  C_3
REMARK    3  A    between atoms: C_7  and  N_8
REMARK    4  A    between atoms: N_13  and  N_14
REMARK    5  A    between atoms: C_15  and  C_16
REMARK                            x       y       z     vdW  Elec       q    Type
REMARK                         _______ _______ _______ _____ _____    ______ ____
ROOT
ATOM      1  N   UNL     1       2.785   7.074  18.658  0.00  0.00    +0.000 N 
ATOM      2  C   UNL     1       2.969   7.776  17.478  0.00  0.00    +0.000 A 
ATOM      3  N   UNL     1       2.292   8.906  17.437  0.00  0.00    +0.000 NA
ATOM      4  C   UNL     1       1.654   8.968  18.658  0.00  0.00    +0.000 A 
ATOM      5  C   UNL     1       0.781   9.924  19.220  0.00  0.00    +0.000 A 
ATOM      6  N   UNL     1       0.387  11.082  18.518  0.00  0.00    +0.000 N 
ATOM      7  N   UNL     1       0.346   9.704  20.493  0.00  0.00    +0.000 NA
ATOM      8  C   UNL     1       0.764   8.610  21.152  0.00  0.00    +0.000 A 
ATOM      9  N   UNL     1       1.551   7.628  20.699  0.00  0.00    +0.000 NA
ATOM     10  C   UNL     1       1.952   7.853  19.430  0.00  0.00    +0.000 A 
ATOM     11  H   UNL     1       0.780  11.134  17.580  0.00  0.00    +0.000 HD
ENDROOT
BRANCH   1  16
ATOM     12  C   UNL     1       3.043   3.552  19.825  0.00  0.00    +0.000 A 
ATOM     13  C   UNL     1       4.415   3.330  19.687  0.00  0.00    +0.000 A 
ATOM     14  C   UNL     1       5.247   4.332  19.187  0.00  0.00    +0.000 A 
ATOM     15  C   UNL     1       4.709   5.566  18.821  0.00  0.00    +0.000 A 
ATOM     16  C   UNL     1       3.340   5.808  18.984  0.00  0.00    +0.000 A 
ATOM     17  C   UNL     1       2.509   4.798  19.486  0.00  0.00    +0.000 A 
BRANCH  12  19
ATOM     18  C   UNL     1       1.478   2.745  21.416  0.00  0.00    +0.000 C 
ATOM     19  O   UNL     1       2.326   2.489  20.301  0.00  0.00    +0.000 OA
ENDBRANCH  12  19
ENDBRANCH   1  16
BRANCH   6  20
ATOM     20  N   UNL     1      -0.848  11.569  18.806  0.00  0.00    +0.000 NA
ATOM     21  C   UNL     1      -1.822  11.129  18.079  0.00  0.00    +0.000 C 
BRANCH  21  22
ATOM     22  C   UNL     1      -3.203  11.607  18.300  0.00  0.00    +0.000 A 
ATOM     23  C   UNL     1      -3.550  12.218  19.504  0.00  0.00    +0.000 A 
ATOM     24  C   UNL     1      -4.847  12.671  19.649  0.00  0.00    +0.000 A 
ATOM     25  N   UNL     1      -5.793  12.548  18.693  0.00  0.00    +0.000 NA
ATOM     26  C   UNL     1      -5.425  11.946  17.539  0.00  0.00    +0.000 A 
ATOM     27  C   UNL     1      -4.153  11.461  17.293  0.00  0.00    +0.000 A 
ENDBRANCH  21  22
ENDBRANCH   6  20
TORSDOF 4
ENDMDL
MODEL 5
REMARK VINA RESULT:      -7.4      6.628      9.073
REMARK  Name = 
REMARK  5 active torsions:
REMARK  status: ('A' for Active; 'I' for Inactive)
REMARK    1  A    between atoms: C_1  and  O_2
REMARK    2  A    between atoms: O_2  and  C_3
REMARK    3  A    between atoms: C_7  and  N_8
REMARK    4  A    between atoms: N_13  and  N_14
REMARK    5  A    between atoms: C_15  and  C_16
REMARK                            x       y       z     vdW  Elec       q    Type
REMARK                         _______ _______ _______ _____ _____    ______ ____
ROOT
ATOM      1  N   UNL     1       2.663   7.290  18.658  0.00  0.00    +0.000 N 
ATOM      2  C   UNL     1       2.839   7.959  17.458  0.00  0.00    +0.000 A 
ATOM      3  N   UNL     1       2.152   9.081  17.385  0.00  0.00    +0.000 NA
ATOM      4  C   UNL     1       1.515   9.173  18.605  0.00  0.00    +0.000 A 
ATOM      5  C   UNL     1       0.635  10.137  19.141  0.00  0.00    +0.000 A 
ATOM      6  N   UNL     1       0.230  11.271  18.407  0.00  0.00    +0.000 N 
ATOM      7  N   UNL     1       0.204   9.950  20.421  0.00  0.00    +0.000 NA
ATOM      8  C   UNL     1       0.633   8.879  21.111  0.00  0.00    +0.000 A 
ATOM      9  N   UNL     1       1.427   7.891  20.685  0.00  0.00    +0.000 NA
ATOM     10  C   UNL     1       1.825   8.083  19.408  0.00  0.00    +0.000 A 
ATOM     11  H   UNL     1       0.622  11.299  17.467  0.00  0.00    +0.000 HD
ENDROOT
BRANCH   1  16
ATOM     12  C   UNL     1       5.158   4.571  19.119  0.00  0.00    +0.000 A 
ATOM     13  C   UNL     1       4.356   3.569  19.669  0.00  0.00    +0.000 A 
ATOM     14  C   UNL     1       3.001   3.799  19.907  0.00  0.00    +0.000 A 
ATOM     15  C   UNL     1       2.440   5.038  19.599  0.00  0.00    +0.000 A 
ATOM     16  C   UNL     1       3.229   6.039  19.019  0.00  0.00    +0.000 A 
ATOM     17  C   UNL     1       4.590   5.801  18.782  0.00  0.00    +0.000 A 
BRANCH  12  19
ATOM     18  C   UNL     1       7.174   4.915  17.914  0.00  0.00    +0.000 C 
ATOM     19  O   UNL     1       6.476   4.238  18.954  0.00  0.00    +0.000 OA
ENDBRANCH  12  19
ENDBRANCH   1  16
BRANCH   6  20
ATOM     20  N   UNL     1      -1.008  11.755  18.683  0.00  0.00    +0.000 NA
ATOM     21  C   UNL     1      -1.993  11.207  18.049  0.00  0.00    +0.000 C 
BRANCH  21  22
ATOM     22  C   UNL     1      -3.379  11.672  18.266  0.00  0.00    +0.000 A 
ATOM     23  C   UNL     1      -3.759  12.201  19.498  0.00  0.00    +0.000 A 
ATOM     24  C   UNL     1      -5.059  12.645  19.638  0.00  0.00    +0.000 A 
ATOM     25  N   UNL     1      -5.980  12.587  18.652  0.00  0.00    +0.000 NA
ATOM     26  C   UNL     1      -5.582  12.064  17.471  0.00  0.00    +0.000 A 
ATOM     27  C   UNL     1      -4.302  11.594  17.226  0.00  0.00    +0.000 A 
ENDBRANCH  21  22
ENDBRANCH   6  20
TORSDOF 4
ENDMDL
MODEL 6
REMARK VINA RESULT:      -7.4      5.504      7.619
REMARK  Name = 
REMARK  5 active torsions:
REMARK  status: ('A' for Active; 'I' for Inactive)
REMARK    1  A    between atoms: C_1  and  O_2
REMARK    2  A    between atoms: O_2  and  C_3
REMARK    3  A    between atoms: C_7  and  N_8
REMARK    4  A    between atoms: N_13  and  N_14
REMARK    5  A    between atoms: C_15  and  C_16
REMARK                            x       y       z     vdW  Elec       q    Type
REMARK                         _______ _______ _______ _____ _____    ______ ____
ROOT
ATOM      1  N   UNL     1       4.273   5.334  18.273  0.00  0.00    +0.000 N 
ATOM      2  C   UNL     1       3.956   4.579  19.391  0.00  0.00    +0.000 A 
ATOM      3  N   UNL     1       3.108   5.183  20.199  0.00  0.00    +0.000 NA
ATOM      4  C   UNL     1       2.829   6.380  19.572  0.00  0.00    +0.000 A 
ATOM      5  C   UNL     1       2.001   7.464  19.931  0.00  0.00    +0.000 A 
ATOM      6  N   UNL     1       1.263   7.476  21.132  0.00  0.00    +0.000 N 
ATOM      7  N   UNL     1       1.912   8.504  19.053  0.00  0.00    +0.000 NA
ATOM      8  C   UNL     1       2.598   8.451  17.899  0.00  0.00    +0.000 A 
ATOM      9  N   UNL     1       3.439   7.497  17.485  0.00  0.00    +0.000 NA
ATOM     10  C   UNL     1       3.530   6.488  18.378  0.00  0.00    +0.000 A 
ATOM     11  H   UNL     1       1.410   6.644  21.700  0.00  0.00    +0.000 HD
ENDROOT
BRANCH   1  16
ATOM     12  C   UNL     1       5.587   4.295  14.952  0.00  0.00    +0.000 A 
ATOM     13  C   UNL     1       6.956   4.223  15.222  0.00  0.00    +0.000 A 
ATOM     14  C   UNL     1       7.444   4.540  16.490  0.00  0.00    +0.000 A 
ATOM     15  C   UNL     1       6.564   4.933  17.497  0.00  0.00    +0.000 A 
ATOM     16  C   UNL     1       5.187   4.979  17.245  0.00  0.00    +0.000 A 
ATOM     17  C   UNL     1       4.702   4.659  15.969  0.00  0.00    +0.000 A 
BRANCH  12  19
ATOM     18  C   UNL     1       6.278   3.558  12.804  0.00  0.00    +0.000 C 
ATOM     19  O   UNL     1       5.230   3.985  13.668  0.00  0.00    +0.000 OA
ENDBRANCH  12  19
ENDBRANCH   1  16
BRANCH   6  20
ATOM     20  N   UNL     1       1.042   8.695  21.690  0.00  0.00    +0.000 NA
ATOM     21  C   UNL     1      -0.020   9.321  21.299  0.00  0.00    +0.000 C 
BRANCH  21  22
ATOM     22  C   UNL     1      -0.344  10.660  21.835  0.00  0.00    +0.000 A 
ATOM     23  C   UNL     1       0.210  11.801  21.257  0.00  0.00    +0.000 A 
ATOM     24  C   UNL     1      -0.148  13.029  21.779  0.00  0.00    +0.000 A 
ATOM     25  N   UNL     1      -0.997  13.180  22.819  0.00  0.00    +0.000 NA
ATOM     26  C   UNL     1      -1.512  12.054  23.360  0.00  0.00    +0.000 A 
ATOM     27  C   UNL     1      -1.221  10.778  22.910  0.00  0.00    +0.000 A 
ENDBRANCH  21  22
ENDBRANCH   6  20
TORSDOF 4
ENDMDL
MODEL 7
REMARK VINA RESULT:      -7.4      7.094      8.484
REMARK  Name = 
REMARK  5 active torsions:
REMARK  status: ('A' for Active; 'I' for Inactive)
REMARK    1  A    between atoms: C_1  and  O_2
REMARK    2  A    between atoms: O_2  and  C_3
REMARK    3  A    between atoms: C_7  and  N_8
REMARK    4  A    between atoms: N_13  and  N_14
REMARK    5  A    between atoms: C_15  and  C_16
REMARK                            x       y       z     vdW  Elec       q    Type
REMARK                         _______ _______ _______ _____ _____    ______ ____
ROOT
ATOM      1  N   UNL     1       2.291   7.733  18.390  0.00  0.00    +0.000 N 
ATOM      2  C   UNL     1       2.203   8.832  17.552  0.00  0.00    +0.000 A 
ATOM      3  N   UNL     1       1.632   9.874  18.123  0.00  0.00    +0.000 NA
ATOM      4  C   UNL     1       1.357   9.452  19.408  0.00  0.00    +0.000 A 
ATOM      5  C   UNL     1       0.749  10.100  20.504  0.00  0.00    +0.000 A 
ATOM      6  N   UNL     1       0.272  11.424  20.421  0.00  0.00    +0.000 N 
ATOM      7  N   UNL     1       0.660   9.404  21.673  0.00  0.00    +0.000 NA
ATOM      8  C   UNL     1       1.154   8.156  21.736  0.00  0.00    +0.000 A 
ATOM      9  N   UNL     1       1.707   7.440  20.751  0.00  0.00    +0.000 NA
ATOM     10  C   UNL     1       1.765   8.139  19.596  0.00  0.00    +0.000 A 
ATOM     11  H   UNL     1       0.398  11.837  19.498  0.00  0.00    +0.000 HD
ENDROOT
BRANCH   1  16
ATOM     12  C   UNL     1       2.451   4.084  17.686  0.00  0.00    +0.000 A 
ATOM     13  C   UNL     1       3.819   3.921  17.456  0.00  0.00    +0.000 A 
ATOM     14  C   UNL     1       4.680   5.016  17.511  0.00  0.00    +0.000 A 
ATOM     15  C   UNL     1       4.177   6.285  17.794  0.00  0.00    +0.000 A 
ATOM     16  C   UNL     1       2.812   6.454  18.056  0.00  0.00    +0.000 A 
ATOM     17  C   UNL     1       1.951   5.350  18.000  0.00  0.00    +0.000 A 
BRANCH  12  19
ATOM     18  C   UNL     1       1.342   2.308  18.804  0.00  0.00    +0.000 C 
ATOM     19  O   UNL     1       1.702   2.943  17.582  0.00  0.00    +0.000 OA
ENDBRANCH  12  19
ENDBRANCH   1  16
BRANCH   6  20
ATOM     20  N   UNL     1      -0.796  11.730  21.203  0.00  0.00    +0.000 NA
ATOM     21  C   UNL     1      -0.603  12.631  22.111  0.00  0.00    +0.000 C 
BRANCH  21  22
ATOM     22  C   UNL     1      -1.696  13.025  23.024  0.00  0.00    +0.000 A 
ATOM     23  C   UNL     1      -2.798  12.190  23.204  0.00  0.00    +0.000 A 
ATOM     24  C   UNL     1      -3.778  12.594  24.089  0.00  0.00    +0.000 A 
ATOM     25  N   UNL     1      -3.728  13.753  24.781  0.00  0.00    +0.000 NA
ATOM     26  C   UNL     1      -2.650  14.543  24.580  0.00  0.00    +0.000 A 
ATOM     27  C   UNL     1      -1.613  14.229  23.719  0.00  0.00    +0.000 A 
ENDBRANCH  21  22
ENDBRANCH   6  20
TORSDOF 4
ENDMDL
MODEL 8
REMARK VINA RESULT:      -7.3      6.718      9.047
REMARK  Name = 
REMARK  5 active torsions:
REMARK  status: ('A' for Active; 'I' for Inactive)
REMARK    1  A    between atoms: C_1  and  O_2
REMARK    2  A    between atoms: O_2  and  C_3
REMARK    3  A    between atoms: C_7  and  N_8
REMARK    4  A    between atoms: N_13  and  N_14
REMARK    5  A    between atoms: C_15  and  C_16
REMARK                            x       y       z     vdW  Elec       q    Type
REMARK                         _______ _______ _______ _____ _____    ______ ____
ROOT
ATOM      1  N   UNL     1       2.640   7.312  18.677  0.00  0.00    +0.000 N 
ATOM      2  C   UNL     1       2.752   8.069  17.522  0.00  0.00    +0.000 A 
ATOM      3  N   UNL     1       2.059   9.189  17.568  0.00  0.00    +0.000 NA
ATOM      4  C   UNL     1       1.485   9.185  18.823  0.00  0.00    +0.000 A 
ATOM      5  C   UNL     1       0.631  10.101  19.473  0.00  0.00    +0.000 A 
ATOM      6  N   UNL     1       0.184  11.282  18.847  0.00  0.00    +0.000 N 
ATOM      7  N   UNL     1       0.266   9.816  20.756  0.00  0.00    +0.000 NA
ATOM      8  C   UNL     1       0.734   8.700  21.342  0.00  0.00    +0.000 A 
ATOM      9  N   UNL     1       1.509   7.752  20.803  0.00  0.00    +0.000 NA
ATOM     10  C   UNL     1       1.839   8.041  19.526  0.00  0.00    +0.000 A 
ATOM     11  H   UNL     1       0.527  11.383  17.894  0.00  0.00    +0.000 HD
ENDROOT
BRANCH   1  16
ATOM     12  C   UNL     1       5.217   4.663  19.098  0.00  0.00    +0.000 A 
ATOM     13  C   UNL     1       4.410   3.545  19.323  0.00  0.00    +0.000 A 
ATOM     14  C   UNL     1       3.021   3.672  19.360  0.00  0.00    +0.000 A 
ATOM     15  C   UNL     1       2.430   4.920  19.172  0.00  0.00    +0.000 A 
ATOM     16  C   UNL     1       3.229   6.041  18.915  0.00  0.00    +0.000 A 
ATOM     17  C   UNL     1       4.624   5.908  18.879  0.00  0.00    +0.000 A 
BRANCH  12  19
ATOM     18  C   UNL     1       7.411   5.547  18.909  0.00  0.00    +0.000 C 
ATOM     19  O   UNL     1       6.564   4.421  19.108  0.00  0.00    +0.000 OA
ENDBRANCH  12  19
ENDBRANCH   1  16
BRANCH   6  20
ATOM     20  N   UNL     1      -1.040  11.736  19.221  0.00  0.00    +0.000 NA
ATOM     21  C   UNL     1      -2.033  11.399  18.465  0.00  0.00    +0.000 C 
BRANCH  21  22
ATOM     22  C   UNL     1      -3.404  11.853  18.775  0.00  0.00    +0.000 A 
ATOM     23  C   UNL     1      -4.452  11.580  17.897  0.00  0.00    +0.000 A 
ATOM     24  C   UNL     1      -5.718  12.004  18.249  0.00  0.00    +0.000 A 
ATOM     25  N   UNL     1      -5.993  12.672  19.390  0.00  0.00    +0.000 NA
ATOM     26  C   UNL     1      -4.955  12.926  20.218  0.00  0.00    +0.000 A 
ATOM     27  C   UNL     1      -3.650  12.542  19.960  0.00  0.00    +0.000 A 
ENDBRANCH  21  22
ENDBRANCH   6  20
TORSDOF 4
ENDMDL
MODEL 9
REMARK VINA RESULT:      -7.3      7.942     10.911
REMARK  Name = 
REMARK  5 active torsions:
REMARK  status: ('A' for Active; 'I' for Inactive)
REMARK    1  A    between atoms: C_1  and  O_2
REMARK    2  A    between atoms: O_2  and  C_3
REMARK    3  A    between atoms: C_7  and  N_8
REMARK    4  A    between atoms: N_13  and  N_14
REMARK    5  A    between atoms: C_15  and  C_16
REMARK                            x       y       z     vdW  Elec       q    Type
REMARK                         _______ _______ _______ _____ _____    ______ ____
ROOT
ATOM      1  N   UNL     1      -1.046  11.265  22.143  0.00  0.00    +0.000 N 
ATOM      2  C   UNL     1      -0.816  10.436  23.230  0.00  0.00    +0.000 A 
ATOM      3  N   UNL     1      -0.032   9.416  22.946  0.00  0.00    +0.000 NA
ATOM      4  C   UNL     1       0.297   9.595  21.618  0.00  0.00    +0.000 A 
ATOM      5  C   UNL     1       1.098   8.842  20.734  0.00  0.00    +0.000 A 
ATOM      6  N   UNL     1       1.741   7.653  21.134  0.00  0.00    +0.000 N 
ATOM      7  N   UNL     1       1.255   9.322  19.467  0.00  0.00    +0.000 NA
ATOM      8  C   UNL     1       0.660  10.476  19.121  0.00  0.00    +0.000 A 
ATOM      9  N   UNL     1      -0.149  11.239  19.865  0.00  0.00    +0.000 NA
ATOM     10  C   UNL     1      -0.310  10.735  21.107  0.00  0.00    +0.000 A 
ATOM     11  H   UNL     1       1.549   7.401  22.102  0.00  0.00    +0.000 HD
ENDROOT
BRANCH   1  16
ATOM     12  C   UNL     1      -2.584  14.504  23.130  0.00  0.00    +0.000 A 
ATOM     13  C   UNL     1      -3.541  14.657  22.124  0.00  0.00    +0.000 A 
ATOM     14  C   UNL     1      -3.661  13.705  21.112  0.00  0.00    +0.000 A 
ATOM     15  C   UNL     1      -2.821  12.593  21.098  0.00  0.00    +0.000 A 
ATOM     16  C   UNL     1      -1.878  12.415  22.118  0.00  0.00    +0.000 A 
ATOM     17  C   UNL     1      -1.763  13.375  23.133  0.00  0.00    +0.000 A 
BRANCH  12  19
ATOM     18  C   UNL     1      -2.657  15.125  25.420  0.00  0.00    +0.000 C 
ATOM     19  O   UNL     1      -2.544  15.513  24.054  0.00  0.00    +0.000 OA
ENDBRANCH  12  19
ENDBRANCH   1  16
BRANCH   6  20
ATOM     20  N   UNL     1       1.921   6.713  20.171  0.00  0.00    +0.000 NA
ATOM     21  C   UNL     1       1.581   5.504  20.478  0.00  0.00    +0.000 C 
BRANCH  21  22
ATOM     22  C   UNL     1       1.751   4.404  19.506  0.00  0.00    +0.000 A 
ATOM     23  C   UNL     1       1.097   3.187  19.699  0.00  0.00    +0.000 A 
ATOM     24  C   UNL     1       1.269   2.203  18.746  0.00  0.00    +0.000 A 
ATOM     25  N   UNL     1       2.039   2.353  17.646  0.00  0.00    +0.000 NA
ATOM     26  C   UNL     1       2.663   3.542  17.491  0.00  0.00    +0.000 A 
ATOM     27  C   UNL     1       2.555   4.593  18.385  0.00  0.00    +0.000 A 
ENDBRANCH  21  22
ENDBRANCH   6  20
TORSDOF 4
ENDMDL
