MODEL 1
REMARK VINA RESULT:      -8.8      0.000      0.000
REMARK  Name = 
REMARK  5 active torsions:
REMARK  status: ('A' for Active; 'I' for Inactive)
REMARK    1  A    between atoms: C_1  and  C_2
REMARK    2  A    between atoms: C_2  and  C_3
REMARK    3  A    between atoms: C_3  and  O_4
REMARK    4  A    between atoms: C_21  and  O_22
REMARK    5  A    between atoms: C_23  and  O_24
REMARK                            x       y       z     vdW  Elec       q    Type
REMARK                         _______ _______ _______ _____ _____    ______ ____
ROOT
ATOM      1  C   UNL     1       4.900   5.589  17.082  0.00  0.00    +0.000 C 
ATOM      2  C   UNL     1       4.649   4.095  17.322  0.00  0.00    +0.000 C 
ATOM      3  O   UNL     1       4.347   3.371  16.378  0.00  0.00    +0.000 OA
ATOM      4  O   UNL     1       4.364   3.644  18.537  0.00  0.00    +0.000 OA
ATOM      5  C   UNL     1       3.089   3.951  18.847  0.00  0.00    +0.000 C 
ATOM      6  C   UNL     1       2.971   5.435  18.901  0.00  0.00    +0.000 A 
ATOM      7  C   UNL     1       3.509   6.276  17.853  0.00  0.00    +0.000 A 
ATOM      8  C   UNL     1       2.928   7.663  17.880  0.00  0.00    +0.000 A 
ATOM      9  C   UNL     1       2.038   8.117  19.007  0.00  0.00    +0.000 A 
ATOM     10  N   UNL     1       1.967   7.244  20.039  0.00  0.00    +0.000 N 
ATOM     11  C   UNL     1       2.323   5.943  19.990  0.00  0.00    +0.000 A 
ATOM     12  O   UNL     1       2.040   5.220  20.927  0.00  0.00    +0.000 OA
ATOM     13  C   UNL     1       1.422   7.779  21.261  0.00  0.00    +0.000 C 
ATOM     14  C   UNL     1       0.928   9.066  20.865  0.00  0.00    +0.000 A 
ATOM     15  C   UNL     1       0.265   9.874  21.755  0.00  0.00    +0.000 A 
ATOM     16  C   UNL     1      -0.379  10.986  21.288  0.00  0.00    +0.000 A 
ATOM     17  C   UNL     1      -1.079  11.793  22.211  0.00  0.00    +0.000 A 
ATOM     18  C   UNL     1      -1.844  12.862  21.788  0.00  0.00    +0.000 A 
ATOM     19  C   UNL     1      -1.963  13.108  20.409  0.00  0.00    +0.000 A 
ATOM     20  C   UNL     1      -1.223  12.313  19.464  0.00  0.00    +0.000 A 
ATOM     21  C   UNL     1      -0.363  11.247  19.888  0.00  0.00    +0.000 A 
ATOM     22  N   UNL     1       0.436  10.443  19.023  0.00  0.00    +0.000 NA
ATOM     23  C   UNL     1       1.137   9.334  19.527  0.00  0.00    +0.000 A 
ENDROOT
BRANCH   1  25
ATOM     24  C   UNL     1       6.865   5.034  14.874  0.00  0.00    +0.000 C 
ATOM     25  C   UNL     1       6.394   5.135  16.398  0.00  0.00    +0.000 C 
ENDBRANCH   1  25
BRANCH   1  26
ATOM     26  O   UNL     1       5.630   6.252  18.094  0.00  0.00    +0.000 OA
ATOM     27  H   UNL     1       4.967   6.779  18.633  0.00  0.00    +0.000 HD
ENDBRANCH   1  26
BRANCH  18  28
ATOM     28  O   UNL     1      -2.481  13.646  22.697  0.00  0.00    +0.000 OA
ATOM     29  H   UNL     1      -2.004  14.193  23.341  0.00  0.00    +0.000 HD
ENDBRANCH  18  28
BRANCH  19  30
ATOM     30  O   UNL     1      -2.775  14.105  19.984  0.00  0.00    +0.000 OA
ATOM     31  H   UNL     1      -3.545  14.406  20.500  0.00  0.00    +0.000 HD
ENDBRANCH  19  30
TORSDOF 4
ENDMDL
MODEL 2
REMARK VINA RESULT:      -8.5      1.522      9.210
REMARK  Name = 
REMARK  5 active torsions:
REMARK  status: ('A' for Active; 'I' for Inactive)
REMARK    1  A    between atoms: C_1  and  C_2
REMARK    2  A    between atoms: C_2  and  C_3
REMARK    3  A    between atoms: C_3  and  O_4
REMARK    4  A    between atoms: C_21  and  O_22
REMARK    5  A    between atoms: C_23  and  O_24
REMARK                            x       y       z     vdW  Elec       q    Type
REMARK                         _______ _______ _______ _____ _____    ______ ____
ROOT
ATOM      1  C   UNL     1      -1.290  12.085  22.358  0.00  0.00    +0.000 C 
ATOM      2  C   UNL     1      -2.482  12.635  21.565  0.00  0.00    +0.000 C 
ATOM      3  O   UNL     1      -3.624  12.442  21.973  0.00  0.00    +0.000 OA
ATOM      4  O   UNL     1      -2.351  12.958  20.284  0.00  0.00    +0.000 OA
ATOM      5  C   UNL     1      -2.316  11.838  19.536  0.00  0.00    +0.000 C 
ATOM      6  C   UNL     1      -1.097  11.069  19.912  0.00  0.00    +0.000 A 
ATOM      7  C   UNL     1      -0.751  10.827  21.297  0.00  0.00    +0.000 A 
ATOM      8  C   UNL     1       0.241   9.707  21.449  0.00  0.00    +0.000 A 
ATOM      9  C   UNL     1       0.903   9.079  20.252  0.00  0.00    +0.000 A 
ATOM     10  N   UNL     1       0.658   9.722  19.086  0.00  0.00    +0.000 N 
ATOM     11  C   UNL     1      -0.339  10.608  18.875  0.00  0.00    +0.000 A 
ATOM     12  O   UNL     1      -0.566  10.976  17.738  0.00  0.00    +0.000 OA
ATOM     13  C   UNL     1       1.533   9.374  17.995  0.00  0.00    +0.000 C 
ATOM     14  C   UNL     1       2.263   8.250  18.506  0.00  0.00    +0.000 A 
ATOM     15  C   UNL     1       3.170   7.580  17.722  0.00  0.00    +0.000 A 
ATOM     16  C   UNL     1       3.678   6.391  18.165  0.00  0.00    +0.000 A 
ATOM     17  C   UNL     1       4.589   5.700  17.337  0.00  0.00    +0.000 A 
ATOM     18  C   UNL     1       5.048   4.442  17.674  0.00  0.00    +0.000 A 
ATOM     19  C   UNL     1       4.552   3.828  18.839  0.00  0.00    +0.000 A 
ATOM     20  C   UNL     1       3.652   4.540  19.708  0.00  0.00    +0.000 A 
ATOM     21  C   UNL     1       3.223   5.877  19.413  0.00  0.00    +0.000 A 
ATOM     22  N   UNL     1       2.372   6.667  20.241  0.00  0.00    +0.000 NA
ATOM     23  C   UNL     1       1.901   7.913  19.794  0.00  0.00    +0.000 A 
ENDROOT
BRANCH   1  25
ATOM     24  C   UNL     1      -0.997  14.841  23.527  0.00  0.00    +0.000 C 
ATOM     25  C   UNL     1      -1.564  13.348  23.470  0.00  0.00    +0.000 C 
ENDBRANCH   1  25
BRANCH   1  26
ATOM     26  O   UNL     1      -0.043  12.684  22.072  0.00  0.00    +0.000 OA
ATOM     27  H   UNL     1      -0.072  12.972  21.111  0.00  0.00    +0.000 HD
ENDBRANCH   1  26
BRANCH  18  28
ATOM     28  O   UNL     1       5.951   3.810  16.880  0.00  0.00    +0.000 OA
ATOM     29  H   UNL     1       6.909   3.918  16.989  0.00  0.00    +0.000 HD
ENDBRANCH  18  28
BRANCH  19  30
ATOM     30  O   UNL     1       4.937   2.563  19.133  0.00  0.00    +0.000 OA
ATOM     31  H   UNL     1       4.563   2.065  19.882  0.00  0.00    +0.000 HD
ENDBRANCH  19  30
TORSDOF 4
ENDMDL
MODEL 3
REMARK VINA RESULT:      -8.3      1.662      2.779
REMARK  Name = 
REMARK  5 active torsions:
REMARK  status: ('A' for Active; 'I' for Inactive)
REMARK    1  A    between atoms: C_1  and  C_2
REMARK    2  A    between atoms: C_2  and  C_3
REMARK    3  A    between atoms: C_3  and  O_4
REMARK    4  A    between atoms: C_21  and  O_22
REMARK    5  A    between atoms: C_23  and  O_24
REMARK                            x       y       z     vdW  Elec       q    Type
REMARK                         _______ _______ _______ _____ _____    ______ ____
ROOT
ATOM      1  C   UNL     1       6.463   5.508  14.883  0.00  0.00    +0.000 C 
ATOM      2  C   UNL     1       6.312   4.005  14.617  0.00  0.00    +0.000 C 
ATOM      3  O   UNL     1       6.020   3.614  13.491  0.00  0.00    +0.000 OA
ATOM      4  O   UNL     1       6.100   3.159  15.618  0.00  0.00    +0.000 OA
ATOM      5  C   UNL     1       4.821   3.258  16.031  0.00  0.00    +0.000 C 
ATOM      6  C   UNL     1       4.615   4.629  16.576  0.00  0.00    +0.000 A 
ATOM      7  C   UNL     1       5.063   5.804  15.858  0.00  0.00    +0.000 A 
ATOM      8  C   UNL     1       4.400   7.060  16.352  0.00  0.00    +0.000 A 
ATOM      9  C   UNL     1       3.526   7.054  17.578  0.00  0.00    +0.000 A 
ATOM     10  N   UNL     1       3.546   5.886  18.264  0.00  0.00    +0.000 N 
ATOM     11  C   UNL     1       3.978   4.702  17.781  0.00  0.00    +0.000 A 
ATOM     12  O   UNL     1       3.774   3.693  18.429  0.00  0.00    +0.000 OA
ATOM     13  C   UNL     1       3.015   5.949  19.602  0.00  0.00    +0.000 C 
ATOM     14  C   UNL     1       2.429   7.257  19.662  0.00  0.00    +0.000 A 
ATOM     15  C   UNL     1       1.752   7.678  20.780  0.00  0.00    +0.000 A 
ATOM     16  C   UNL     1       1.025   8.834  20.718  0.00  0.00    +0.000 A 
ATOM     17  C   UNL     1       0.312   9.240  21.866  0.00  0.00    +0.000 A 
ATOM     18  C   UNL     1      -0.532  10.333  21.833  0.00  0.00    +0.000 A 
ATOM     19  C   UNL     1      -0.716  11.012  20.615  0.00  0.00    +0.000 A 
ATOM     20  C   UNL     1       0.035  10.627  19.449  0.00  0.00    +0.000 A 
ATOM     21  C   UNL     1       0.973   9.542  19.483  0.00  0.00    +0.000 A 
ATOM     22  N   UNL     1       1.788   9.127  18.389  0.00  0.00    +0.000 NA
ATOM     23  C   UNL     1       2.573   7.966  18.486  0.00  0.00    +0.000 A 
ENDROOT
BRANCH   1  25
ATOM     24  C   UNL     1       8.379   5.862  12.592  0.00  0.00    +0.000 C 
ATOM     25  C   UNL     1       7.956   5.410  14.065  0.00  0.00    +0.000 C 
ENDBRANCH   1  25
BRANCH   1  26
ATOM     26  O   UNL     1       7.188   5.849  16.046  0.00  0.00    +0.000 OA
ATOM     27  H   UNL     1       7.253   5.016  16.602  0.00  0.00    +0.000 HD
ENDBRANCH   1  26
BRANCH  18  28
ATOM     28  O   UNL     1      -1.181  10.727  22.959  0.00  0.00    +0.000 OA
ATOM     29  H   UNL     1      -1.772  10.139  23.455  0.00  0.00    +0.000 HD
ENDBRANCH  18  28
BRANCH  19  30
ATOM     30  O   UNL     1      -1.603  12.034  20.557  0.00  0.00    +0.000 OA
ATOM     31  H   UNL     1      -1.331  12.966  20.647  0.00  0.00    +0.000 HD
ENDBRANCH  19  30
TORSDOF 4
ENDMDL
MODEL 4
REMARK VINA RESULT:      -8.3      1.823      3.594
REMARK  Name = 
REMARK  5 active torsions:
REMARK  status: ('A' for Active; 'I' for Inactive)
REMARK    1  A    between atoms: C_1  and  C_2
REMARK    2  A    between atoms: C_2  and  C_3
REMARK    3  A    between atoms: C_3  and  O_4
REMARK    4  A    between atoms: C_21  and  O_22
REMARK    5  A    between atoms: C_23  and  O_24
REMARK                            x       y       z     vdW  Elec       q    Type
REMARK                         _______ _______ _______ _____ _____    ______ ____
ROOT
ATOM      1  C   UNL     1       2.651   5.264  20.122  0.00  0.00    +0.000 C 
ATOM      2  C   UNL     1       3.697   5.184  19.002  0.00  0.00    +0.000 C 
ATOM      3  O   UNL     1       4.871   4.966  19.284  0.00  0.00    +0.000 OA
ATOM      4  O   UNL     1       3.455   5.721  17.813  0.00  0.00    +0.000 OA
ATOM      5  C   UNL     1       3.576   7.061  17.887  0.00  0.00    +0.000 C 
ATOM      6  C   UNL     1       2.523   7.569  18.809  0.00  0.00    +0.000 A 
ATOM      7  C   UNL     1       2.286   6.957  20.100  0.00  0.00    +0.000 A 
ATOM      8  C   UNL     1       1.505   7.853  21.021  0.00  0.00    +0.000 A 
ATOM      9  C   UNL     1       0.906   9.146  20.533  0.00  0.00    +0.000 A 
ATOM     10  N   UNL     1       0.985   9.320  19.193  0.00  0.00    +0.000 N 
ATOM     11  C   UNL     1       1.808   8.643  18.363  0.00  0.00    +0.000 A 
ATOM     12  O   UNL     1       1.918   9.018  17.211  0.00  0.00    +0.000 OA
ATOM     13  C   UNL     1       0.133  10.350  18.654  0.00  0.00    +0.000 C 
ATOM     14  C   UNL     1      -0.372  11.004  19.826  0.00  0.00    +0.000 A 
ATOM     15  C   UNL     1      -1.187  12.104  19.726  0.00  0.00    +0.000 A 
ATOM     16  C   UNL     1      -1.467  12.827  20.852  0.00  0.00    +0.000 A 
ATOM     17  C   UNL     1      -2.284  13.972  20.730  0.00  0.00    +0.000 A 
ATOM     18  C   UNL     1      -2.508  14.807  21.806  0.00  0.00    +0.000 A 
ATOM     19  C   UNL     1      -1.864  14.531  23.026  0.00  0.00    +0.000 A 
ATOM     20  C   UNL     1      -1.059  13.347  23.169  0.00  0.00    +0.000 A 
ATOM     21  C   UNL     1      -0.876  12.426  22.085  0.00  0.00    +0.000 A 
ATOM     22  N   UNL     1      -0.134  11.210  22.156  0.00  0.00    +0.000 NA
ATOM     23  C   UNL     1       0.099  10.449  20.999  0.00  0.00    +0.000 A 
ENDROOT
BRANCH   1  25
ATOM     24  C   UNL     1       2.606   2.571  21.461  0.00  0.00    +0.000 C 
ATOM     25  C   UNL     1       2.757   3.565  20.219  0.00  0.00    +0.000 C 
ENDBRANCH   1  25
BRANCH   1  26
ATOM     26  O   UNL     1       1.309   5.100  19.712  0.00  0.00    +0.000 OA
ATOM     27  H   UNL     1       0.825   4.659  20.472  0.00  0.00    +0.000 HD
ENDBRANCH   1  26
BRANCH  18  28
ATOM     28  O   UNL     1      -3.326  15.884  21.674  0.00  0.00    +0.000 OA
ATOM     29  H   UNL     1      -3.074  16.674  21.170  0.00  0.00    +0.000 HD
ENDBRANCH  18  28
BRANCH  19  30
ATOM     30  O   UNL     1      -2.016  15.391  24.061  0.00  0.00    +0.000 OA
ATOM     31  H   UNL     1      -1.696  16.310  24.027  0.00  0.00    +0.000 HD
ENDBRANCH  19  30
TORSDOF 4
ENDMDL
MODEL 5
REMARK VINA RESULT:      -8.2      1.539      2.991
REMARK  Name = 
REMARK  5 active torsions:
REMARK  status: ('A' for Active; 'I' for Inactive)
REMARK    1  A    between atoms: C_1  and  C_2
REMARK    2  A    between atoms: C_2  and  C_3
REMARK    3  A    between atoms: C_3  and  O_4
REMARK    4  A    between atoms: C_21  and  O_22
REMARK    5  A    between atoms: C_23  and  O_24
REMARK                            x       y       z     vdW  Elec       q    Type
REMARK                         _______ _______ _______ _____ _____    ______ ____
ROOT
ATOM      1  C   UNL     1       3.681   4.519  19.327  0.00  0.00    +0.000 C 
ATOM      2  C   UNL     1       4.851   4.668  18.347  0.00  0.00    +0.000 C 
ATOM      3  O   UNL     1       6.001   4.505  18.745  0.00  0.00    +0.000 OA
ATOM      4  O   UNL     1       4.700   5.337  17.211  0.00  0.00    +0.000 OA
ATOM      5  C   UNL     1       4.687   6.661  17.464  0.00  0.00    +0.000 C 
ATOM      6  C   UNL     1       3.492   6.961  18.301  0.00  0.00    +0.000 A 
ATOM      7  C   UNL     1       3.166   6.166  19.467  0.00  0.00    +0.000 A 
ATOM      8  C   UNL     1       2.206   6.870  20.385  0.00  0.00    +0.000 A 
ATOM      9  C   UNL     1       1.550   8.166  19.988  0.00  0.00    +0.000 A 
ATOM     10  N   UNL     1       1.766   8.522  18.700  0.00  0.00    +0.000 N 
ATOM     11  C   UNL     1       2.737   8.026  17.903  0.00  0.00    +0.000 A 
ATOM     12  O   UNL     1       2.945   8.558  16.829  0.00  0.00    +0.000 OA
ATOM     13  C   UNL     1       0.891   9.546  18.188  0.00  0.00    +0.000 C 
ATOM     14  C   UNL     1       0.196   9.998  19.358  0.00  0.00    +0.000 A 
ATOM     15  C   UNL     1      -0.700  11.037  19.292  0.00  0.00    +0.000 A 
ATOM     16  C   UNL     1      -1.173  11.580  20.454  0.00  0.00    +0.000 A 
ATOM     17  C   UNL     1      -2.072  12.665  20.370  0.00  0.00    +0.000 A 
ATOM     18  C   UNL     1      -2.494  13.331  21.504  0.00  0.00    +0.000 A 
ATOM     19  C   UNL     1      -1.972  12.946  22.752  0.00  0.00    +0.000 A 
ATOM     20  C   UNL     1      -1.084  11.818  22.850  0.00  0.00    +0.000 A 
ATOM     21  C   UNL     1      -0.693  11.066  21.692  0.00  0.00    +0.000 A 
ATOM     22  N   UNL     1       0.145   9.911  21.707  0.00  0.00    +0.000 NA
ATOM     23  C   UNL     1       0.579   9.331  20.504  0.00  0.00    +0.000 A 
ENDROOT
BRANCH   1  25
ATOM     24  C   UNL     1       4.491   1.791  20.300  0.00  0.00    +0.000 C 
ATOM     25  C   UNL     1       3.931   2.835  19.228  0.00  0.00    +0.000 C 
ENDBRANCH   1  25
BRANCH   1  26
ATOM     26  O   UNL     1       2.416   4.308  18.735  0.00  0.00    +0.000 OA
ATOM     27  H   UNL     1       2.101   5.198  18.397  0.00  0.00    +0.000 HD
ENDBRANCH   1  26
BRANCH  18  28
ATOM     28  O   UNL     1      -3.388  14.349  21.403  0.00  0.00    +0.000 OA
ATOM     29  H   UNL     1      -3.433  15.071  22.049  0.00  0.00    +0.000 HD
ENDBRANCH  18  28
BRANCH  19  30
ATOM     30  O   UNL     1      -2.321  13.646  23.858  0.00  0.00    +0.000 OA
ATOM     31  H   UNL     1      -2.271  14.618  23.896  0.00  0.00    +0.000 HD
ENDBRANCH  19  30
TORSDOF 4
ENDMDL
MODEL 6
REMARK VINA RESULT:      -8.2      1.019      1.164
REMARK  Name = 
REMARK  5 active torsions:
REMARK  status: ('A' for Active; 'I' for Inactive)
REMARK    1  A    between atoms: C_1  and  C_2
REMARK    2  A    between atoms: C_2  and  C_3
REMARK    3  A    between atoms: C_3  and  O_4
REMARK    4  A    between atoms: C_21  and  O_22
REMARK    5  A    between atoms: C_23  and  O_24
REMARK                            x       y       z     vdW  Elec       q    Type
REMARK                         _______ _______ _______ _____ _____    ______ ____
ROOT
ATOM      1  C   UNL     1       5.434   5.542  16.332  0.00  0.00    +0.000 C 
ATOM      2  C   UNL     1       5.089   4.061  16.135  0.00  0.00    +0.000 C 
ATOM      3  O   UNL     1       4.829   3.643  15.010  0.00  0.00    +0.000 OA
ATOM      4  O   UNL     1       4.682   3.320  17.158  0.00  0.00    +0.000 OA
ATOM      5  C   UNL     1       3.403   3.622  17.456  0.00  0.00    +0.000 C 
ATOM      6  C   UNL     1       3.356   5.040  17.908  0.00  0.00    +0.000 A 
ATOM      7  C   UNL     1       4.021   6.093  17.169  0.00  0.00    +0.000 A 
ATOM      8  C   UNL     1       3.511   7.458  17.538  0.00  0.00    +0.000 A 
ATOM      9  C   UNL     1       2.555   7.653  18.685  0.00  0.00    +0.000 A 
ATOM     10  N   UNL     1       2.354   6.541  19.431  0.00  0.00    +0.000 N 
ATOM     11  C   UNL     1       2.647   5.280  19.050  0.00  0.00    +0.000 A 
ATOM     12  O   UNL     1       2.251   4.353  19.731  0.00  0.00    +0.000 OA
ATOM     13  C   UNL     1       1.739   6.764  20.715  0.00  0.00    +0.000 C 
ATOM     14  C   UNL     1       1.345   8.141  20.656  0.00  0.00    +0.000 A 
ATOM     15  C   UNL     1       0.653   8.724  21.688  0.00  0.00    +0.000 A 
ATOM     16  C   UNL     1       0.106   9.964  21.504  0.00  0.00    +0.000 A 
ATOM     17  C   UNL     1      -0.626  10.539  22.566  0.00  0.00    +0.000 A 
ATOM     18  C   UNL     1      -1.298  11.734  22.403  0.00  0.00    +0.000 A 
ATOM     19  C   UNL     1      -1.289  12.352  21.140  0.00  0.00    +0.000 A 
ATOM     20  C   UNL     1      -0.516  11.792  20.064  0.00  0.00    +0.000 A 
ATOM     21  C   UNL     1       0.251  10.591  20.234  0.00  0.00    +0.000 A 
ATOM     22  N   UNL     1       1.078   9.996  19.235  0.00  0.00    +0.000 NA
ATOM     23  C   UNL     1       1.677   8.746  19.460  0.00  0.00    +0.000 A 
ENDROOT
BRANCH   1  25
ATOM     24  C   UNL     1       7.496   5.331  14.153  0.00  0.00    +0.000 C 
ATOM     25  C   UNL     1       6.955   5.185  15.649  0.00  0.00    +0.000 C 
ENDBRANCH   1  25
BRANCH   1  26
ATOM     26  O   UNL     1       6.110   5.853  17.533  0.00  0.00    +0.000 OA
ATOM     27  H   UNL     1       5.511   5.569  18.286  0.00  0.00    +0.000 HD
ENDBRANCH   1  26
BRANCH  18  28
ATOM     28  O   UNL     1      -1.967  12.287  23.449  0.00  0.00    +0.000 OA
ATOM     29  H   UNL     1      -2.778  12.806  23.335  0.00  0.00    +0.000 HD
ENDBRANCH  18  28
BRANCH  19  30
ATOM     30  O   UNL     1      -2.012  13.482  20.953  0.00  0.00    +0.000 OA
ATOM     31  H   UNL     1      -2.978  13.511  21.081  0.00  0.00    +0.000 HD
ENDBRANCH  19  30
TORSDOF 4
ENDMDL
MODEL 7
REMARK VINA RESULT:      -8.1      1.581      9.547
REMARK  Name = 
REMARK  5 active torsions:
REMARK  status: ('A' for Active; 'I' for Inactive)
REMARK    1  A    between atoms: C_1  and  C_2
REMARK    2  A    between atoms: C_2  and  C_3
REMARK    3  A    between atoms: C_3  and  O_4
REMARK    4  A    between atoms: C_21  and  O_22
REMARK    5  A    between atoms: C_23  and  O_24
REMARK                            x       y       z     vdW  Elec       q    Type
REMARK                         _______ _______ _______ _____ _____    ______ ____
ROOT
ATOM      1  C   UNL     1      -1.634  13.487  23.063  0.00  0.00    +0.000 C 
ATOM      2  C   UNL     1      -2.887  14.059  22.388  0.00  0.00    +0.000 C 
ATOM      3  O   UNL     1      -3.977  13.951  22.941  0.00  0.00    +0.000 OA
ATOM      4  O   UNL     1      -2.899  14.305  21.084  0.00  0.00    +0.000 OA
ATOM      5  C   UNL     1      -3.010  13.147  20.405  0.00  0.00    +0.000 C 
ATOM      6  C   UNL     1      -1.792  12.333  20.677  0.00  0.00    +0.000 A 
ATOM      7  C   UNL     1      -1.291  12.146  22.022  0.00  0.00    +0.000 A 
ATOM      8  C   UNL     1      -0.343  10.983  22.121  0.00  0.00    +0.000 A 
ATOM      9  C   UNL     1       0.136  10.257  20.892  0.00  0.00    +0.000 A 
ATOM     10  N   UNL     1      -0.219  10.849  19.728  0.00  0.00    +0.000 N 
ATOM     11  C   UNL     1      -1.190  11.776  19.585  0.00  0.00    +0.000 A 
ATOM     12  O   UNL     1      -1.538  12.096  18.464  0.00  0.00    +0.000 OA
ATOM     13  C   UNL     1       0.498  10.396  18.562  0.00  0.00    +0.000 C 
ATOM     14  C   UNL     1       1.230   9.262  19.048  0.00  0.00    +0.000 A 
ATOM     15  C   UNL     1       2.000   8.502  18.203  0.00  0.00    +0.000 A 
ATOM     16  C   UNL     1       2.501   7.312  18.652  0.00  0.00    +0.000 A 
ATOM     17  C   UNL     1       3.268   6.529  17.762  0.00  0.00    +0.000 A 
ATOM     18  C   UNL     1       3.704   5.267  18.117  0.00  0.00    +0.000 A 
ATOM     19  C   UNL     1       3.326   4.745  19.367  0.00  0.00    +0.000 A 
ATOM     20  C   UNL     1       2.575   5.551  20.293  0.00  0.00    +0.000 A 
ATOM     21  C   UNL     1       2.178   6.891  19.973  0.00  0.00    +0.000 A 
ATOM     22  N   UNL     1       1.474   7.770  20.849  0.00  0.00    +0.000 NA
ATOM     23  C   UNL     1       1.012   9.015  20.389  0.00  0.00    +0.000 A 
ENDROOT
BRANCH   1  25
ATOM     24  C   UNL     1      -2.190  14.931  25.642  0.00  0.00    +0.000 C 
ATOM     25  C   UNL     1      -1.708  14.821  24.123  0.00  0.00    +0.000 C 
ENDBRANCH   1  25
BRANCH   1  26
ATOM     26  O   UNL     1      -0.404  14.001  22.594  0.00  0.00    +0.000 OA
ATOM     27  H   UNL     1      -0.132  14.728  23.230  0.00  0.00    +0.000 HD
ENDBRANCH   1  26
BRANCH  18  28
ATOM     28  O   UNL     1       4.471   4.546  17.259  0.00  0.00    +0.000 OA
ATOM     29  H   UNL     1       4.279   4.486  16.310  0.00  0.00    +0.000 HD
ENDBRANCH  18  28
BRANCH  19  30
ATOM     30  O   UNL     1       3.683   3.478  19.687  0.00  0.00    +0.000 OA
ATOM     31  H   UNL     1       4.415   3.014  19.243  0.00  0.00    +0.000 HD
ENDBRANCH  19  30
TORSDOF 4
ENDMDL
MODEL 8
REMARK VINA RESULT:      -8.0      2.210      8.849
REMARK  Name = 
REMARK  5 active torsions:
REMARK  status: ('A' for Active; 'I' for Inactive)
REMARK    1  A    between atoms: C_1  and  C_2
REMARK    2  A    between atoms: C_2  and  C_3
REMARK    3  A    between atoms: C_3  and  O_4
REMARK    4  A    between atoms: C_21  and  O_22
REMARK    5  A    between atoms: C_23  and  O_24
REMARK                            x       y       z     vdW  Elec       q    Type
REMARK                         _______ _______ _______ _____ _____    ______ ____
ROOT
ATOM      1  C   UNL     1      -2.342  11.410  18.508  0.00  0.00    +0.000 C 
ATOM      2  C   UNL     1      -2.484  12.254  19.781  0.00  0.00    +0.000 C 
ATOM      3  O   UNL     1      -2.448  13.479  19.704  0.00  0.00    +0.000 OA
ATOM      4  O   UNL     1      -2.252  11.722  20.974  0.00  0.00    +0.000 OA
ATOM      5  C   UNL     1      -0.924  11.590  21.160  0.00  0.00    +0.000 C 
ATOM      6  C   UNL     1      -0.410  10.621  20.152  0.00  0.00    +0.000 A 
ATOM      7  C   UNL     1      -0.771  10.722  18.753  0.00  0.00    +0.000 A 
ATOM      8  C   UNL     1       0.160   9.942  17.867  0.00  0.00    +0.000 A 
ATOM      9  C   UNL     1       1.210   9.030  18.444  0.00  0.00    +0.000 A 
ATOM     10  N   UNL     1       1.113   8.855  19.783  0.00  0.00    +0.000 N 
ATOM     11  C   UNL     1       0.419   9.647  20.628  0.00  0.00    +0.000 A 
ATOM     12  O   UNL     1       0.559   9.493  21.826  0.00  0.00    +0.000 OA
ATOM     13  C   UNL     1       1.859   7.742  20.315  0.00  0.00    +0.000 C 
ATOM     14  C   UNL     1       2.652   7.316  19.198  0.00  0.00    +0.000 A 
ATOM     15  C   UNL     1       3.563   6.296  19.326  0.00  0.00    +0.000 A 
ATOM     16  C   UNL     1       4.449   6.068  18.311  0.00  0.00    +0.000 A 
ATOM     17  C   UNL     1       5.397   5.034  18.468  0.00  0.00    +0.000 A 
ATOM     18  C   UNL     1       6.392   4.830  17.531  0.00  0.00    +0.000 A 
ATOM     19  C   UNL     1       6.481   5.705  16.434  0.00  0.00    +0.000 A 
ATOM     20  C   UNL     1       5.497   6.738  16.247  0.00  0.00    +0.000 A 
ATOM     21  C   UNL     1       4.413   6.919  17.169  0.00  0.00    +0.000 A 
ATOM     22  N   UNL     1       3.373   7.886  17.034  0.00  0.00    +0.000 NA
ATOM     23  C   UNL     1       2.435   8.072  18.064  0.00  0.00    +0.000 A 
ENDROOT
BRANCH   1  25
ATOM     24  C   UNL     1      -4.773  11.775  16.776  0.00  0.00    +0.000 C 
ATOM     25  C   UNL     1      -3.944  11.860  18.139  0.00  0.00    +0.000 C 
ENDBRANCH   1  25
BRANCH   1  26
ATOM     26  O   UNL     1      -2.800  10.077  18.610  0.00  0.00    +0.000 OA
ATOM     27  H   UNL     1      -3.313   9.882  17.770  0.00  0.00    +0.000 HD
ENDBRANCH   1  26
BRANCH  18  28
ATOM     28  O   UNL     1       7.272   3.806  17.684  0.00  0.00    +0.000 OA
ATOM     29  H   UNL     1       8.025   3.670  17.088  0.00  0.00    +0.000 HD
ENDBRANCH  18  28
BRANCH  19  30
ATOM     30  O   UNL     1       7.501   5.559  15.555  0.00  0.00    +0.000 OA
ATOM     31  H   UNL     1       8.314   5.069  15.776  0.00  0.00    +0.000 HD
ENDBRANCH  19  30
TORSDOF 4
ENDMDL
MODEL 9
REMARK VINA RESULT:      -7.6      1.722      9.315
REMARK  Name = 
REMARK  5 active torsions:
REMARK  status: ('A' for Active; 'I' for Inactive)
REMARK    1  A    between atoms: C_1  and  C_2
REMARK    2  A    between atoms: C_2  and  C_3
REMARK    3  A    between atoms: C_3  and  O_4
REMARK    4  A    between atoms: C_21  and  O_22
REMARK    5  A    between atoms: C_23  and  O_24
REMARK                            x       y       z     vdW  Elec       q    Type
REMARK                         _______ _______ _______ _____ _____    ______ ____
ROOT
ATOM      1  C   UNL     1      -3.421  13.319  20.657  0.00  0.00    +0.000 C 
ATOM      2  C   UNL     1      -3.299  14.105  21.969  0.00  0.00    +0.000 C 
ATOM      3  O   UNL     1      -3.093  15.315  21.934  0.00  0.00    +0.000 OA
ATOM      4  O   UNL     1      -3.018  13.482  23.106  0.00  0.00    +0.000 OA
ATOM      5  C   UNL     1      -1.711  13.154  23.132  0.00  0.00    +0.000 C 
ATOM      6  C   UNL     1      -1.457  12.180  22.035  0.00  0.00    +0.000 A 
ATOM      7  C   UNL     1      -1.950  12.406  20.693  0.00  0.00    +0.000 A 
ATOM      8  C   UNL     1      -1.244  11.552  19.676  0.00  0.00    +0.000 A 
ATOM      9  C   UNL     1      -0.282  10.471  20.093  0.00  0.00    +0.000 A 
ATOM     10  N   UNL     1      -0.257  10.239  21.426  0.00  0.00    +0.000 N 
ATOM     11  C   UNL     1      -0.732  11.075  22.375  0.00  0.00    +0.000 A 
ATOM     12  O   UNL     1      -0.486  10.838  23.542  0.00  0.00    +0.000 OA
ATOM     13  C   UNL     1       0.372   9.006  21.825  0.00  0.00    +0.000 C 
ATOM     14  C   UNL     1       0.969   8.533  20.609  0.00  0.00    +0.000 A 
ATOM     15  C   UNL     1       1.729   7.391  20.592  0.00  0.00    +0.000 A 
ATOM     16  C   UNL     1       2.457   7.095  19.473  0.00  0.00    +0.000 A 
ATOM     17  C   UNL     1       3.256   5.932  19.480  0.00  0.00    +0.000 A 
ATOM     18  C   UNL     1       4.102   5.640  18.427  0.00  0.00    +0.000 A 
ATOM     19  C   UNL     1       4.198   6.552  17.361  0.00  0.00    +0.000 A 
ATOM     20  C   UNL     1       3.360   7.722  17.329  0.00  0.00    +0.000 A 
ATOM     21  C   UNL     1       2.421   8.003  18.376  0.00  0.00    +0.000 A 
ATOM     22  N   UNL     1       1.524   9.113  18.399  0.00  0.00    +0.000 NA
ATOM     23  C   UNL     1       0.742   9.372  19.537  0.00  0.00    +0.000 A 
ENDROOT
BRANCH   1  25
ATOM     24  C   UNL     1      -5.987  14.032  19.260  0.00  0.00    +0.000 C 
ATOM     25  C   UNL     1      -4.971  14.010  20.493  0.00  0.00    +0.000 C 
ENDBRANCH   1  25
BRANCH   1  26
ATOM     26  O   UNL     1      -4.055  12.061  20.760  0.00  0.00    +0.000 OA
ATOM     27  H   UNL     1      -4.995  12.182  20.432  0.00  0.00    +0.000 HD
ENDBRANCH   1  26
BRANCH  18  28
ATOM     28  O   UNL     1       4.835   4.497  18.439  0.00  0.00    +0.000 OA
ATOM     29  H   UNL     1       4.472   3.646  18.731  0.00  0.00    +0.000 HD
ENDBRANCH  18  28
BRANCH  19  30
ATOM     30  O   UNL     1       5.084   6.312  16.365  0.00  0.00    +0.000 OA
ATOM     31  H   UNL     1       5.861   6.879  16.210  0.00  0.00    +0.000 HD
ENDBRANCH  19  30
TORSDOF 4
ENDMDL
