MODEL 1
REMARK VINA RESULT:      -7.6      0.000      0.000
REMARK  Name = 
REMARK  5 active torsions:
REMARK  status: ('A' for Active; 'I' for Inactive)
REMARK    1  A    between atoms: N_6  and  C_7
REMARK    2  A    between atoms: C_9  and  C_10
REMARK    3  A    between atoms: C_10  and  O_11
REMARK    4  A    between atoms: C_12  and  O_13
REMARK    5  A    between atoms: C_17  and  C_18
REMARK                            x       y       z     vdW  Elec       q    Type
REMARK                         _______ _______ _______ _____ _____    ______ ____
ROOT
ATOM      1  O   UNL     1       7.694   5.877  15.587  0.00  0.00    +0.000 OA
ATOM      2  C   UNL     1       6.875   5.459  16.399  0.00  0.00    +0.000 A 
ATOM      3  N   UNL     1       7.003   5.763  17.726  0.00  0.00    +0.000 N 
ATOM      4  C   UNL     1       6.339   5.155  18.753  0.00  0.00    +0.000 A 
ATOM      5  O   UNL     1       6.640   5.389  19.922  0.00  0.00    +0.000 OA
ATOM      6  N   UNL     1       5.349   4.262  18.383  0.00  0.00    +0.000 N 
ATOM      7  C   UNL     1       5.031   4.050  17.054  0.00  0.00    +0.000 A 
ATOM      8  C   UNL     1       5.713   4.589  16.029  0.00  0.00    +0.000 A 
ATOM      9  H   UNL     1       7.788   6.341  17.978  0.00  0.00    +0.000 HD
ENDROOT
BRANCH   6  10
ATOM     10  C   UNL     1       4.640   3.578  19.459  0.00  0.00    +0.000 C 
ATOM     11  O   UNL     1       4.167   2.282  19.028  0.00  0.00    +0.000 OA
ATOM     12  C   UNL     1       2.777   2.149  19.398  0.00  0.00    +0.000 C 
ATOM     13  C   UNL     1       2.517   3.220  20.456  0.00  0.00    +0.000 C 
ATOM     14  C   UNL     1       3.451   4.341  20.048  0.00  0.00    +0.000 C 
ATOM     15  F   UNL     1       2.834   5.089  19.091  0.00  0.00    +0.000 F 
BRANCH  13  16
ATOM     16  O   UNL     1       2.842   2.740  21.766  0.00  0.00    +0.000 OA
ATOM     17  H   UNL     1       3.745   3.021  22.001  0.00  0.00    +0.000 HD
ENDBRANCH  13  16
BRANCH  12  18
ATOM     18  C   UNL     1       1.888   2.312  18.155  0.00  0.00    +0.000 C 
BRANCH  18  19
ATOM     19  O   UNL     1       0.506   2.333  18.509  0.00  0.00    +0.000 OA
ATOM     20  H   UNL     1       0.313   1.535  19.031  0.00  0.00    +0.000 HD
ENDBRANCH  18  19
ENDBRANCH  12  18
ENDBRANCH   6  10
BRANCH   8  21
ATOM     21  C   UNL     1       5.334   4.271  14.657  0.00  0.00    +0.000 C 
ATOM     22  C   UNL     1       6.084   3.669  13.721  0.00  0.00    +0.000 C 
ATOM     23  I   UNL     1       5.371   3.259  11.839  0.00  0.00    +0.000 I 
ENDBRANCH   8  21
TORSDOF 5
ENDMDL
MODEL 2
REMARK VINA RESULT:      -6.9      1.173      1.173
REMARK  Name = 
REMARK  5 active torsions:
REMARK  status: ('A' for Active; 'I' for Inactive)
REMARK    1  A    between atoms: N_6  and  C_7
REMARK    2  A    between atoms: C_9  and  C_10
REMARK    3  A    between atoms: C_10  and  O_11
REMARK    4  A    between atoms: C_12  and  O_13
REMARK    5  A    between atoms: C_17  and  C_18
REMARK                            x       y       z     vdW  Elec       q    Type
REMARK                         _______ _______ _______ _____ _____    ______ ____
ROOT
ATOM      1  O   UNL     1       7.964   5.424  15.111  0.00  0.00    +0.000 OA
ATOM      2  C   UNL     1       7.124   5.312  15.998  0.00  0.00    +0.000 A 
ATOM      3  N   UNL     1       7.417   5.698  17.277  0.00  0.00    +0.000 N 
ATOM      4  C   UNL     1       6.692   5.385  18.391  0.00  0.00    +0.000 A 
ATOM      5  O   UNL     1       7.124   5.643  19.514  0.00  0.00    +0.000 OA
ATOM      6  N   UNL     1       5.486   4.748  18.165  0.00  0.00    +0.000 N 
ATOM      7  C   UNL     1       5.033   4.499  16.882  0.00  0.00    +0.000 A 
ATOM      8  C   UNL     1       5.757   4.741  15.775  0.00  0.00    +0.000 A 
ATOM      9  H   UNL     1       8.338   6.074  17.431  0.00  0.00    +0.000 HD
ENDROOT
BRANCH   6  10
ATOM     10  C   UNL     1       4.703   4.376  19.339  0.00  0.00    +0.000 C 
ATOM     11  O   UNL     1       4.821   2.963  19.616  0.00  0.00    +0.000 OA
ATOM     12  C   UNL     1       3.499   2.417  19.817  0.00  0.00    +0.000 C 
ATOM     13  C   UNL     1       2.585   3.611  20.088  0.00  0.00    +0.000 C 
ATOM     14  C   UNL     1       3.212   4.718  19.265  0.00  0.00    +0.000 C 
ATOM     15  F   UNL     1       2.754   4.615  17.986  0.00  0.00    +0.000 F 
BRANCH  13  16
ATOM     16  O   UNL     1       2.582   3.953  21.480  0.00  0.00    +0.000 OA
ATOM     17  H   UNL     1       2.032   4.745  21.619  0.00  0.00    +0.000 HD
ENDBRANCH  13  16
BRANCH  12  18
ATOM     18  C   UNL     1       3.074   1.611  18.580  0.00  0.00    +0.000 C 
BRANCH  18  19
ATOM     19  O   UNL     1       4.081   0.671  18.206  0.00  0.00    +0.000 OA
ATOM     20  H   UNL     1       3.815  -0.206  18.533  0.00  0.00    +0.000 HD
ENDBRANCH  18  19
ENDBRANCH  12  18
ENDBRANCH   6  10
BRANCH   8  21
ATOM     21  C   UNL     1       5.216   4.403  14.464  0.00  0.00    +0.000 C 
ATOM     22  C   UNL     1       5.808   3.687  13.496  0.00  0.00    +0.000 C 
ATOM     23  I   UNL     1       4.878   3.268  11.714  0.00  0.00    +0.000 I 
ENDBRANCH   8  21
TORSDOF 5
ENDMDL
MODEL 3
REMARK VINA RESULT:      -6.8      3.306      6.247
REMARK  Name = 
REMARK  5 active torsions:
REMARK  status: ('A' for Active; 'I' for Inactive)
REMARK    1  A    between atoms: N_6  and  C_7
REMARK    2  A    between atoms: C_9  and  C_10
REMARK    3  A    between atoms: C_10  and  O_11
REMARK    4  A    between atoms: C_12  and  O_13
REMARK    5  A    between atoms: C_17  and  C_18
REMARK                            x       y       z     vdW  Elec       q    Type
REMARK                         _______ _______ _______ _____ _____    ______ ____
ROOT
ATOM      1  O   UNL     1       0.941   3.186  20.689  0.00  0.00    +0.000 OA
ATOM      2  C   UNL     1       1.786   3.548  19.876  0.00  0.00    +0.000 A 
ATOM      3  N   UNL     1       2.327   2.650  19.000  0.00  0.00    +0.000 N 
ATOM      4  C   UNL     1       3.447   2.847  18.243  0.00  0.00    +0.000 A 
ATOM      5  O   UNL     1       3.946   1.921  17.605  0.00  0.00    +0.000 OA
ATOM      6  N   UNL     1       3.975   4.125  18.273  0.00  0.00    +0.000 N 
ATOM      7  C   UNL     1       3.365   5.139  18.988  0.00  0.00    +0.000 A 
ATOM      8  C   UNL     1       2.300   4.952  19.787  0.00  0.00    +0.000 A 
ATOM      9  H   UNL     1       1.989   1.703  19.063  0.00  0.00    +0.000 HD
ENDROOT
BRANCH   6  10
ATOM     10  C   UNL     1       5.188   4.358  17.496  0.00  0.00    +0.000 C 
ATOM     11  O   UNL     1       6.368   4.032  18.264  0.00  0.00    +0.000 OA
ATOM     12  C   UNL     1       7.306   5.125  18.160  0.00  0.00    +0.000 C 
ATOM     13  C   UNL     1       6.862   5.951  16.954  0.00  0.00    +0.000 C 
ATOM     14  C   UNL     1       5.356   5.782  16.958  0.00  0.00    +0.000 C 
ATOM     15  F   UNL     1       4.823   6.692  17.820  0.00  0.00    +0.000 F 
BRANCH  13  16
ATOM     16  O   UNL     1       7.427   5.439  15.741  0.00  0.00    +0.000 OA
ATOM     17  H   UNL     1       8.239   4.941  15.946  0.00  0.00    +0.000 HD
ENDBRANCH  13  16
BRANCH  12  18
ATOM     18  C   UNL     1       7.312   5.934  19.466  0.00  0.00    +0.000 C 
BRANCH  18  19
ATOM     19  O   UNL     1       8.123   5.305  20.458  0.00  0.00    +0.000 OA
ATOM     20  H   UNL     1       8.735   5.970  20.818  0.00  0.00    +0.000 HD
ENDBRANCH  18  19
ENDBRANCH  12  18
ENDBRANCH   6  10
BRANCH   8  21
ATOM     21  C   UNL     1       1.751   6.074  20.541  0.00  0.00    +0.000 C 
ATOM     22  C   UNL     1       1.858   7.380  20.255  0.00  0.00    +0.000 C 
ATOM     23  I   UNL     1       0.980   8.833  21.410  0.00  0.00    +0.000 I 
ENDBRANCH   8  21
TORSDOF 5
ENDMDL
MODEL 4
REMARK VINA RESULT:      -6.8      3.394      6.310
REMARK  Name = 
REMARK  5 active torsions:
REMARK  status: ('A' for Active; 'I' for Inactive)
REMARK    1  A    between atoms: N_6  and  C_7
REMARK    2  A    between atoms: C_9  and  C_10
REMARK    3  A    between atoms: C_10  and  O_11
REMARK    4  A    between atoms: C_12  and  O_13
REMARK    5  A    between atoms: C_17  and  C_18
REMARK                            x       y       z     vdW  Elec       q    Type
REMARK                         _______ _______ _______ _____ _____    ______ ____
ROOT
ATOM      1  O   UNL     1       0.412   3.810  20.417  0.00  0.00    +0.000 OA
ATOM      2  C   UNL     1       1.496   4.008  19.878  0.00  0.00    +0.000 A 
ATOM      3  N   UNL     1       2.076   3.032  19.117  0.00  0.00    +0.000 N 
ATOM      4  C   UNL     1       3.375   3.013  18.694  0.00  0.00    +0.000 A 
ATOM      5  O   UNL     1       3.844   2.015  18.150  0.00  0.00    +0.000 OA
ATOM      6  N   UNL     1       4.104   4.161  18.944  0.00  0.00    +0.000 N 
ATOM      7  C   UNL     1       3.525   5.267  19.538  0.00  0.00    +0.000 A 
ATOM      8  C   UNL     1       2.269   5.284  20.018  0.00  0.00    +0.000 A 
ATOM      9  H   UNL     1       1.562   2.170  19.028  0.00  0.00    +0.000 HD
ENDROOT
BRANCH   6  10
ATOM     10  C   UNL     1       5.503   4.160  18.527  0.00  0.00    +0.000 C 
ATOM     11  O   UNL     1       6.217   5.276  19.104  0.00  0.00    +0.000 OA
ATOM     12  C   UNL     1       6.961   5.940  18.059  0.00  0.00    +0.000 C 
ATOM     13  C   UNL     1       7.036   4.951  16.898  0.00  0.00    +0.000 C 
ATOM     14  C   UNL     1       5.734   4.185  17.014  0.00  0.00    +0.000 C 
ATOM     15  F   UNL     1       4.758   4.899  16.386  0.00  0.00    +0.000 F 
BRANCH  13  16
ATOM     16  O   UNL     1       8.157   4.070  17.042  0.00  0.00    +0.000 OA
ATOM     17  H   UNL     1       8.029   3.506  17.826  0.00  0.00    +0.000 HD
ENDBRANCH  13  16
BRANCH  12  18
ATOM     18  C   UNL     1       6.262   7.255  17.677  0.00  0.00    +0.000 C 
BRANCH  18  19
ATOM     19  O   UNL     1       7.193   8.198  17.145  0.00  0.00    +0.000 OA
ATOM     20  H   UNL     1       6.980   9.074  17.510  0.00  0.00    +0.000 HD
ENDBRANCH  18  19
ENDBRANCH  12  18
ENDBRANCH   6  10
BRANCH   8  21
ATOM     21  C   UNL     1       1.757   6.482  20.673  0.00  0.00    +0.000 C 
ATOM     22  C   UNL     1       1.744   7.734  20.190  0.00  0.00    +0.000 C 
ATOM     23  I   UNL     1       0.940   9.307  21.238  0.00  0.00    +0.000 I 
ENDBRANCH   8  21
TORSDOF 5
ENDMDL
MODEL 5
REMARK VINA RESULT:      -6.6      1.256      1.302
REMARK  Name = 
REMARK  5 active torsions:
REMARK  status: ('A' for Active; 'I' for Inactive)
REMARK    1  A    between atoms: N_6  and  C_7
REMARK    2  A    between atoms: C_9  and  C_10
REMARK    3  A    between atoms: C_10  and  O_11
REMARK    4  A    between atoms: C_12  and  O_13
REMARK    5  A    between atoms: C_17  and  C_18
REMARK                            x       y       z     vdW  Elec       q    Type
REMARK                         _______ _______ _______ _____ _____    ______ ____
ROOT
ATOM      1  O   UNL     1       8.021   5.381  14.405  0.00  0.00    +0.000 OA
ATOM      2  C   UNL     1       7.174   5.322  15.291  0.00  0.00    +0.000 A 
ATOM      3  N   UNL     1       7.305   6.082  16.420  0.00  0.00    +0.000 N 
ATOM      4  C   UNL     1       6.601   5.919  17.579  0.00  0.00    +0.000 A 
ATOM      5  O   UNL     1       6.903   6.549  18.592  0.00  0.00    +0.000 OA
ATOM      6  N   UNL     1       5.572   4.995  17.532  0.00  0.00    +0.000 N 
ATOM      7  C   UNL     1       5.257   4.328  16.363  0.00  0.00    +0.000 A 
ATOM      8  C   UNL     1       5.974   4.427  15.230  0.00  0.00    +0.000 A 
ATOM      9  H   UNL     1       8.115   6.679  16.466  0.00  0.00    +0.000 HD
ENDROOT
BRANCH   6  10
ATOM     10  C   UNL     1       4.821   4.779  18.764  0.00  0.00    +0.000 C 
ATOM     11  O   UNL     1       4.686   3.369  19.050  0.00  0.00    +0.000 OA
ATOM     12  C   UNL     1       3.302   3.088  19.353  0.00  0.00    +0.000 C 
ATOM     13  C   UNL     1       2.656   4.435  19.674  0.00  0.00    +0.000 C 
ATOM     14  C   UNL     1       3.422   5.401  18.794  0.00  0.00    +0.000 C 
ATOM     15  F   UNL     1       2.860   5.390  17.553  0.00  0.00    +0.000 F 
BRANCH  13  16
ATOM     16  O   UNL     1       2.821   4.769  21.058  0.00  0.00    +0.000 OA
ATOM     17  H   UNL     1       3.600   5.345  21.163  0.00  0.00    +0.000 HD
ENDBRANCH  13  16
BRANCH  12  18
ATOM     18  C   UNL     1       2.641   2.380  18.160  0.00  0.00    +0.000 C 
BRANCH  18  19
ATOM     19  O   UNL     1       1.503   1.625  18.575  0.00  0.00    +0.000 OA
ATOM     20  H   UNL     1       1.497   0.786  18.082  0.00  0.00    +0.000 HD
ENDBRANCH  18  19
ENDBRANCH  12  18
ENDBRANCH   6  10
BRANCH   8  21
ATOM     21  C   UNL     1       5.593   3.649  14.058  0.00  0.00    +0.000 C 
ATOM     22  C   UNL     1       6.167   3.665  12.845  0.00  0.00    +0.000 C 
ATOM     23  I   UNL     1       5.522   2.464  11.310  0.00  0.00    +0.000 I 
ENDBRANCH   8  21
TORSDOF 5
ENDMDL
MODEL 6
REMARK VINA RESULT:      -6.5      3.312      6.052
REMARK  Name = 
REMARK  5 active torsions:
REMARK  status: ('A' for Active; 'I' for Inactive)
REMARK    1  A    between atoms: N_6  and  C_7
REMARK    2  A    between atoms: C_9  and  C_10
REMARK    3  A    between atoms: C_10  and  O_11
REMARK    4  A    between atoms: C_12  and  O_13
REMARK    5  A    between atoms: C_17  and  C_18
REMARK                            x       y       z     vdW  Elec       q    Type
REMARK                         _______ _______ _______ _____ _____    ______ ____
ROOT
ATOM      1  O   UNL     1       1.109   5.119  20.809  0.00  0.00    +0.000 OA
ATOM      2  C   UNL     1       1.955   5.043  19.925  0.00  0.00    +0.000 A 
ATOM      3  N   UNL     1       2.433   3.824  19.531  0.00  0.00    +0.000 N 
ATOM      4  C   UNL     1       3.547   3.610  18.770  0.00  0.00    +0.000 A 
ATOM      5  O   UNL     1       3.985   2.472  18.603  0.00  0.00    +0.000 OA
ATOM      6  N   UNL     1       4.141   4.742  18.242  0.00  0.00    +0.000 N 
ATOM      7  C   UNL     1       3.597   5.998  18.439  0.00  0.00    +0.000 A 
ATOM      8  C   UNL     1       2.540   6.237  19.235  0.00  0.00    +0.000 A 
ATOM      9  H   UNL     1       2.047   3.020  19.999  0.00  0.00    +0.000 HD
ENDROOT
BRANCH   6  10
ATOM     10  C   UNL     1       5.349   4.546  17.448  0.00  0.00    +0.000 C 
ATOM     11  O   UNL     1       6.467   4.176  18.285  0.00  0.00    +0.000 OA
ATOM     12  C   UNL     1       7.598   5.007  17.944  0.00  0.00    +0.000 C 
ATOM     13  C   UNL     1       7.283   5.608  16.575  0.00  0.00    +0.000 C 
ATOM     14  C   UNL     1       5.775   5.747  16.599  0.00  0.00    +0.000 C 
ATOM     15  F   UNL     1       5.460   6.917  17.222  0.00  0.00    +0.000 F 
BRANCH  13  16
ATOM     16  O   UNL     1       7.696   4.731  15.520  0.00  0.00    +0.000 OA
ATOM     17  H   UNL     1       8.666   4.639  15.534  0.00  0.00    +0.000 HD
ENDBRANCH  13  16
BRANCH  12  18
ATOM     18  C   UNL     1       7.806   6.075  19.029  0.00  0.00    +0.000 C 
BRANCH  18  19
ATOM     19  O   UNL     1       7.867   5.486  20.328  0.00  0.00    +0.000 OA
ATOM     20  H   UNL     1       7.569   6.147  20.976  0.00  0.00    +0.000 HD
ENDBRANCH  18  19
ENDBRANCH  12  18
ENDBRANCH   6  10
BRANCH   8  21
ATOM     21  C   UNL     1       2.064   7.603  19.420  0.00  0.00    +0.000 C 
ATOM     22  C   UNL     1       1.825   8.521  18.471  0.00  0.00    +0.000 C 
ATOM     23  I   UNL     1       1.113  10.396  18.910  0.00  0.00    +0.000 I 
ENDBRANCH   8  21
TORSDOF 5
ENDMDL
MODEL 7
REMARK VINA RESULT:      -6.4      4.182      5.266
REMARK  Name = 
REMARK  5 active torsions:
REMARK  status: ('A' for Active; 'I' for Inactive)
REMARK    1  A    between atoms: N_6  and  C_7
REMARK    2  A    between atoms: C_9  and  C_10
REMARK    3  A    between atoms: C_10  and  O_11
REMARK    4  A    between atoms: C_12  and  O_13
REMARK    5  A    between atoms: C_17  and  C_18
REMARK                            x       y       z     vdW  Elec       q    Type
REMARK                         _______ _______ _______ _____ _____    ______ ____
ROOT
ATOM      1  O   UNL     1       2.674   9.405  17.518  0.00  0.00    +0.000 OA
ATOM      2  C   UNL     1       2.905   8.247  17.853  0.00  0.00    +0.000 A 
ATOM      3  N   UNL     1       3.815   7.499  17.159  0.00  0.00    +0.000 N 
ATOM      4  C   UNL     1       3.969   6.144  17.246  0.00  0.00    +0.000 A 
ATOM      5  O   UNL     1       4.705   5.544  16.465  0.00  0.00    +0.000 OA
ATOM      6  N   UNL     1       3.230   5.519  18.234  0.00  0.00    +0.000 N 
ATOM      7  C   UNL     1       2.433   6.241  19.103  0.00  0.00    +0.000 A 
ATOM      8  C   UNL     1       2.219   7.564  18.995  0.00  0.00    +0.000 A 
ATOM      9  H   UNL     1       4.272   7.954  16.385  0.00  0.00    +0.000 HD
ENDROOT
BRANCH   6  10
ATOM     10  C   UNL     1       3.352   4.068  18.333  0.00  0.00    +0.000 C 
ATOM     11  O   UNL     1       2.199   3.493  18.986  0.00  0.00    +0.000 OA
ATOM     12  C   UNL     1       2.652   2.585  20.014  0.00  0.00    +0.000 C 
ATOM     13  C   UNL     1       4.115   2.279  19.693  0.00  0.00    +0.000 C 
ATOM     14  C   UNL     1       4.603   3.566  19.059  0.00  0.00    +0.000 C 
ATOM     15  F   UNL     1       4.965   4.425  20.052  0.00  0.00    +0.000 F 
BRANCH  13  16
ATOM     16  O   UNL     1       4.224   1.186  18.774  0.00  0.00    +0.000 OA
ATOM     17  H   UNL     1       3.384   1.083  18.290  0.00  0.00    +0.000 HD
ENDBRANCH  13  16
BRANCH  12  18
ATOM     18  C   UNL     1       2.468   3.228  21.397  0.00  0.00    +0.000 C 
BRANCH  18  19
ATOM     19  O   UNL     1       1.467   2.547  22.153  0.00  0.00    +0.000 OA
ATOM     20  H   UNL     1       0.700   3.138  22.246  0.00  0.00    +0.000 HD
ENDBRANCH  18  19
ENDBRANCH  12  18
ENDBRANCH   6  10
BRANCH   8  21
ATOM     21  C   UNL     1       1.324   8.234  19.931  0.00  0.00    +0.000 C 
ATOM     22  C   UNL     1       1.461   8.337  21.262  0.00  0.00    +0.000 C 
ATOM     23  I   UNL     1       0.116   9.360  22.428  0.00  0.00    +0.000 I 
ENDBRANCH   8  21
TORSDOF 5
ENDMDL
MODEL 8
REMARK VINA RESULT:      -6.4      2.896      3.655
REMARK  Name = 
REMARK  5 active torsions:
REMARK  status: ('A' for Active; 'I' for Inactive)
REMARK    1  A    between atoms: N_6  and  C_7
REMARK    2  A    between atoms: C_9  and  C_10
REMARK    3  A    between atoms: C_10  and  O_11
REMARK    4  A    between atoms: C_12  and  O_13
REMARK    5  A    between atoms: C_17  and  C_18
REMARK                            x       y       z     vdW  Elec       q    Type
REMARK                         _______ _______ _______ _____ _____    ______ ____
ROOT
ATOM      1  O   UNL     1       3.408   8.903  17.355  0.00  0.00    +0.000 OA
ATOM      2  C   UNL     1       3.064   7.907  17.984  0.00  0.00    +0.000 A 
ATOM      3  N   UNL     1       2.142   8.012  18.989  0.00  0.00    +0.000 N 
ATOM      4  C   UNL     1       1.875   7.059  19.930  0.00  0.00    +0.000 A 
ATOM      5  O   UNL     1       1.144   7.310  20.888  0.00  0.00    +0.000 OA
ATOM      6  N   UNL     1       2.496   5.838  19.742  0.00  0.00    +0.000 N 
ATOM      7  C   UNL     1       3.292   5.597  18.637  0.00  0.00    +0.000 A 
ATOM      8  C   UNL     1       3.618   6.538  17.734  0.00  0.00    +0.000 A 
ATOM      9  H   UNL     1       1.774   8.933  19.164  0.00  0.00    +0.000 HD
ENDROOT
BRANCH   6  10
ATOM     10  C   UNL     1       2.251   4.809  20.748  0.00  0.00    +0.000 C 
ATOM     11  O   UNL     1       3.445   4.035  21.001  0.00  0.00    +0.000 OA
ATOM     12  C   UNL     1       3.107   2.632  20.949  0.00  0.00    +0.000 C 
ATOM     13  C   UNL     1       1.588   2.557  21.089  0.00  0.00    +0.000 C 
ATOM     14  C   UNL     1       1.118   3.834  20.422  0.00  0.00    +0.000 C 
ATOM     15  F   UNL     1       1.038   3.614  19.080  0.00  0.00    +0.000 F 
BRANCH  13  16
ATOM     16  O   UNL     1       1.197   2.531  22.468  0.00  0.00    +0.000 OA
ATOM     17  H   UNL     1       0.599   1.777  22.622  0.00  0.00    +0.000 HD
ENDBRANCH  13  16
BRANCH  12  18
ATOM     18  C   UNL     1       3.614   2.021  19.633  0.00  0.00    +0.000 C 
BRANCH  18  19
ATOM     19  O   UNL     1       4.941   2.459  19.339  0.00  0.00    +0.000 OA
ATOM     20  H   UNL     1       4.931   2.896  18.471  0.00  0.00    +0.000 HD
ENDBRANCH  18  19
ENDBRANCH  12  18
ENDBRANCH   6  10
BRANCH   8  21
ATOM     21  C   UNL     1       4.502   6.204  16.624  0.00  0.00    +0.000 C 
ATOM     22  C   UNL     1       5.261   5.107  16.486  0.00  0.00    +0.000 C 
ATOM     23  I   UNL     1       6.424   4.777  14.826  0.00  0.00    +0.000 I 
ENDBRANCH   8  21
TORSDOF 5
ENDMDL
MODEL 9
REMARK VINA RESULT:      -6.3      4.624      5.590
REMARK  Name = 
REMARK  5 active torsions:
REMARK  status: ('A' for Active; 'I' for Inactive)
REMARK    1  A    between atoms: N_6  and  C_7
REMARK    2  A    between atoms: C_9  and  C_10
REMARK    3  A    between atoms: C_10  and  O_11
REMARK    4  A    between atoms: C_12  and  O_13
REMARK    5  A    between atoms: C_17  and  C_18
REMARK                            x       y       z     vdW  Elec       q    Type
REMARK                         _______ _______ _______ _____ _____    ______ ____
ROOT
ATOM      1  O   UNL     1       1.980   9.441  17.396  0.00  0.00    +0.000 OA
ATOM      2  C   UNL     1       2.308   8.515  18.130  0.00  0.00    +0.000 A 
ATOM      3  N   UNL     1       3.203   7.576  17.696  0.00  0.00    +0.000 N 
ATOM      4  C   UNL     1       3.445   6.369  18.287  0.00  0.00    +0.000 A 
ATOM      5  O   UNL     1       4.151   5.528  17.733  0.00  0.00    +0.000 OA
ATOM      6  N   UNL     1       2.830   6.165  19.509  0.00  0.00    +0.000 N 
ATOM      7  C   UNL     1       2.064   7.151  20.103  0.00  0.00    +0.000 A 
ATOM      8  C   UNL     1       1.762   8.319  19.511  0.00  0.00    +0.000 A 
ATOM      9  H   UNL     1       3.566   7.701  16.764  0.00  0.00    +0.000 HD
ENDROOT
BRANCH   6  10
ATOM     10  C   UNL     1       3.049   4.873  20.152  0.00  0.00    +0.000 C 
ATOM     11  O   UNL     1       3.206   3.824  19.171  0.00  0.00    +0.000 OA
ATOM     12  C   UNL     1       2.351   2.718  19.532  0.00  0.00    +0.000 C 
ATOM     13  C   UNL     1       1.984   2.930  21.000  0.00  0.00    +0.000 C 
ATOM     14  C   UNL     1       1.957   4.439  21.134  0.00  0.00    +0.000 C 
ATOM     15  F   UNL     1       0.736   4.885  20.729  0.00  0.00    +0.000 F 
BRANCH  13  16
ATOM     16  O   UNL     1       2.972   2.360  21.867  0.00  0.00    +0.000 OA
ATOM     17  H   UNL     1       3.138   2.965  22.612  0.00  0.00    +0.000 HD
ENDBRANCH  13  16
BRANCH  12  18
ATOM     18  C   UNL     1       1.122   2.685  18.610  0.00  0.00    +0.000 C 
BRANCH  18  19
ATOM     19  O   UNL     1       1.225   3.667  17.579  0.00  0.00    +0.000 OA
ATOM     20  H   UNL     1       0.954   3.257  16.740  0.00  0.00    +0.000 HD
ENDBRANCH  18  19
ENDBRANCH  12  18
ENDBRANCH   6  10
BRANCH   8  21
ATOM     21  C   UNL     1       0.906   9.282  20.195  0.00  0.00    +0.000 C 
ATOM     22  C   UNL     1       0.613   9.327  21.504  0.00  0.00    +0.000 C 
ATOM     23  I   UNL     1      -0.585  10.787  22.310  0.00  0.00    +0.000 I 
ENDBRANCH   8  21
TORSDOF 5
ENDMDL
