MODEL 1
REMARK VINA RESULT:      -7.7      0.000      0.000
REMARK  Name = 
REMARK  15 active torsions:
REMARK  status: ('A' for Active; 'I' for Inactive)
REMARK    1  A    between atoms: C_1  and  O_2
REMARK    2  A    between atoms: O_2  and  C_3
REMARK    3  A    between atoms: C_6  and  N_7
REMARK    4  A    between atoms: C_8  and  C_10
REMARK    5  A    between atoms: N_13  and  C_14
REMARK    6  A    between atoms: C_14  and  C_15
REMARK    7  A    between atoms: C_17  and  C_18
REMARK    8  A    between atoms: C_20  and  O_21
REMARK    9  A    between atoms: O_21  and  C_22
REMARK   10  A    between atoms: C_23  and  O_24
REMARK   11  A    between atoms: O_24  and  C_25
REMARK   12  A    between atoms: C_26  and  O_27
REMARK   13  A    between atoms: O_27  and  C_28
REMARK   14  A    between atoms: C_31  and  C_32
REMARK   15  A    between atoms: C_33  and  C_34
REMARK                            x       y       z     vdW  Elec       q    Type
REMARK                         _______ _______ _______ _____ _____    ______ ____
ROOT
ATOM      1  C   UNL     1       5.811   6.121  16.913  0.00  0.00    +0.000 C 
ENDROOT
BRANCH   1   5
ATOM      2  C   UNL     1       3.171   6.118  19.361  0.00  0.00    +0.000 A 
ATOM      3  N   UNL     1       3.871   4.966  19.629  0.00  0.00    +0.000 NA
ATOM      4  N   UNL     1       4.810   4.825  18.702  0.00  0.00    +0.000 NA
ATOM      5  N   UNL     1       4.727   5.877  17.857  0.00  0.00    +0.000 N 
ATOM      6  C   UNL     1       3.686   6.699  18.207  0.00  0.00    +0.000 A 
ATOM      7  C   UNL     1       3.302   7.943  17.499  0.00  0.00    +0.000 C 
BRANCH   2   9
ATOM      8  N   UNL     1       2.085   8.022  20.335  0.00  0.00    +0.000 N 
ATOM      9  C   UNL     1       2.087   6.636  20.199  0.00  0.00    +0.000 C 
ATOM     10  O   UNL     1       1.267   5.874  20.693  0.00  0.00    +0.000 OA
ATOM     11  H   UNL     1       2.834   8.505  19.847  0.00  0.00    +0.000 HD
BRANCH   8  15
ATOM     12  C   UNL     1      -0.710  10.440  22.389  0.00  0.00    +0.000 A 
ATOM     13  C   UNL     1      -0.029   9.440  23.074  0.00  0.00    +0.000 A 
ATOM     14  C   UNL     1       0.902   8.634  22.414  0.00  0.00    +0.000 A 
ATOM     15  C   UNL     1       1.155   8.801  21.052  0.00  0.00    +0.000 A 
ATOM     16  C   UNL     1       0.445   9.792  20.360  0.00  0.00    +0.000 A 
ATOM     17  C   UNL     1      -0.484  10.609  21.027  0.00  0.00    +0.000 A 
BRANCH  12  19
ATOM     18  C   UNL     1      -2.249  12.227  22.480  0.00  0.00    +0.000 C 
ATOM     19  O   UNL     1      -1.593  11.155  23.145  0.00  0.00    +0.000 OA
ENDBRANCH  12  19
ENDBRANCH   8  15
ENDBRANCH   2   9
ENDBRANCH   1   5
BRANCH   1  20
ATOM     20  C   UNL     1       6.871   7.018  17.445  0.00  0.00    +0.000 A 
ATOM     21  N   UNL     1       6.989   8.333  17.018  0.00  0.00    +0.000 NA
ATOM     22  C   UNL     1       7.939   8.845  17.781  0.00  0.00    +0.000 A 
ATOM     23  O   UNL     1       8.476   7.949  18.669  0.00  0.00    +0.000 OA
ATOM     24  C   UNL     1       7.796   6.786  18.441  0.00  0.00    +0.000 A 
ATOM     25  C   UNL     1       8.154   5.618  19.265  0.00  0.00    +0.000 C 
BRANCH  22  26
ATOM     26  C   UNL     1       8.519  10.187  17.787  0.00  0.00    +0.000 A 
ATOM     27  C   UNL     1       7.750  11.312  17.467  0.00  0.00    +0.000 A 
ATOM     28  C   UNL     1       8.297  12.602  17.526  0.00  0.00    +0.000 A 
ATOM     29  C   UNL     1       9.648  12.782  17.896  0.00  0.00    +0.000 A 
ATOM     30  C   UNL     1      10.439  11.653  18.179  0.00  0.00    +0.000 A 
ATOM     31  C   UNL     1       9.865  10.371  18.129  0.00  0.00    +0.000 A 
BRANCH  28  32
ATOM     32  O   UNL     1       7.578  13.734  17.219  0.00  0.00    +0.000 OA
ATOM     33  C   UNL     1       6.700  14.220  18.229  0.00  0.00    +0.000 C 
ENDBRANCH  28  32
BRANCH  29  34
ATOM     34  O   UNL     1      10.101  14.083  17.859  0.00  0.00    +0.000 OA
ATOM     35  C   UNL     1      10.212  14.778  19.095  0.00  0.00    +0.000 C 
ENDBRANCH  29  34
BRANCH  30  36
ATOM     36  O   UNL     1      11.749  11.844  18.538  0.00  0.00    +0.000 OA
ATOM     37  C   UNL     1      12.050  11.787  19.926  0.00  0.00    +0.000 C 
ENDBRANCH  30  36
ENDBRANCH  22  26
ENDBRANCH   1  20
TORSDOF 9
ENDMDL
MODEL 2
REMARK VINA RESULT:      -7.6      3.595      9.688
REMARK  Name = 
REMARK  15 active torsions:
REMARK  status: ('A' for Active; 'I' for Inactive)
REMARK    1  A    between atoms: C_1  and  O_2
REMARK    2  A    between atoms: O_2  and  C_3
REMARK    3  A    between atoms: C_6  and  N_7
REMARK    4  A    between atoms: C_8  and  C_10
REMARK    5  A    between atoms: N_13  and  C_14
REMARK    6  A    between atoms: C_14  and  C_15
REMARK    7  A    between atoms: C_17  and  C_18
REMARK    8  A    between atoms: C_20  and  O_21
REMARK    9  A    between atoms: O_21  and  C_22
REMARK   10  A    between atoms: C_23  and  O_24
REMARK   11  A    between atoms: O_24  and  C_25
REMARK   12  A    between atoms: C_26  and  O_27
REMARK   13  A    between atoms: O_27  and  C_28
REMARK   14  A    between atoms: C_31  and  C_32
REMARK   15  A    between atoms: C_33  and  C_34
REMARK                            x       y       z     vdW  Elec       q    Type
REMARK                         _______ _______ _______ _____ _____    ______ ____
ROOT
ATOM      1  C   UNL     1      -0.108  12.016  20.143  0.00  0.00    +0.000 C 
ENDROOT
BRANCH   1   5
ATOM      2  C   UNL     1       2.855  13.957  20.791  0.00  0.00    +0.000 A 
ATOM      3  N   UNL     1       2.074  14.166  21.902  0.00  0.00    +0.000 NA
ATOM      4  N   UNL     1       0.904  13.570  21.707  0.00  0.00    +0.000 NA
ATOM      5  N   UNL     1       0.936  12.972  20.495  0.00  0.00    +0.000 N 
ATOM      6  C   UNL     1       2.128  13.220  19.863  0.00  0.00    +0.000 A 
ATOM      7  C   UNL     1       2.504  12.723  18.518  0.00  0.00    +0.000 C 
BRANCH   2   9
ATOM      8  N   UNL     1       4.535  14.976  19.417  0.00  0.00    +0.000 N 
ATOM      9  C   UNL     1       4.238  14.421  20.659  0.00  0.00    +0.000 C 
ATOM     10  O   UNL     1       5.016  14.327  21.598  0.00  0.00    +0.000 OA
ATOM     11  H   UNL     1       3.767  14.987  18.752  0.00  0.00    +0.000 HD
BRANCH   8  15
ATOM     12  C   UNL     1       8.192  16.745  18.238  0.00  0.00    +0.000 A 
ATOM     13  C   UNL     1       7.865  15.471  17.787  0.00  0.00    +0.000 A 
ATOM     14  C   UNL     1       6.660  14.871  18.162  0.00  0.00    +0.000 A 
ATOM     15  C   UNL     1       5.766  15.528  19.009  0.00  0.00    +0.000 A 
ATOM     16  C   UNL     1       6.113  16.801  19.484  0.00  0.00    +0.000 A 
ATOM     17  C   UNL     1       7.321  17.408  19.097  0.00  0.00    +0.000 A 
BRANCH  12  19
ATOM     18  C   UNL     1      10.380  16.230  17.521  0.00  0.00    +0.000 C 
ATOM     19  O   UNL     1       9.396  17.217  17.803  0.00  0.00    +0.000 OA
ENDBRANCH  12  19
ENDBRANCH   8  15
ENDBRANCH   2   9
ENDBRANCH   1   5
BRANCH   1  20
ATOM     20  C   UNL     1       0.224  10.614  20.510  0.00  0.00    +0.000 A 
ATOM     21  N   UNL     1       0.902   9.777  19.636  0.00  0.00    +0.000 NA
ATOM     22  C   UNL     1       1.123   8.677  20.335  0.00  0.00    +0.000 A 
ATOM     23  O   UNL     1       0.616   8.721  21.608  0.00  0.00    +0.000 OA
ATOM     24  C   UNL     1       0.037   9.955  21.707  0.00  0.00    +0.000 A 
ATOM     25  C   UNL     1      -0.600  10.304  22.990  0.00  0.00    +0.000 C 
BRANCH  22  26
ATOM     26  C   UNL     1       1.779   7.430  19.944  0.00  0.00    +0.000 A 
ATOM     27  C   UNL     1       2.488   7.329  18.741  0.00  0.00    +0.000 A 
ATOM     28  C   UNL     1       3.160   6.148  18.395  0.00  0.00    +0.000 A 
ATOM     29  C   UNL     1       3.114   5.029  19.256  0.00  0.00    +0.000 A 
ATOM     30  C   UNL     1       2.369   5.110  20.449  0.00  0.00    +0.000 A 
ATOM     31  C   UNL     1       1.717   6.309  20.782  0.00  0.00    +0.000 A 
BRANCH  28  32
ATOM     32  O   UNL     1       3.866   6.004  17.223  0.00  0.00    +0.000 OA
ATOM     33  C   UNL     1       4.939   6.917  17.016  0.00  0.00    +0.000 C 
ENDBRANCH  28  32
BRANCH  29  34
ATOM     34  O   UNL     1       3.753   3.900  18.791  0.00  0.00    +0.000 OA
ATOM     35  C   UNL     1       5.043   3.610  19.314  0.00  0.00    +0.000 C 
ENDBRANCH  29  34
BRANCH  30  36
ATOM     36  O   UNL     1       2.336   4.016  21.275  0.00  0.00    +0.000 OA
ATOM     37  C   UNL     1       1.272   3.094  21.078  0.00  0.00    +0.000 C 
ENDBRANCH  30  36
ENDBRANCH  22  26
ENDBRANCH   1  20
TORSDOF 9
ENDMDL
MODEL 3
REMARK VINA RESULT:      -7.3      3.670      9.604
REMARK  Name = 
REMARK  15 active torsions:
REMARK  status: ('A' for Active; 'I' for Inactive)
REMARK    1  A    between atoms: C_1  and  O_2
REMARK    2  A    between atoms: O_2  and  C_3
REMARK    3  A    between atoms: C_6  and  N_7
REMARK    4  A    between atoms: C_8  and  C_10
REMARK    5  A    between atoms: N_13  and  C_14
REMARK    6  A    between atoms: C_14  and  C_15
REMARK    7  A    between atoms: C_17  and  C_18
REMARK    8  A    between atoms: C_20  and  O_21
REMARK    9  A    between atoms: O_21  and  C_22
REMARK   10  A    between atoms: C_23  and  O_24
REMARK   11  A    between atoms: O_24  and  C_25
REMARK   12  A    between atoms: C_26  and  O_27
REMARK   13  A    between atoms: O_27  and  C_28
REMARK   14  A    between atoms: C_31  and  C_32
REMARK   15  A    between atoms: C_33  and  C_34
REMARK                            x       y       z     vdW  Elec       q    Type
REMARK                         _______ _______ _______ _____ _____    ______ ____
ROOT
ATOM      1  C   UNL     1      -0.167  11.341  20.207  0.00  0.00    +0.000 C 
ENDROOT
BRANCH   1   5
ATOM      2  C   UNL     1       2.443  13.798  19.873  0.00  0.00    +0.000 A 
ATOM      3  N   UNL     1       2.647  13.268  21.123  0.00  0.00    +0.000 NA
ATOM      4  N   UNL     1       1.661  12.419  21.382  0.00  0.00    +0.000 NA
ATOM      5  N   UNL     1       0.840  12.390  20.308  0.00  0.00    +0.000 N 
ATOM      6  C   UNL     1       1.268  13.271  19.347  0.00  0.00    +0.000 A 
ATOM      7  C   UNL     1       0.606  13.502  18.041  0.00  0.00    +0.000 C 
BRANCH   2   9
ATOM      8  N   UNL     1       4.629  14.781  19.781  0.00  0.00    +0.000 N 
ATOM      9  C   UNL     1       3.356  14.738  19.217  0.00  0.00    +0.000 C 
ATOM     10  O   UNL     1       2.988  15.386  18.247  0.00  0.00    +0.000 OA
ATOM     11  H   UNL     1       4.770  14.166  20.578  0.00  0.00    +0.000 HD
BRANCH   8  15
ATOM     12  C   UNL     1       7.953  17.024  18.438  0.00  0.00    +0.000 A 
ATOM     13  C   UNL     1       7.063  17.586  19.346  0.00  0.00    +0.000 A 
ATOM     14  C   UNL     1       5.961  16.860  19.805  0.00  0.00    +0.000 A 
ATOM     15  C   UNL     1       5.720  15.563  19.350  0.00  0.00    +0.000 A 
ATOM     16  C   UNL     1       6.604  15.010  18.413  0.00  0.00    +0.000 A 
ATOM     17  C   UNL     1       7.718  15.738  17.960  0.00  0.00    +0.000 A 
BRANCH  12  19
ATOM     18  C   UNL     1       9.650  18.512  19.125  0.00  0.00    +0.000 C 
ATOM     19  O   UNL     1       8.985  17.836  18.066  0.00  0.00    +0.000 OA
ENDBRANCH  12  19
ENDBRANCH   8  15
ENDBRANCH   2   9
ENDBRANCH   1   5
BRANCH   1  20
ATOM     20  C   UNL     1       0.348   9.989  20.550  0.00  0.00    +0.000 A 
ATOM     21  N   UNL     1       0.972   9.190  19.603  0.00  0.00    +0.000 NA
ATOM     22  C   UNL     1       1.397   8.140  20.283  0.00  0.00    +0.000 A 
ATOM     23  O   UNL     1       1.075   8.179  21.616  0.00  0.00    +0.000 OA
ATOM     24  C   UNL     1       0.399   9.355  21.774  0.00  0.00    +0.000 A 
ATOM     25  C   UNL     1      -0.079   9.686  23.128  0.00  0.00    +0.000 C 
BRANCH  22  26
ATOM     26  C   UNL     1       2.109   6.948  19.826  0.00  0.00    +0.000 A 
ATOM     27  C   UNL     1       2.869   6.962  18.650  0.00  0.00    +0.000 A 
ATOM     28  C   UNL     1       3.593   5.832  18.243  0.00  0.00    +0.000 A 
ATOM     29  C   UNL     1       3.549   4.648  19.012  0.00  0.00    +0.000 A 
ATOM     30  C   UNL     1       2.753   4.613  20.174  0.00  0.00    +0.000 A 
ATOM     31  C   UNL     1       2.050   5.763  20.571  0.00  0.00    +0.000 A 
BRANCH  28  32
ATOM     32  O   UNL     1       4.351   5.803  17.096  0.00  0.00    +0.000 OA
ATOM     33  C   UNL     1       5.337   6.822  16.962  0.00  0.00    +0.000 C 
ENDBRANCH  28  32
BRANCH  29  34
ATOM     34  O   UNL     1       4.243   3.579  18.489  0.00  0.00    +0.000 OA
ATOM     35  C   UNL     1       3.490   2.536  17.885  0.00  0.00    +0.000 C 
ENDBRANCH  29  34
BRANCH  30  36
ATOM     36  O   UNL     1       2.722   3.457  20.910  0.00  0.00    +0.000 OA
ATOM     37  C   UNL     1       1.440   2.957  21.267  0.00  0.00    +0.000 C 
ENDBRANCH  30  36
ENDBRANCH  22  26
ENDBRANCH   1  20
TORSDOF 9
ENDMDL
MODEL 4
REMARK VINA RESULT:      -7.2      3.814      8.543
REMARK  Name = 
REMARK  15 active torsions:
REMARK  status: ('A' for Active; 'I' for Inactive)
REMARK    1  A    between atoms: C_1  and  O_2
REMARK    2  A    between atoms: O_2  and  C_3
REMARK    3  A    between atoms: C_6  and  N_7
REMARK    4  A    between atoms: C_8  and  C_10
REMARK    5  A    between atoms: N_13  and  C_14
REMARK    6  A    between atoms: C_14  and  C_15
REMARK    7  A    between atoms: C_17  and  C_18
REMARK    8  A    between atoms: C_20  and  O_21
REMARK    9  A    between atoms: O_21  and  C_22
REMARK   10  A    between atoms: C_23  and  O_24
REMARK   11  A    between atoms: O_24  and  C_25
REMARK   12  A    between atoms: C_26  and  O_27
REMARK   13  A    between atoms: O_27  and  C_28
REMARK   14  A    between atoms: C_31  and  C_32
REMARK   15  A    between atoms: C_33  and  C_34
REMARK                            x       y       z     vdW  Elec       q    Type
REMARK                         _______ _______ _______ _____ _____    ______ ____
ROOT
ATOM      1  C   UNL     1       0.123  10.818  19.008  0.00  0.00    +0.000 C 
ENDROOT
BRANCH   1   5
ATOM      2  C   UNL     1       2.108  13.409  20.526  0.00  0.00    +0.000 A 
ATOM      3  N   UNL     1       1.143  13.140  21.466  0.00  0.00    +0.000 NA
ATOM      4  N   UNL     1       0.292  12.263  20.949  0.00  0.00    +0.000 NA
ATOM      5  N   UNL     1       0.710  11.959  19.700  0.00  0.00    +0.000 N 
ATOM      6  C   UNL     1       1.828  12.684  19.373  0.00  0.00    +0.000 A 
ATOM      7  C   UNL     1       2.552  12.606  18.083  0.00  0.00    +0.000 C 
BRANCH   2   9
ATOM      8  N   UNL     1       4.091  13.888  21.788  0.00  0.00    +0.000 N 
ATOM      9  C   UNL     1       3.254  14.294  20.753  0.00  0.00    +0.000 C 
ATOM     10  O   UNL     1       3.424  15.280  20.048  0.00  0.00    +0.000 OA
ATOM     11  H   UNL     1       3.808  13.036  22.265  0.00  0.00    +0.000 HD
BRANCH   8  15
ATOM     12  C   UNL     1       7.583  15.841  23.158  0.00  0.00    +0.000 A 
ATOM     13  C   UNL     1       7.605  15.158  21.947  0.00  0.00    +0.000 A 
ATOM     14  C   UNL     1       6.460  14.511  21.475  0.00  0.00    +0.000 A 
ATOM     15  C   UNL     1       5.277  14.519  22.215  0.00  0.00    +0.000 A 
ATOM     16  C   UNL     1       5.269  15.184  23.449  0.00  0.00    +0.000 A 
ATOM     17  C   UNL     1       6.417  15.844  23.918  0.00  0.00    +0.000 A 
BRANCH  12  19
ATOM     18  C   UNL     1       8.847  16.898  24.847  0.00  0.00    +0.000 C 
ATOM     19  O   UNL     1       8.764  16.428  23.508  0.00  0.00    +0.000 OA
ENDBRANCH  12  19
ENDBRANCH   8  15
ENDBRANCH   2   9
ENDBRANCH   1   5
BRANCH   1  20
ATOM     20  C   UNL     1       0.887   9.555  19.192  0.00  0.00    +0.000 A 
ATOM     21  N   UNL     1       1.588   8.974  18.146  0.00  0.00    +0.000 NA
ATOM     22  C   UNL     1       2.229   7.959  18.699  0.00  0.00    +0.000 A 
ATOM     23  O   UNL     1       1.979   7.815  20.040  0.00  0.00    +0.000 OA
ATOM     24  C   UNL     1       1.116   8.830  20.342  0.00  0.00    +0.000 A 
ATOM     25  C   UNL     1       0.663   8.940  21.740  0.00  0.00    +0.000 C 
BRANCH  22  26
ATOM     26  C   UNL     1       3.112   6.963  18.096  0.00  0.00    +0.000 A 
ATOM     27  C   UNL     1       2.726   5.622  17.986  0.00  0.00    +0.000 A 
ATOM     28  C   UNL     1       3.554   4.680  17.359  0.00  0.00    +0.000 A 
ATOM     29  C   UNL     1       4.808   5.073  16.841  0.00  0.00    +0.000 A 
ATOM     30  C   UNL     1       5.222   6.411  16.985  0.00  0.00    +0.000 A 
ATOM     31  C   UNL     1       4.368   7.341  17.603  0.00  0.00    +0.000 A 
BRANCH  28  32
ATOM     32  O   UNL     1       3.214   3.353  17.230  0.00  0.00    +0.000 OA
ATOM     33  C   UNL     1       3.120   2.605  18.438  0.00  0.00    +0.000 C 
ENDBRANCH  28  32
BRANCH  29  34
ATOM     34  O   UNL     1       5.569   4.057  16.304  0.00  0.00    +0.000 OA
ATOM     35  C   UNL     1       5.747   4.042  14.894  0.00  0.00    +0.000 C 
ENDBRANCH  29  34
BRANCH  30  36
ATOM     36  O   UNL     1       6.441   6.778  16.476  0.00  0.00    +0.000 OA
ATOM     37  C   UNL     1       7.451   7.126  17.415  0.00  0.00    +0.000 C 
ENDBRANCH  30  36
ENDBRANCH  22  26
ENDBRANCH   1  20
TORSDOF 9
ENDMDL
MODEL 5
REMARK VINA RESULT:      -7.1      3.581      9.296
REMARK  Name = 
REMARK  15 active torsions:
REMARK  status: ('A' for Active; 'I' for Inactive)
REMARK    1  A    between atoms: C_1  and  O_2
REMARK    2  A    between atoms: O_2  and  C_3
REMARK    3  A    between atoms: C_6  and  N_7
REMARK    4  A    between atoms: C_8  and  C_10
REMARK    5  A    between atoms: N_13  and  C_14
REMARK    6  A    between atoms: C_14  and  C_15
REMARK    7  A    between atoms: C_17  and  C_18
REMARK    8  A    between atoms: C_20  and  O_21
REMARK    9  A    between atoms: O_21  and  C_22
REMARK   10  A    between atoms: C_23  and  O_24
REMARK   11  A    between atoms: O_24  and  C_25
REMARK   12  A    between atoms: C_26  and  O_27
REMARK   13  A    between atoms: O_27  and  C_28
REMARK   14  A    between atoms: C_31  and  C_32
REMARK   15  A    between atoms: C_33  and  C_34
REMARK                            x       y       z     vdW  Elec       q    Type
REMARK                         _______ _______ _______ _____ _____    ______ ____
ROOT
ATOM      1  C   UNL     1      -0.640  11.284  20.192  0.00  0.00    +0.000 C 
ENDROOT
BRANCH   1   5
ATOM      2  C   UNL     1       1.677  13.991  20.706  0.00  0.00    +0.000 A 
ATOM      3  N   UNL     1       1.133  13.783  21.950  0.00  0.00    +0.000 NA
ATOM      4  N   UNL     1       0.181  12.865  21.839  0.00  0.00    +0.000 NA
ATOM      5  N   UNL     1       0.123  12.476  20.545  0.00  0.00    +0.000 N 
ATOM      6  C   UNL     1       1.018  13.184  19.785  0.00  0.00    +0.000 A 
ATOM      7  C   UNL     1       1.221  13.020  18.326  0.00  0.00    +0.000 C 
BRANCH   2   9
ATOM      8  N   UNL     1       4.028  14.263  20.318  0.00  0.00    +0.000 N 
ATOM      9  C   UNL     1       2.796  14.900  20.439  0.00  0.00    +0.000 C 
ATOM     10  O   UNL     1       2.603  16.102  20.318  0.00  0.00    +0.000 OA
ATOM     11  H   UNL     1       4.008  13.254  20.436  0.00  0.00    +0.000 HD
BRANCH   8  15
ATOM     12  C   UNL     1       7.776  16.085  19.594  0.00  0.00    +0.000 A 
ATOM     13  C   UNL     1       6.850  15.980  18.563  0.00  0.00    +0.000 A 
ATOM     14  C   UNL     1       5.604  15.386  18.783  0.00  0.00    +0.000 A 
ATOM     15  C   UNL     1       5.270  14.869  20.036  0.00  0.00    +0.000 A 
ATOM     16  C   UNL     1       6.218  14.952  21.065  0.00  0.00    +0.000 A 
ATOM     17  C   UNL     1       7.466  15.560  20.845  0.00  0.00    +0.000 A 
BRANCH  12  19
ATOM     18  C   UNL     1       9.905  16.820  20.298  0.00  0.00    +0.000 C 
ATOM     19  O   UNL     1       8.954  16.683  19.250  0.00  0.00    +0.000 OA
ENDBRANCH  12  19
ENDBRANCH   8  15
ENDBRANCH   2   9
ENDBRANCH   1   5
BRANCH   1  20
ATOM     20  C   UNL     1       0.067  10.014  20.505  0.00  0.00    +0.000 A 
ATOM     21  N   UNL     1       0.747   9.303  19.528  0.00  0.00    +0.000 NA
ATOM     22  C   UNL     1       1.340   8.321  20.183  0.00  0.00    +0.000 A 
ATOM     23  O   UNL     1       1.078   8.320  21.529  0.00  0.00    +0.000 OA
ATOM     24  C   UNL     1       0.259   9.395  21.724  0.00  0.00    +0.000 A 
ATOM     25  C   UNL     1      -0.196   9.662  23.099  0.00  0.00    +0.000 C 
BRANCH  22  26
ATOM     26  C   UNL     1       2.182   7.233  19.689  0.00  0.00    +0.000 A 
ATOM     27  C   UNL     1       2.211   5.988  20.330  0.00  0.00    +0.000 A 
ATOM     28  C   UNL     1       2.979   4.931  19.822  0.00  0.00    +0.000 A 
ATOM     29  C   UNL     1       3.754   5.115  18.655  0.00  0.00    +0.000 A 
ATOM     30  C   UNL     1       3.762   6.376  18.028  0.00  0.00    +0.000 A 
ATOM     31  C   UNL     1       2.972   7.416  18.546  0.00  0.00    +0.000 A 
BRANCH  28  32
ATOM     32  O   UNL     1       3.038   3.694  20.421  0.00  0.00    +0.000 OA
ATOM     33  C   UNL     1       2.207   3.503  21.562  0.00  0.00    +0.000 C 
ENDBRANCH  28  32
BRANCH  29  34
ATOM     34  O   UNL     1       4.520   4.033  18.279  0.00  0.00    +0.000 OA
ATOM     35  C   UNL     1       4.073   3.261  17.172  0.00  0.00    +0.000 C 
ENDBRANCH  29  34
BRANCH  30  36
ATOM     36  O   UNL     1       4.518   6.539  16.896  0.00  0.00    +0.000 OA
ATOM     37  C   UNL     1       5.851   7.000  17.074  0.00  0.00    +0.000 C 
ENDBRANCH  30  36
ENDBRANCH  22  26
ENDBRANCH   1  20
TORSDOF 9
ENDMDL
MODEL 6
REMARK VINA RESULT:      -6.9      1.828      8.585
REMARK  Name = 
REMARK  15 active torsions:
REMARK  status: ('A' for Active; 'I' for Inactive)
REMARK    1  A    between atoms: C_1  and  O_2
REMARK    2  A    between atoms: O_2  and  C_3
REMARK    3  A    between atoms: C_6  and  N_7
REMARK    4  A    between atoms: C_8  and  C_10
REMARK    5  A    between atoms: N_13  and  C_14
REMARK    6  A    between atoms: C_14  and  C_15
REMARK    7  A    between atoms: C_17  and  C_18
REMARK    8  A    between atoms: C_20  and  O_21
REMARK    9  A    between atoms: O_21  and  C_22
REMARK   10  A    between atoms: C_23  and  O_24
REMARK   11  A    between atoms: O_24  and  C_25
REMARK   12  A    between atoms: C_26  and  O_27
REMARK   13  A    between atoms: O_27  and  C_28
REMARK   14  A    between atoms: C_31  and  C_32
REMARK   15  A    between atoms: C_33  and  C_34
REMARK                            x       y       z     vdW  Elec       q    Type
REMARK                         _______ _______ _______ _____ _____    ______ ____
ROOT
ATOM      1  C   UNL     1       4.808   4.139  18.811  0.00  0.00    +0.000 C 
ENDROOT
BRANCH   1   5
ATOM      2  C   UNL     1       6.869   6.676  17.302  0.00  0.00    +0.000 A 
ATOM      3  N   UNL     1       5.941   6.385  16.332  0.00  0.00    +0.000 NA
ATOM      4  N   UNL     1       5.193   5.376  16.760  0.00  0.00    +0.000 NA
ATOM      5  N   UNL     1       5.624   5.030  17.995  0.00  0.00    +0.000 N 
ATOM      6  C   UNL     1       6.702   5.793  18.364  0.00  0.00    +0.000 A 
ATOM      7  C   UNL     1       7.429   5.682  19.650  0.00  0.00    +0.000 C 
BRANCH   2   9
ATOM      8  N   UNL     1       7.583   8.831  18.076  0.00  0.00    +0.000 N 
ATOM      9  C   UNL     1       7.839   7.770  17.212  0.00  0.00    +0.000 C 
ATOM     10  O   UNL     1       8.788   7.696  16.442  0.00  0.00    +0.000 OA
ATOM     11  H   UNL     1       6.756   8.725  18.658  0.00  0.00    +0.000 HD
BRANCH   8  15
ATOM     12  C   UNL     1       9.938  12.296  18.652  0.00  0.00    +0.000 A 
ATOM     13  C   UNL     1       8.945  12.291  17.679  0.00  0.00    +0.000 A 
ATOM     14  C   UNL     1       8.153  11.158  17.477  0.00  0.00    +0.000 A 
ATOM     15  C   UNL     1       8.353  10.001  18.232  0.00  0.00    +0.000 A 
ATOM     16  C   UNL     1       9.374  10.002  19.192  0.00  0.00    +0.000 A 
ATOM     17  C   UNL     1      10.163  11.146  19.402  0.00  0.00    +0.000 A 
BRANCH  12  19
ATOM     18  C   UNL     1      11.760  13.435  19.627  0.00  0.00    +0.000 C 
ATOM     19  O   UNL     1      10.642  13.461  18.748  0.00  0.00    +0.000 OA
ENDBRANCH  12  19
ENDBRANCH   8  15
ENDBRANCH   2   9
ENDBRANCH   1   5
BRANCH   1  20
ATOM     20  C   UNL     1       3.698   4.832  19.517  0.00  0.00    +0.000 A 
ATOM     21  N   UNL     1       3.412   6.169  19.282  0.00  0.00    +0.000 NA
ATOM     22  C   UNL     1       2.312   6.400  19.977  0.00  0.00    +0.000 A 
ATOM     23  O   UNL     1       1.862   5.310  20.676  0.00  0.00    +0.000 OA
ATOM     24  C   UNL     1       2.756   4.319  20.385  0.00  0.00    +0.000 A 
ATOM     25  C   UNL     1       2.529   2.998  20.998  0.00  0.00    +0.000 C 
BRANCH  22  26
ATOM     26  C   UNL     1       1.544   7.633  20.140  0.00  0.00    +0.000 A 
ATOM     27  C   UNL     1       0.716   7.832  21.252  0.00  0.00    +0.000 A 
ATOM     28  C   UNL     1       0.023   9.037  21.431  0.00  0.00    +0.000 A 
ATOM     29  C   UNL     1       0.138  10.069  20.474  0.00  0.00    +0.000 A 
ATOM     30  C   UNL     1       0.936   9.862  19.332  0.00  0.00    +0.000 A 
ATOM     31  C   UNL     1       1.634   8.652  19.182  0.00  0.00    +0.000 A 
BRANCH  28  32
ATOM     32  O   UNL     1      -0.801   9.273  22.507  0.00  0.00    +0.000 OA
ATOM     33  C   UNL     1      -0.175   9.767  23.687  0.00  0.00    +0.000 C 
ENDBRANCH  28  32
BRANCH  29  34
ATOM     34  O   UNL     1      -0.634  11.185  20.714  0.00  0.00    +0.000 OA
ATOM     35  C   UNL     1      -1.724  11.433  19.836  0.00  0.00    +0.000 C 
ENDBRANCH  29  34
BRANCH  30  36
ATOM     36  O   UNL     1       1.039  10.874  18.413  0.00  0.00    +0.000 OA
ATOM     37  C   UNL     1       1.991  11.894  18.684  0.00  0.00    +0.000 C 
ENDBRANCH  30  36
ENDBRANCH  22  26
ENDBRANCH   1  20
TORSDOF 9
ENDMDL
MODEL 7
REMARK VINA RESULT:      -6.9      3.857      9.393
REMARK  Name = 
REMARK  15 active torsions:
REMARK  status: ('A' for Active; 'I' for Inactive)
REMARK    1  A    between atoms: C_1  and  O_2
REMARK    2  A    between atoms: O_2  and  C_3
REMARK    3  A    between atoms: C_6  and  N_7
REMARK    4  A    between atoms: C_8  and  C_10
REMARK    5  A    between atoms: N_13  and  C_14
REMARK    6  A    between atoms: C_14  and  C_15
REMARK    7  A    between atoms: C_17  and  C_18
REMARK    8  A    between atoms: C_20  and  O_21
REMARK    9  A    between atoms: O_21  and  C_22
REMARK   10  A    between atoms: C_23  and  O_24
REMARK   11  A    between atoms: O_24  and  C_25
REMARK   12  A    between atoms: C_26  and  O_27
REMARK   13  A    between atoms: O_27  and  C_28
REMARK   14  A    between atoms: C_31  and  C_32
REMARK   15  A    between atoms: C_33  and  C_34
REMARK                            x       y       z     vdW  Elec       q    Type
REMARK                         _______ _______ _______ _____ _____    ______ ____
ROOT
ATOM      1  C   UNL     1      -0.091  11.323  20.002  0.00  0.00    +0.000 C 
ENDROOT
BRANCH   1   5
ATOM      2  C   UNL     1       2.515  13.692  20.747  0.00  0.00    +0.000 A 
ATOM      3  N   UNL     1       1.685  13.762  21.839  0.00  0.00    +0.000 NA
ATOM      4  N   UNL     1       0.628  12.993  21.608  0.00  0.00    +0.000 NA
ATOM      5  N   UNL     1       0.782  12.424  20.391  0.00  0.00    +0.000 N 
ATOM      6  C   UNL     1       1.935  12.864  19.793  0.00  0.00    +0.000 A 
ATOM      7  C   UNL     1       2.417  12.450  18.454  0.00  0.00    +0.000 C 
BRANCH   2   9
ATOM      8  N   UNL     1       4.653  14.135  21.741  0.00  0.00    +0.000 N 
ATOM      9  C   UNL     1       3.812  14.368  20.656  0.00  0.00    +0.000 C 
ATOM     10  O   UNL     1       4.090  15.046  19.676  0.00  0.00    +0.000 OA
ATOM     11  H   UNL     1       4.268  13.536  22.466  0.00  0.00    +0.000 HD
BRANCH   8  15
ATOM     12  C   UNL     1       8.618  15.490  22.310  0.00  0.00    +0.000 A 
ATOM     13  C   UNL     1       7.599  16.411  22.093  0.00  0.00    +0.000 A 
ATOM     14  C   UNL     1       6.282  15.983  21.907  0.00  0.00    +0.000 A 
ATOM     15  C   UNL     1       5.963  14.625  21.918  0.00  0.00    +0.000 A 
ATOM     16  C   UNL     1       6.998  13.699  22.108  0.00  0.00    +0.000 A 
ATOM     17  C   UNL     1       8.321  14.131  22.305  0.00  0.00    +0.000 A 
BRANCH  12  19
ATOM     18  C   UNL     1      10.222  16.353  23.811  0.00  0.00    +0.000 C 
ATOM     19  O   UNL     1       9.859  16.034  22.473  0.00  0.00    +0.000 OA
ENDBRANCH  12  19
ENDBRANCH   8  15
ENDBRANCH   2   9
ENDBRANCH   1   5
BRANCH   1  20
ATOM     20  C   UNL     1       0.406   9.991  20.437  0.00  0.00    +0.000 A 
ATOM     21  N   UNL     1       1.043   9.131  19.555  0.00  0.00    +0.000 NA
ATOM     22  C   UNL     1       1.445   8.121  20.307  0.00  0.00    +0.000 A 
ATOM     23  O   UNL     1       1.095   8.244  21.627  0.00  0.00    +0.000 OA
ATOM     24  C   UNL     1       0.425   9.433  21.699  0.00  0.00    +0.000 A 
ATOM     25  C   UNL     1      -0.078   9.849  23.020  0.00  0.00    +0.000 C 
BRANCH  22  26
ATOM     26  C   UNL     1       2.155   6.898  19.938  0.00  0.00    +0.000 A 
ATOM     27  C   UNL     1       1.768   5.652  20.446  0.00  0.00    +0.000 A 
ATOM     28  C   UNL     1       2.418   4.476  20.049  0.00  0.00    +0.000 A 
ATOM     29  C   UNL     1       3.494   4.535  19.136  0.00  0.00    +0.000 A 
ATOM     30  C   UNL     1       3.917   5.788  18.652  0.00  0.00    +0.000 A 
ATOM     31  C   UNL     1       3.239   6.952  19.052  0.00  0.00    +0.000 A 
BRANCH  28  32
ATOM     32  O   UNL     1       2.071   3.232  20.524  0.00  0.00    +0.000 OA
ATOM     33  C   UNL     1       2.137   3.053  21.935  0.00  0.00    +0.000 C 
ENDBRANCH  28  32
BRANCH  29  34
ATOM     34  O   UNL     1       4.103   3.329  18.863  0.00  0.00    +0.000 OA
ATOM     35  C   UNL     1       3.651   2.604  17.727  0.00  0.00    +0.000 C 
ENDBRANCH  29  34
BRANCH  30  36
ATOM     36  O   UNL     1       4.961   5.829  17.765  0.00  0.00    +0.000 OA
ATOM     37  C   UNL     1       4.986   6.918  16.851  0.00  0.00    +0.000 C 
ENDBRANCH  30  36
ENDBRANCH  22  26
ENDBRANCH   1  20
TORSDOF 9
ENDMDL
MODEL 8
REMARK VINA RESULT:      -6.9      3.911      9.432
REMARK  Name = 
REMARK  15 active torsions:
REMARK  status: ('A' for Active; 'I' for Inactive)
REMARK    1  A    between atoms: C_1  and  O_2
REMARK    2  A    between atoms: O_2  and  C_3
REMARK    3  A    between atoms: C_6  and  N_7
REMARK    4  A    between atoms: C_8  and  C_10
REMARK    5  A    between atoms: N_13  and  C_14
REMARK    6  A    between atoms: C_14  and  C_15
REMARK    7  A    between atoms: C_17  and  C_18
REMARK    8  A    between atoms: C_20  and  O_21
REMARK    9  A    between atoms: O_21  and  C_22
REMARK   10  A    between atoms: C_23  and  O_24
REMARK   11  A    between atoms: O_24  and  C_25
REMARK   12  A    between atoms: C_26  and  O_27
REMARK   13  A    between atoms: O_27  and  C_28
REMARK   14  A    between atoms: C_31  and  C_32
REMARK   15  A    between atoms: C_33  and  C_34
REMARK                            x       y       z     vdW  Elec       q    Type
REMARK                         _______ _______ _______ _____ _____    ______ ____
ROOT
ATOM      1  C   UNL     1      -0.154  11.315  19.832  0.00  0.00    +0.000 C 
ENDROOT
BRANCH   1   5
ATOM      2  C   UNL     1       2.246  13.694  21.073  0.00  0.00    +0.000 A 
ATOM      3  N   UNL     1       1.266  13.682  22.036  0.00  0.00    +0.000 NA
ATOM      4  N   UNL     1       0.276  12.905  21.613  0.00  0.00    +0.000 NA
ATOM      5  N   UNL     1       0.620  12.411  20.402  0.00  0.00    +0.000 N 
ATOM      6  C   UNL     1       1.833  12.910  20.002  0.00  0.00    +0.000 A 
ATOM      7  C   UNL     1       2.514  12.586  18.726  0.00  0.00    +0.000 C 
BRANCH   2   9
ATOM      8  N   UNL     1       3.907  15.100  20.065  0.00  0.00    +0.000 N 
ATOM      9  C   UNL     1       3.521  14.403  21.207  0.00  0.00    +0.000 C 
ATOM     10  O   UNL     1       4.141  14.371  22.261  0.00  0.00    +0.000 OA
ATOM     11  H   UNL     1       3.267  15.029  19.278  0.00  0.00    +0.000 HD
BRANCH   8  15
ATOM     12  C   UNL     1       7.440  17.369  19.563  0.00  0.00    +0.000 A 
ATOM     13  C   UNL     1       6.313  17.963  20.119  0.00  0.00    +0.000 A 
ATOM     14  C   UNL     1       5.137  17.229  20.297  0.00  0.00    +0.000 A 
ATOM     15  C   UNL     1       5.063  15.891  19.906  0.00  0.00    +0.000 A 
ATOM     16  C   UNL     1       6.193  15.305  19.320  0.00  0.00    +0.000 A 
ATOM     17  C   UNL     1       7.378  16.042  19.151  0.00  0.00    +0.000 A 
BRANCH  12  19
ATOM     18  C   UNL     1       9.097  18.266  18.141  0.00  0.00    +0.000 C 
ATOM     19  O   UNL     1       8.521  18.193  19.440  0.00  0.00    +0.000 OA
ENDBRANCH  12  19
ENDBRANCH   8  15
ENDBRANCH   2   9
ENDBRANCH   1   5
BRANCH   1  20
ATOM     20  C   UNL     1       0.338   9.970  20.233  0.00  0.00    +0.000 A 
ATOM     21  N   UNL     1       1.122   9.203  19.385  0.00  0.00    +0.000 NA
ATOM     22  C   UNL     1       1.465   8.152  20.109  0.00  0.00    +0.000 A 
ATOM     23  O   UNL     1       0.939   8.161  21.376  0.00  0.00    +0.000 OA
ATOM     24  C   UNL     1       0.215   9.317  21.442  0.00  0.00    +0.000 A 
ATOM     25  C   UNL     1      -0.476   9.613  22.710  0.00  0.00    +0.000 C 
BRANCH  22  26
ATOM     26  C   UNL     1       2.270   6.985  19.752  0.00  0.00    +0.000 A 
ATOM     27  C   UNL     1       1.988   5.720  20.280  0.00  0.00    +0.000 A 
ATOM     28  C   UNL     1       2.728   4.594  19.894  0.00  0.00    +0.000 A 
ATOM     29  C   UNL     1       3.790   4.726  18.972  0.00  0.00    +0.000 A 
ATOM     30  C   UNL     1       4.107   6.003  18.468  0.00  0.00    +0.000 A 
ATOM     31  C   UNL     1       3.340   7.114  18.857  0.00  0.00    +0.000 A 
BRANCH  28  32
ATOM     32  O   UNL     1       2.486   3.333  20.389  0.00  0.00    +0.000 OA
ATOM     33  C   UNL     1       1.780   3.263  21.623  0.00  0.00    +0.000 C 
ENDBRANCH  28  32
BRANCH  29  34
ATOM     34  O   UNL     1       4.493   3.570  18.712  0.00  0.00    +0.000 OA
ATOM     35  C   UNL     1       4.087   2.788  17.596  0.00  0.00    +0.000 C 
ENDBRANCH  29  34
BRANCH  30  36
ATOM     36  O   UNL     1       5.140   6.116  17.574  0.00  0.00    +0.000 OA
ATOM     37  C   UNL     1       4.806   6.532  16.256  0.00  0.00    +0.000 C 
ENDBRANCH  30  36
ENDBRANCH  22  26
ENDBRANCH   1  20
TORSDOF 9
ENDMDL
MODEL 9
REMARK VINA RESULT:      -6.9      3.622      8.756
REMARK  Name = 
REMARK  15 active torsions:
REMARK  status: ('A' for Active; 'I' for Inactive)
REMARK    1  A    between atoms: C_1  and  O_2
REMARK    2  A    between atoms: O_2  and  C_3
REMARK    3  A    between atoms: C_6  and  N_7
REMARK    4  A    between atoms: C_8  and  C_10
REMARK    5  A    between atoms: N_13  and  C_14
REMARK    6  A    between atoms: C_14  and  C_15
REMARK    7  A    between atoms: C_17  and  C_18
REMARK    8  A    between atoms: C_20  and  O_21
REMARK    9  A    between atoms: O_21  and  C_22
REMARK   10  A    between atoms: C_23  and  O_24
REMARK   11  A    between atoms: O_24  and  C_25
REMARK   12  A    between atoms: C_26  and  O_27
REMARK   13  A    between atoms: O_27  and  C_28
REMARK   14  A    between atoms: C_31  and  C_32
REMARK   15  A    between atoms: C_33  and  C_34
REMARK                            x       y       z     vdW  Elec       q    Type
REMARK                         _______ _______ _______ _____ _____    ______ ____
ROOT
ATOM      1  C   UNL     1       0.169  10.750  18.926  0.00  0.00    +0.000 C 
ENDROOT
BRANCH   1   5
ATOM      2  C   UNL     1       1.944  13.325  20.709  0.00  0.00    +0.000 A 
ATOM      3  N   UNL     1       0.870  13.044  21.519  0.00  0.00    +0.000 NA
ATOM      4  N   UNL     1       0.092  12.172  20.890  0.00  0.00    +0.000 NA
ATOM      5  N   UNL     1       0.663  11.883  19.699  0.00  0.00    +0.000 N 
ATOM      6  C   UNL     1       1.811  12.614  19.522  0.00  0.00    +0.000 A 
ATOM      7  C   UNL     1       2.690  12.552  18.330  0.00  0.00    +0.000 C 
BRANCH   2   9
ATOM      8  N   UNL     1       3.857  14.597  20.021  0.00  0.00    +0.000 N 
ATOM      9  C   UNL     1       3.049  14.209  21.087  0.00  0.00    +0.000 C 
ATOM     10  O   UNL     1       3.190  14.565  22.249  0.00  0.00    +0.000 OA
ATOM     11  H   UNL     1       3.591  14.218  19.116  0.00  0.00    +0.000 HD
BRANCH   8  15
ATOM     12  C   UNL     1       7.259  17.100  20.244  0.00  0.00    +0.000 A 
ATOM     13  C   UNL     1       6.053  17.615  19.780  0.00  0.00    +0.000 A 
ATOM     14  C   UNL     1       4.917  16.805  19.704  0.00  0.00    +0.000 A 
ATOM     15  C   UNL     1       4.970  15.460  20.072  0.00  0.00    +0.000 A 
ATOM     16  C   UNL     1       6.195  14.939  20.512  0.00  0.00    +0.000 A 
ATOM     17  C   UNL     1       7.335  15.757  20.599  0.00  0.00    +0.000 A 
BRANCH  12  19
ATOM     18  C   UNL     1       8.914  18.249  19.014  0.00  0.00    +0.000 C 
ATOM     19  O   UNL     1       8.292  17.991  20.267  0.00  0.00    +0.000 OA
ENDBRANCH  12  19
ENDBRANCH   8  15
ENDBRANCH   2   9
ENDBRANCH   1   5
BRANCH   1  20
ATOM     20  C   UNL     1       0.906   9.485  19.191  0.00  0.00    +0.000 A 
ATOM     21  N   UNL     1       1.602   8.828  18.187  0.00  0.00    +0.000 NA
ATOM     22  C   UNL     1       2.218   7.836  18.805  0.00  0.00    +0.000 A 
ATOM     23  O   UNL     1       1.957   7.777  20.150  0.00  0.00    +0.000 OA
ATOM     24  C   UNL     1       1.113   8.826  20.385  0.00  0.00    +0.000 A 
ATOM     25  C   UNL     1       0.653   9.029  21.770  0.00  0.00    +0.000 C 
BRANCH  22  26
ATOM     26  C   UNL     1       3.085   6.787  18.270  0.00  0.00    +0.000 A 
ATOM     27  C   UNL     1       2.567   5.547  17.877  0.00  0.00    +0.000 A 
ATOM     28  C   UNL     1       3.393   4.564  17.315  0.00  0.00    +0.000 A 
ATOM     29  C   UNL     1       4.775   4.808  17.152  0.00  0.00    +0.000 A 
ATOM     30  C   UNL     1       5.311   6.038  17.582  0.00  0.00    +0.000 A 
ATOM     31  C   UNL     1       4.460   7.014  18.128  0.00  0.00    +0.000 A 
BRANCH  28  32
ATOM     32  O   UNL     1       2.927   3.333  16.917  0.00  0.00    +0.000 OA
ATOM     33  C   UNL     1       2.429   2.483  17.945  0.00  0.00    +0.000 C 
ENDBRANCH  28  32
BRANCH  29  34
ATOM     34  O   UNL     1       5.505   3.753  16.650  0.00  0.00    +0.000 OA
ATOM     35  C   UNL     1       5.971   3.851  15.311  0.00  0.00    +0.000 C 
ENDBRANCH  29  34
BRANCH  30  36
ATOM     36  O   UNL     1       6.653   6.260  17.417  0.00  0.00    +0.000 OA
ATOM     37  C   UNL     1       7.071   7.615  17.306  0.00  0.00    +0.000 C 
ENDBRANCH  30  36
ENDBRANCH  22  26
ENDBRANCH   1  20
TORSDOF 9
ENDMDL
