MODEL 1
REMARK VINA RESULT:      -8.0      0.000      0.000
REMARK  Name = 
REMARK  8 active torsions:
REMARK  status: ('A' for Active; 'I' for Inactive)
REMARK    1  A    between atoms: C_1  and  C_2
REMARK    2  A    between atoms: N_15  and  C_16
REMARK    3  A    between atoms: N_18  and  C_19
REMARK    4  A    between atoms: C_23  and  C_24
REMARK    5  A    between atoms: N_26  and  C_27
REMARK    6  A    between atoms: C_27  and  C_28
REMARK    7  A    between atoms: C_27  and  C_29
REMARK    8  A    between atoms: C_31  and  C_32
REMARK                            x       y       z     vdW  Elec       q    Type
REMARK                         _______ _______ _______ _____ _____    ______ ____
ROOT
ATOM      1  C   UNL     1       0.896   5.647  20.841  0.00  0.00    +0.000 C 
ATOM      2  C   UNL     1       2.144   5.425  20.061  0.00  0.00    +0.000 A 
ATOM      3  C   UNL     1       2.883   4.257  20.126  0.00  0.00    +0.000 A 
ATOM      4  N   UNL     1       3.910   4.349  19.234  0.00  0.00    +0.000 N 
ATOM      5  C   UNL     1       3.854   5.552  18.589  0.00  0.00    +0.000 A 
ATOM      6  N   UNL     1       4.716   5.904  17.630  0.00  0.00    +0.000 NA
ATOM      7  C   UNL     1       4.430   7.116  17.144  0.00  0.00    +0.000 A 
ATOM      8  N   UNL     1       3.443   7.949  17.526  0.00  0.00    +0.000 NA
ATOM      9  C   UNL     1       2.606   7.591  18.541  0.00  0.00    +0.000 A 
ATOM     10  N   UNL     1       1.701   8.543  18.966  0.00  0.00    +0.000 N 
ATOM     11  C   UNL     1       1.290   8.688  20.351  0.00  0.00    +0.000 C 
ATOM     12  C   UNL     1       1.295  10.158  20.803  0.00  0.00    +0.000 C 
ATOM     13  N   UNL     1       0.583  11.045  19.862  0.00  0.00    +0.000 N 
ATOM     14  C   UNL     1      -0.565  11.721  20.258  0.00  0.00    +0.000 C 
ATOM     15  N   UNL     1      -1.672  11.551  19.599  0.00  0.00    +0.000 NA
ATOM     16  N   UNL     1      -0.246  12.545  21.319  0.00  0.00    +0.000 N 
ATOM     17  C   UNL     1       0.942  10.857  18.430  0.00  0.00    +0.000 C 
ATOM     18  C   UNL     1       2.307  11.508  18.185  0.00  0.00    +0.000 C 
ATOM     19  C   UNL     1       0.972   9.366  17.995  0.00  0.00    +0.000 C 
ATOM     20  C   UNL     1       2.790   6.291  19.096  0.00  0.00    +0.000 A 
ATOM     21  H   UNL     1       4.603   3.641  19.040  0.00  0.00    +0.000 HD
ATOM     22  H   UNL     1       0.695  12.919  21.281  0.00  0.00    +0.000 HD
ENDROOT
BRANCH  16  23
ATOM     23  C   UNL     1      -1.036  13.039  22.370  0.00  0.00    +0.000 A 
ATOM     24  C   UNL     1      -0.652  14.218  23.029  0.00  0.00    +0.000 A 
ATOM     25  C   UNL     1      -1.478  14.808  23.992  0.00  0.00    +0.000 A 
ATOM     26  C   UNL     1      -2.713  14.240  24.291  0.00  0.00    +0.000 A 
ATOM     27  C   UNL     1      -3.110  13.062  23.651  0.00  0.00    +0.000 A 
ATOM     28  C   UNL     1      -2.248  12.443  22.734  0.00  0.00    +0.000 A 
BRANCH  27  29
ATOM     29  C   UNL     1      -4.456  12.498  23.948  0.00  0.00    +0.000 C 
ATOM     30  O   UNL     1      -4.634  11.839  24.965  0.00  0.00    +0.000 OA
ATOM     31  N   UNL     1      -5.451  12.791  23.033  0.00  0.00    +0.000 N 
ATOM     32  H   UNL     1      -5.296  13.575  22.408  0.00  0.00    +0.000 HD
BRANCH  31  33
ATOM     33  C   UNL     1      -6.832  12.379  23.247  0.00  0.00    +0.000 C 
ATOM     34  C   UNL     1      -7.586  13.416  24.075  0.00  0.00    +0.000 C 
ATOM     35  C   UNL     1      -7.526  12.158  21.906  0.00  0.00    +0.000 C 
ENDBRANCH  31  33
ENDBRANCH  27  29
ENDBRANCH  16  23
BRANCH  15  36
ATOM     36  C   UNL     1      -2.766  12.248  19.887  0.00  0.00    +0.000 C 
ATOM     37  N   UNL     1      -3.727  12.877  20.059  0.00  0.00    +0.000 NA
ENDBRANCH  15  36
TORSDOF 4
ENDMDL
MODEL 2
REMARK VINA RESULT:      -8.0      5.339     10.034
REMARK  Name = 
REMARK  8 active torsions:
REMARK  status: ('A' for Active; 'I' for Inactive)
REMARK    1  A    between atoms: C_1  and  C_2
REMARK    2  A    between atoms: N_15  and  C_16
REMARK    3  A    between atoms: N_18  and  C_19
REMARK    4  A    between atoms: C_23  and  C_24
REMARK    5  A    between atoms: N_26  and  C_27
REMARK    6  A    between atoms: C_27  and  C_28
REMARK    7  A    between atoms: C_27  and  C_29
REMARK    8  A    between atoms: C_31  and  C_32
REMARK                            x       y       z     vdW  Elec       q    Type
REMARK                         _______ _______ _______ _____ _____    ______ ____
ROOT
ATOM      1  C   UNL     1       0.132  10.025  17.916  0.00  0.00    +0.000 C 
ATOM      2  C   UNL     1      -1.312  10.375  17.989  0.00  0.00    +0.000 A 
ATOM      3  C   UNL     1      -2.297   9.690  17.299  0.00  0.00    +0.000 A 
ATOM      4  N   UNL     1      -3.508  10.211  17.649  0.00  0.00    +0.000 N 
ATOM      5  C   UNL     1      -3.331  11.219  18.553  0.00  0.00    +0.000 A 
ATOM      6  N   UNL     1      -4.349  11.891  19.102  0.00  0.00    +0.000 NA
ATOM      7  C   UNL     1      -3.911  12.807  19.971  0.00  0.00    +0.000 A 
ATOM      8  N   UNL     1      -2.637  13.101  20.293  0.00  0.00    +0.000 NA
ATOM      9  C   UNL     1      -1.612  12.438  19.683  0.00  0.00    +0.000 A 
ATOM     10  N   UNL     1      -0.334  12.877  19.965  0.00  0.00    +0.000 N 
ATOM     11  C   UNL     1       0.741  12.874  18.989  0.00  0.00    +0.000 C 
ATOM     12  C   UNL     1       1.528  14.195  18.994  0.00  0.00    +0.000 C 
ATOM     13  N   UNL     1       1.940  14.606  20.350  0.00  0.00    +0.000 N 
ATOM     14  C   UNL     1       3.287  14.687  20.687  0.00  0.00    +0.000 C 
ATOM     15  N   UNL     1       3.743  13.992  21.686  0.00  0.00    +0.000 NA
ATOM     16  N   UNL     1       3.892  15.610  19.858  0.00  0.00    +0.000 N 
ATOM     17  C   UNL     1       0.865  14.545  21.378  0.00  0.00    +0.000 C 
ATOM     18  C   UNL     1      -0.064  15.746  21.175  0.00  0.00    +0.000 C 
ATOM     19  C   UNL     1       0.052  13.222  21.336  0.00  0.00    +0.000 C 
ATOM     20  C   UNL     1      -1.969  11.399  18.775  0.00  0.00    +0.000 A 
ATOM     21  H   UNL     1      -4.412   9.900  17.326  0.00  0.00    +0.000 HD
ATOM     22  H   UNL     1       3.290  16.377  19.586  0.00  0.00    +0.000 HD
ENDROOT
BRANCH  16  23
ATOM     23  C   UNL     1       5.225  15.725  19.428  0.00  0.00    +0.000 A 
ATOM     24  C   UNL     1       5.957  16.880  19.747  0.00  0.00    +0.000 A 
ATOM     25  C   UNL     1       7.320  16.976  19.446  0.00  0.00    +0.000 A 
ATOM     26  C   UNL     1       7.977  15.905  18.844  0.00  0.00    +0.000 A 
ATOM     27  C   UNL     1       7.263  14.749  18.513  0.00  0.00    +0.000 A 
ATOM     28  C   UNL     1       5.884  14.688  18.760  0.00  0.00    +0.000 A 
BRANCH  27  29
ATOM     29  C   UNL     1       7.993  13.597  17.916  0.00  0.00    +0.000 C 
ATOM     30  O   UNL     1       7.449  12.896  17.071  0.00  0.00    +0.000 OA
ATOM     31  N   UNL     1       9.291  13.409  18.356  0.00  0.00    +0.000 N 
ATOM     32  H   UNL     1       9.751  14.193  18.806  0.00  0.00    +0.000 HD
BRANCH  31  33
ATOM     33  C   UNL     1      10.148  12.376  17.790  0.00  0.00    +0.000 C 
ATOM     34  C   UNL     1      11.315  12.996  17.025  0.00  0.00    +0.000 C 
ATOM     35  C   UNL     1      10.661  11.458  18.896  0.00  0.00    +0.000 C 
ENDBRANCH  31  33
ENDBRANCH  27  29
ENDBRANCH  16  23
BRANCH  15  36
ATOM     36  C   UNL     1       5.001  14.111  22.097  0.00  0.00    +0.000 C 
ATOM     37  N   UNL     1       6.096  14.136  22.483  0.00  0.00    +0.000 NA
ENDBRANCH  15  36
TORSDOF 4
ENDMDL
MODEL 3
REMARK VINA RESULT:      -7.8      6.046     10.450
REMARK  Name = 
REMARK  8 active torsions:
REMARK  status: ('A' for Active; 'I' for Inactive)
REMARK    1  A    between atoms: C_1  and  C_2
REMARK    2  A    between atoms: N_15  and  C_16
REMARK    3  A    between atoms: N_18  and  C_19
REMARK    4  A    between atoms: C_23  and  C_24
REMARK    5  A    between atoms: N_26  and  C_27
REMARK    6  A    between atoms: C_27  and  C_28
REMARK    7  A    between atoms: C_27  and  C_29
REMARK    8  A    between atoms: C_31  and  C_32
REMARK                            x       y       z     vdW  Elec       q    Type
REMARK                         _______ _______ _______ _____ _____    ______ ____
ROOT
ATOM      1  C   UNL     1       1.734  10.074  18.210  0.00  0.00    +0.000 C 
ATOM      2  C   UNL     1       0.288  10.416  18.299  0.00  0.00    +0.000 A 
ATOM      3  C   UNL     1      -0.714   9.631  17.756  0.00  0.00    +0.000 A 
ATOM      4  N   UNL     1      -1.917  10.183  18.084  0.00  0.00    +0.000 N 
ATOM      5  C   UNL     1      -1.718  11.310  18.829  0.00  0.00    +0.000 A 
ATOM      6  N   UNL     1      -2.723  12.041  19.325  0.00  0.00    +0.000 NA
ATOM      7  C   UNL     1      -2.263  13.073  20.038  0.00  0.00    +0.000 A 
ATOM      8  N   UNL     1      -0.981  13.423  20.258  0.00  0.00    +0.000 NA
ATOM      9  C   UNL     1       0.028  12.692  19.701  0.00  0.00    +0.000 A 
ATOM     10  N   UNL     1       1.309  13.179  19.861  0.00  0.00    +0.000 N 
ATOM     11  C   UNL     1       2.342  13.051  18.848  0.00  0.00    +0.000 C 
ATOM     12  C   UNL     1       3.106  14.368  18.634  0.00  0.00    +0.000 C 
ATOM     13  N   UNL     1       3.569  14.969  19.900  0.00  0.00    +0.000 N 
ATOM     14  C   UNL     1       4.927  15.109  20.162  0.00  0.00    +0.000 C 
ATOM     15  N   UNL     1       5.437  14.565  21.226  0.00  0.00    +0.000 NA
ATOM     16  N   UNL     1       5.481  15.914  19.186  0.00  0.00    +0.000 N 
ATOM     17  C   UNL     1       2.540  15.040  20.973  0.00  0.00    +0.000 C 
ATOM     18  C   UNL     1       1.583  16.191  20.648  0.00  0.00    +0.000 C 
ATOM     19  C   UNL     1       1.748  13.717  21.153  0.00  0.00    +0.000 C 
ATOM     20  C   UNL     1      -0.351  11.533  18.963  0.00  0.00    +0.000 A 
ATOM     21  H   UNL     1      -2.829   9.820  17.848  0.00  0.00    +0.000 HD
ATOM     22  H   UNL     1       4.855  16.629  18.838  0.00  0.00    +0.000 HD
ENDROOT
BRANCH  16  23
ATOM     23  C   UNL     1       6.792  15.981  18.685  0.00  0.00    +0.000 A 
ATOM     24  C   UNL     1       7.427  17.229  18.575  0.00  0.00    +0.000 A 
ATOM     25  C   UNL     1       8.772  17.324  18.201  0.00  0.00    +0.000 A 
ATOM     26  C   UNL     1       9.509  16.167  17.956  0.00  0.00    +0.000 A 
ATOM     27  C   UNL     1       8.892  14.916  18.054  0.00  0.00    +0.000 A 
ATOM     28  C   UNL     1       7.528  14.835  18.367  0.00  0.00    +0.000 A 
BRANCH  27  29
ATOM     29  C   UNL     1       9.710  13.691  17.838  0.00  0.00    +0.000 C 
ATOM     30  O   UNL     1      10.609  13.692  17.006  0.00  0.00    +0.000 OA
ATOM     31  N   UNL     1       9.401  12.607  18.641  0.00  0.00    +0.000 N 
ATOM     32  H   UNL     1       8.872  12.788  19.487  0.00  0.00    +0.000 HD
BRANCH  31  33
ATOM     33  C   UNL     1      10.180  11.377  18.597  0.00  0.00    +0.000 C 
ATOM     34  C   UNL     1      11.447  11.506  19.438  0.00  0.00    +0.000 C 
ATOM     35  C   UNL     1       9.333  10.204  19.082  0.00  0.00    +0.000 C 
ENDBRANCH  31  33
ENDBRANCH  27  29
ENDBRANCH  16  23
BRANCH  15  36
ATOM     36  C   UNL     1       6.709  14.754  21.561  0.00  0.00    +0.000 C 
ATOM     37  N   UNL     1       7.800  14.901  21.931  0.00  0.00    +0.000 NA
ENDBRANCH  15  36
TORSDOF 4
ENDMDL
MODEL 4
REMARK VINA RESULT:      -7.8      2.012      2.668
REMARK  Name = 
REMARK  8 active torsions:
REMARK  status: ('A' for Active; 'I' for Inactive)
REMARK    1  A    between atoms: C_1  and  C_2
REMARK    2  A    between atoms: N_15  and  C_16
REMARK    3  A    between atoms: N_18  and  C_19
REMARK    4  A    between atoms: C_23  and  C_24
REMARK    5  A    between atoms: N_26  and  C_27
REMARK    6  A    between atoms: C_27  and  C_28
REMARK    7  A    between atoms: C_27  and  C_29
REMARK    8  A    between atoms: C_31  and  C_32
REMARK                            x       y       z     vdW  Elec       q    Type
REMARK                         _______ _______ _______ _____ _____    ______ ____
ROOT
ATOM      1  C   UNL     1       1.110   5.192  20.600  0.00  0.00    +0.000 C 
ATOM      2  C   UNL     1       2.449   5.016  19.975  0.00  0.00    +0.000 A 
ATOM      3  C   UNL     1       3.231   3.888  20.156  0.00  0.00    +0.000 A 
ATOM      4  N   UNL     1       4.349   4.013  19.386  0.00  0.00    +0.000 N 
ATOM      5  C   UNL     1       4.311   5.197  18.707  0.00  0.00    +0.000 A 
ATOM      6  N   UNL     1       5.261   5.573  17.844  0.00  0.00    +0.000 NA
ATOM      7  C   UNL     1       4.976   6.757  17.296  0.00  0.00    +0.000 A 
ATOM      8  N   UNL     1       3.913   7.548  17.540  0.00  0.00    +0.000 NA
ATOM      9  C   UNL     1       2.981   7.170  18.462  0.00  0.00    +0.000 A 
ATOM     10  N   UNL     1       1.989   8.084  18.753  0.00  0.00    +0.000 N 
ATOM     11  C   UNL     1       1.414   8.238  20.078  0.00  0.00    +0.000 C 
ATOM     12  C   UNL     1       1.297   9.715  20.488  0.00  0.00    +0.000 C 
ATOM     13  N   UNL     1       0.658  10.545  19.448  0.00  0.00    +0.000 N 
ATOM     14  C   UNL     1      -0.560  11.171  19.691  0.00  0.00    +0.000 C 
ATOM     15  N   UNL     1      -1.573  10.932  18.914  0.00  0.00    +0.000 NA
ATOM     16  N   UNL     1      -0.405  12.032  20.760  0.00  0.00    +0.000 N 
ATOM     17  C   UNL     1       1.189  10.345  18.072  0.00  0.00    +0.000 C 
ATOM     18  C   UNL     1       2.541  11.059  17.969  0.00  0.00    +0.000 C 
ATOM     19  C   UNL     1       1.340   8.849  17.684  0.00  0.00    +0.000 C 
ATOM     20  C   UNL     1       3.161   5.893  19.068  0.00  0.00    +0.000 A 
ATOM     21  H   UNL     1       5.092   3.337  19.292  0.00  0.00    +0.000 HD
ATOM     22  H   UNL     1       0.515  12.452  20.820  0.00  0.00    +0.000 HD
ENDROOT
BRANCH  16  23
ATOM     23  C   UNL     1      -1.335  12.508  21.699  0.00  0.00    +0.000 A 
ATOM     24  C   UNL     1      -1.911  11.614  22.617  0.00  0.00    +0.000 A 
ATOM     25  C   UNL     1      -2.743  12.072  23.644  0.00  0.00    +0.000 A 
ATOM     26  C   UNL     1      -2.990  13.435  23.784  0.00  0.00    +0.000 A 
ATOM     27  C   UNL     1      -2.431  14.340  22.876  0.00  0.00    +0.000 A 
ATOM     28  C   UNL     1      -1.651  13.865  21.811  0.00  0.00    +0.000 A 
BRANCH  27  29
ATOM     29  C   UNL     1      -2.666  15.797  23.073  0.00  0.00    +0.000 C 
ATOM     30  O   UNL     1      -2.365  16.591  22.190  0.00  0.00    +0.000 OA
ATOM     31  N   UNL     1      -3.254  16.160  24.271  0.00  0.00    +0.000 N 
ATOM     32  H   UNL     1      -3.740  15.437  24.791  0.00  0.00    +0.000 HD
BRANCH  31  33
ATOM     33  C   UNL     1      -3.622  17.540  24.555  0.00  0.00    +0.000 C 
ATOM     34  C   UNL     1      -4.985  17.610  25.238  0.00  0.00    +0.000 C 
ATOM     35  C   UNL     1      -2.554  18.198  25.424  0.00  0.00    +0.000 C 
ENDBRANCH  31  33
ENDBRANCH  27  29
ENDBRANCH  16  23
BRANCH  15  36
ATOM     36  C   UNL     1      -2.725  11.579  19.056  0.00  0.00    +0.000 C 
ATOM     37  N   UNL     1      -3.758  12.081  19.227  0.00  0.00    +0.000 NA
ENDBRANCH  15  36
TORSDOF 4
ENDMDL
MODEL 5
REMARK VINA RESULT:      -7.8      2.157      2.608
REMARK  Name = 
REMARK  8 active torsions:
REMARK  status: ('A' for Active; 'I' for Inactive)
REMARK    1  A    between atoms: C_1  and  C_2
REMARK    2  A    between atoms: N_15  and  C_16
REMARK    3  A    between atoms: N_18  and  C_19
REMARK    4  A    between atoms: C_23  and  C_24
REMARK    5  A    between atoms: N_26  and  C_27
REMARK    6  A    between atoms: C_27  and  C_28
REMARK    7  A    between atoms: C_27  and  C_29
REMARK    8  A    between atoms: C_31  and  C_32
REMARK                            x       y       z     vdW  Elec       q    Type
REMARK                         _______ _______ _______ _____ _____    ______ ____
ROOT
ATOM      1  C   UNL     1       1.192   4.910  20.509  0.00  0.00    +0.000 C 
ATOM      2  C   UNL     1       2.569   4.752  19.969  0.00  0.00    +0.000 A 
ATOM      3  C   UNL     1       3.360   3.643  20.214  0.00  0.00    +0.000 A 
ATOM      4  N   UNL     1       4.520   3.779  19.510  0.00  0.00    +0.000 N 
ATOM      5  C   UNL     1       4.500   4.952  18.812  0.00  0.00    +0.000 A 
ATOM      6  N   UNL     1       5.494   5.333  18.001  0.00  0.00    +0.000 NA
ATOM      7  C   UNL     1       5.219   6.503  17.418  0.00  0.00    +0.000 A 
ATOM      8  N   UNL     1       4.129   7.277  17.585  0.00  0.00    +0.000 NA
ATOM      9  C   UNL     1       3.151   6.893  18.455  0.00  0.00    +0.000 A 
ATOM     10  N   UNL     1       2.125   7.792  18.672  0.00  0.00    +0.000 N 
ATOM     11  C   UNL     1       1.468   7.954  19.957  0.00  0.00    +0.000 C 
ATOM     12  C   UNL     1       1.299   9.434  20.335  0.00  0.00    +0.000 C 
ATOM     13  N   UNL     1       0.708  10.236  19.246  0.00  0.00    +0.000 N 
ATOM     14  C   UNL     1      -0.534  10.841  19.405  0.00  0.00    +0.000 C 
ATOM     15  N   UNL     1      -1.494  10.570  18.573  0.00  0.00    +0.000 NA
ATOM     16  N   UNL     1      -0.460  11.720  20.467  0.00  0.00    +0.000 N 
ATOM     17  C   UNL     1       1.325  10.026  17.908  0.00  0.00    +0.000 C 
ATOM     18  C   UNL     1       2.666  10.765  17.874  0.00  0.00    +0.000 C 
ATOM     19  C   UNL     1       1.527   8.528  17.554  0.00  0.00    +0.000 C 
ATOM     20  C   UNL     1       3.318   5.629  19.092  0.00  0.00    +0.000 A 
ATOM     21  H   UNL     1       5.280   3.116  19.472  0.00  0.00    +0.000 HD
ATOM     22  H   UNL     1       0.446  12.160  20.576  0.00  0.00    +0.000 HD
ENDROOT
BRANCH  16  23
ATOM     23  C   UNL     1      -1.454  12.192  21.341  0.00  0.00    +0.000 A 
ATOM     24  C   UNL     1      -1.714  11.495  22.533  0.00  0.00    +0.000 A 
ATOM     25  C   UNL     1      -2.606  12.003  23.484  0.00  0.00    +0.000 A 
ATOM     26  C   UNL     1      -3.231  13.229  23.268  0.00  0.00    +0.000 A 
ATOM     27  C   UNL     1      -2.990  13.933  22.085  0.00  0.00    +0.000 A 
ATOM     28  C   UNL     1      -2.144  13.386  21.109  0.00  0.00    +0.000 A 
BRANCH  27  29
ATOM     29  C   UNL     1      -3.628  15.265  21.895  0.00  0.00    +0.000 C 
ATOM     30  O   UNL     1      -3.893  15.962  22.868  0.00  0.00    +0.000 OA
ATOM     31  N   UNL     1      -3.860  15.645  20.586  0.00  0.00    +0.000 N 
ATOM     32  H   UNL     1      -3.343  15.162  19.860  0.00  0.00    +0.000 HD
BRANCH  31  33
ATOM     33  C   UNL     1      -4.396  16.958  20.255  0.00  0.00    +0.000 C 
ATOM     34  C   UNL     1      -3.360  17.795  19.509  0.00  0.00    +0.000 C 
ATOM     35  C   UNL     1      -5.665  16.811  19.421  0.00  0.00    +0.000 C 
ENDBRANCH  31  33
ENDBRANCH  27  29
ENDBRANCH  16  23
BRANCH  15  36
ATOM     36  C   UNL     1      -2.664  11.195  18.635  0.00  0.00    +0.000 C 
ATOM     37  N   UNL     1      -3.700  11.719  18.611  0.00  0.00    +0.000 NA
ENDBRANCH  15  36
TORSDOF 4
ENDMDL
MODEL 6
REMARK VINA RESULT:      -7.7      6.618      8.519
REMARK  Name = 
REMARK  8 active torsions:
REMARK  status: ('A' for Active; 'I' for Inactive)
REMARK    1  A    between atoms: C_1  and  C_2
REMARK    2  A    between atoms: N_15  and  C_16
REMARK    3  A    between atoms: N_18  and  C_19
REMARK    4  A    between atoms: C_23  and  C_24
REMARK    5  A    between atoms: N_26  and  C_27
REMARK    6  A    between atoms: C_27  and  C_28
REMARK    7  A    between atoms: C_27  and  C_29
REMARK    8  A    between atoms: C_31  and  C_32
REMARK                            x       y       z     vdW  Elec       q    Type
REMARK                         _______ _______ _______ _____ _____    ______ ____
ROOT
ATOM      1  C   UNL     1       8.652  12.280  17.688  0.00  0.00    +0.000 C 
ATOM      2  C   UNL     1       9.954  12.951  17.949  0.00  0.00    +0.000 A 
ATOM      3  C   UNL     1      11.177  12.321  17.802  0.00  0.00    +0.000 A 
ATOM      4  N   UNL     1      12.162  13.234  18.039  0.00  0.00    +0.000 N 
ATOM      5  C   UNL     1      11.605  14.445  18.336  0.00  0.00    +0.000 A 
ATOM      6  N   UNL     1      12.332  15.541  18.579  0.00  0.00    +0.000 NA
ATOM      7  C   UNL     1      11.549  16.597  18.817  0.00  0.00    +0.000 A 
ATOM      8  N   UNL     1      10.203  16.639  18.855  0.00  0.00    +0.000 NA
ATOM      9  C   UNL     1       9.482  15.499  18.655  0.00  0.00    +0.000 A 
ATOM     10  N   UNL     1       8.116  15.588  18.834  0.00  0.00    +0.000 N 
ATOM     11  C   UNL     1       7.314  14.510  19.384  0.00  0.00    +0.000 C 
ATOM     12  C   UNL     1       6.325  15.013  20.449  0.00  0.00    +0.000 C 
ATOM     13  N   UNL     1       5.544  16.180  19.994  0.00  0.00    +0.000 N 
ATOM     14  C   UNL     1       4.164  16.095  19.848  0.00  0.00    +0.000 C 
ATOM     15  N   UNL     1       3.621  16.361  18.699  0.00  0.00    +0.000 NA
ATOM     16  N   UNL     1       3.612  15.778  21.074  0.00  0.00    +0.000 N 
ATOM     17  C   UNL     1       6.346  17.263  19.363  0.00  0.00    +0.000 C 
ATOM     18  C   UNL     1       7.068  18.037  20.471  0.00  0.00    +0.000 C 
ATOM     19  C   UNL     1       7.369  16.739  18.318  0.00  0.00    +0.000 C 
ATOM     20  C   UNL     1      10.219  14.321  18.338  0.00  0.00    +0.000 A 
ATOM     21  H   UNL     1      13.157  13.074  17.983  0.00  0.00    +0.000 HD
ATOM     22  H   UNL     1       4.114  16.164  21.864  0.00  0.00    +0.000 HD
ENDROOT
BRANCH  16  23
ATOM     23  C   UNL     1       2.416  15.117  21.400  0.00  0.00    +0.000 A 
ATOM     24  C   UNL     1       1.352  15.846  21.957  0.00  0.00    +0.000 A 
ATOM     25  C   UNL     1       0.106  15.249  22.177  0.00  0.00    +0.000 A 
ATOM     26  C   UNL     1      -0.101  13.920  21.818  0.00  0.00    +0.000 A 
ATOM     27  C   UNL     1       0.948  13.175  21.269  0.00  0.00    +0.000 A 
ATOM     28  C   UNL     1       2.211  13.764  21.113  0.00  0.00    +0.000 A 
BRANCH  27  29
ATOM     29  C   UNL     1       0.691  11.771  20.846  0.00  0.00    +0.000 C 
ATOM     30  O   UNL     1       0.905  10.848  21.623  0.00  0.00    +0.000 OA
ATOM     31  N   UNL     1       0.187  11.605  19.569  0.00  0.00    +0.000 N 
ATOM     32  H   UNL     1      -0.239  12.412  19.127  0.00  0.00    +0.000 HD
BRANCH  31  33
ATOM     33  C   UNL     1      -0.193  10.294  19.062  0.00  0.00    +0.000 C 
ATOM     34  C   UNL     1      -1.432  10.393  18.176  0.00  0.00    +0.000 C 
ATOM     35  C   UNL     1       0.968   9.675  18.290  0.00  0.00    +0.000 C 
ENDBRANCH  31  33
ENDBRANCH  27  29
ENDBRANCH  16  23
BRANCH  15  36
ATOM     36  C   UNL     1       2.301  16.382  18.542  0.00  0.00    +0.000 C 
ATOM     37  N   UNL     1       1.160  16.379  18.326  0.00  0.00    +0.000 NA
ENDBRANCH  15  36
TORSDOF 4
ENDMDL
MODEL 7
REMARK VINA RESULT:      -7.6      2.339      3.265
REMARK  Name = 
REMARK  8 active torsions:
REMARK  status: ('A' for Active; 'I' for Inactive)
REMARK    1  A    between atoms: C_1  and  C_2
REMARK    2  A    between atoms: N_15  and  C_16
REMARK    3  A    between atoms: N_18  and  C_19
REMARK    4  A    between atoms: C_23  and  C_24
REMARK    5  A    between atoms: N_26  and  C_27
REMARK    6  A    between atoms: C_27  and  C_28
REMARK    7  A    between atoms: C_27  and  C_29
REMARK    8  A    between atoms: C_31  and  C_32
REMARK                            x       y       z     vdW  Elec       q    Type
REMARK                         _______ _______ _______ _____ _____    ______ ____
ROOT
ATOM      1  C   UNL     1       1.393   4.278  20.679  0.00  0.00    +0.000 C 
ATOM      2  C   UNL     1       2.741   4.009  20.111  0.00  0.00    +0.000 A 
ATOM      3  C   UNL     1       3.468   2.863  20.384  0.00  0.00    +0.000 A 
ATOM      4  N   UNL     1       4.613   2.895  19.645  0.00  0.00    +0.000 N 
ATOM      5  C   UNL     1       4.646   4.036  18.895  0.00  0.00    +0.000 A 
ATOM      6  N   UNL     1       5.638   4.318  18.043  0.00  0.00    +0.000 NA
ATOM      7  C   UNL     1       5.420   5.477  17.415  0.00  0.00    +0.000 A 
ATOM      8  N   UNL     1       4.385   6.325  17.576  0.00  0.00    +0.000 NA
ATOM      9  C   UNL     1       3.411   6.042  18.488  0.00  0.00    +0.000 A 
ATOM     10  N   UNL     1       2.450   7.012  18.691  0.00  0.00    +0.000 N 
ATOM     11  C   UNL     1       1.842   7.271  19.985  0.00  0.00    +0.000 C 
ATOM     12  C   UNL     1       1.776   8.774  20.301  0.00  0.00    +0.000 C 
ATOM     13  N   UNL     1       1.205   9.564  19.192  0.00  0.00    +0.000 N 
ATOM     14  C   UNL     1       0.009  10.253  19.357  0.00  0.00    +0.000 C 
ATOM     15  N   UNL     1      -0.990  10.008  18.564  0.00  0.00    +0.000 NA
ATOM     16  N   UNL     1       0.168  11.171  20.377  0.00  0.00    +0.000 N 
ATOM     17  C   UNL     1       1.769   9.258  17.849  0.00  0.00    +0.000 C 
ATOM     18  C   UNL     1       3.152   9.908  17.748  0.00  0.00    +0.000 C 
ATOM     19  C   UNL     1       1.867   7.736  17.557  0.00  0.00    +0.000 C 
ATOM     20  C   UNL     1       3.517   4.799  19.176  0.00  0.00    +0.000 A 
ATOM     21  H   UNL     1       5.329   2.184  19.616  0.00  0.00    +0.000 HD
ATOM     22  H   UNL     1       1.103  11.556  20.442  0.00  0.00    +0.000 HD
ENDROOT
BRANCH  16  23
ATOM     23  C   UNL     1      -0.768  11.742  21.254  0.00  0.00    +0.000 A 
ATOM     24  C   UNL     1      -1.222  11.002  22.359  0.00  0.00    +0.000 A 
ATOM     25  C   UNL     1      -2.056  11.581  23.322  0.00  0.00    +0.000 A 
ATOM     26  C   UNL     1      -2.428  12.918  23.206  0.00  0.00    +0.000 A 
ATOM     27  C   UNL     1      -1.993  13.669  22.109  0.00  0.00    +0.000 A 
ATOM     28  C   UNL     1      -1.210  13.061  21.117  0.00  0.00    +0.000 A 
BRANCH  27  29
ATOM     29  C   UNL     1      -2.360  15.110  22.030  0.00  0.00    +0.000 C 
ATOM     30  O   UNL     1      -3.184  15.576  22.808  0.00  0.00    +0.000 OA
ATOM     31  N   UNL     1      -1.702  15.851  21.066  0.00  0.00    +0.000 N 
ATOM     32  H   UNL     1      -0.841  15.469  20.689  0.00  0.00    +0.000 HD
BRANCH  31  33
ATOM     33  C   UNL     1      -1.900  17.288  20.939  0.00  0.00    +0.000 C 
ATOM     34  C   UNL     1      -0.572  18.032  21.057  0.00  0.00    +0.000 C 
ATOM     35  C   UNL     1      -2.576  17.609  19.609  0.00  0.00    +0.000 C 
ENDBRANCH  31  33
ENDBRANCH  27  29
ENDBRANCH  16  23
BRANCH  15  36
ATOM     36  C   UNL     1      -2.117  10.709  18.628  0.00  0.00    +0.000 C 
ATOM     37  N   UNL     1      -3.125  11.285  18.614  0.00  0.00    +0.000 NA
ENDBRANCH  15  36
TORSDOF 4
ENDMDL
MODEL 8
REMARK VINA RESULT:      -7.5      6.797      8.787
REMARK  Name = 
REMARK  8 active torsions:
REMARK  status: ('A' for Active; 'I' for Inactive)
REMARK    1  A    between atoms: C_1  and  C_2
REMARK    2  A    between atoms: N_15  and  C_16
REMARK    3  A    between atoms: N_18  and  C_19
REMARK    4  A    between atoms: C_23  and  C_24
REMARK    5  A    between atoms: N_26  and  C_27
REMARK    6  A    between atoms: C_27  and  C_28
REMARK    7  A    between atoms: C_27  and  C_29
REMARK    8  A    between atoms: C_31  and  C_32
REMARK                            x       y       z     vdW  Elec       q    Type
REMARK                         _______ _______ _______ _____ _____    ______ ____
ROOT
ATOM      1  C   UNL     1       8.533  12.400  17.446  0.00  0.00    +0.000 C 
ATOM      2  C   UNL     1       9.822  12.807  18.066  0.00  0.00    +0.000 A 
ATOM      3  C   UNL     1      10.948  12.002  18.079  0.00  0.00    +0.000 A 
ATOM      4  N   UNL     1      11.970  12.703  18.647  0.00  0.00    +0.000 N 
ATOM      5  C   UNL     1      11.534  13.947  19.002  0.00  0.00    +0.000 A 
ATOM      6  N   UNL     1      12.333  14.869  19.550  0.00  0.00    +0.000 NA
ATOM      7  C   UNL     1      11.672  16.008  19.778  0.00  0.00    +0.000 A 
ATOM      8  N   UNL     1      10.371  16.271  19.546  0.00  0.00    +0.000 NA
ATOM      9  C   UNL     1       9.562  15.299  19.034  0.00  0.00    +0.000 A 
ATOM     10  N   UNL     1       8.217  15.596  18.941  0.00  0.00    +0.000 N 
ATOM     11  C   UNL     1       7.169  14.612  19.146  0.00  0.00    +0.000 C 
ATOM     12  C   UNL     1       6.045  15.147  20.049  0.00  0.00    +0.000 C 
ATOM     13  N   UNL     1       5.558  16.474  19.624  0.00  0.00    +0.000 N 
ATOM     14  C   UNL     1       4.248  16.640  19.188  0.00  0.00    +0.000 C 
ATOM     15  N   UNL     1       4.021  17.125  18.004  0.00  0.00    +0.000 NA
ATOM     16  N   UNL     1       3.395  16.280  20.213  0.00  0.00    +0.000 N 
ATOM     17  C   UNL     1       6.624  17.472  19.340  0.00  0.00    +0.000 C 
ATOM     18  C   UNL     1       7.178  17.979  20.675  0.00  0.00    +0.000 C 
ATOM     19  C   UNL     1       7.773  16.908  18.461  0.00  0.00    +0.000 C 
ATOM     20  C   UNL     1      10.180  14.059  18.701  0.00  0.00    +0.000 A 
ATOM     21  H   UNL     1      12.920  12.385  18.772  0.00  0.00    +0.000 HD
ATOM     22  H   UNL     1       3.755  16.482  21.138  0.00  0.00    +0.000 HD
ENDROOT
BRANCH  16  23
ATOM     23  C   UNL     1       2.077  15.797  20.184  0.00  0.00    +0.000 A 
ATOM     24  C   UNL     1       1.014  16.667  20.479  0.00  0.00    +0.000 A 
ATOM     25  C   UNL     1      -0.316  16.255  20.337  0.00  0.00    +0.000 A 
ATOM     26  C   UNL     1      -0.602  14.973  19.874  0.00  0.00    +0.000 A 
ATOM     27  C   UNL     1       0.442  14.090  19.583  0.00  0.00    +0.000 A 
ATOM     28  C   UNL     1       1.770  14.491  19.789  0.00  0.00    +0.000 A 
BRANCH  27  29
ATOM     29  C   UNL     1       0.117  12.742  19.042  0.00  0.00    +0.000 C 
ATOM     30  O   UNL     1      -0.721  12.623  18.155  0.00  0.00    +0.000 OA
ATOM     31  N   UNL     1       0.828  11.685  19.580  0.00  0.00    +0.000 N 
ATOM     32  H   UNL     1       1.691  11.901  20.067  0.00  0.00    +0.000 HD
BRANCH  31  33
ATOM     33  C   UNL     1       0.673  10.326  19.079  0.00  0.00    +0.000 C 
ATOM     34  C   UNL     1       1.783   9.982  18.089  0.00  0.00    +0.000 C 
ATOM     35  C   UNL     1       0.668   9.337  20.241  0.00  0.00    +0.000 C 
ENDBRANCH  31  33
ENDBRANCH  27  29
ENDBRANCH  16  23
BRANCH  15  36
ATOM     36  C   UNL     1       2.787  17.386  17.586  0.00  0.00    +0.000 C 
ATOM     37  N   UNL     1       1.742  17.646  17.151  0.00  0.00    +0.000 NA
ENDBRANCH  15  36
TORSDOF 4
ENDMDL
MODEL 9
REMARK VINA RESULT:      -7.5      2.033      2.401
REMARK  Name = 
REMARK  8 active torsions:
REMARK  status: ('A' for Active; 'I' for Inactive)
REMARK    1  A    between atoms: C_1  and  C_2
REMARK    2  A    between atoms: N_15  and  C_16
REMARK    3  A    between atoms: N_18  and  C_19
REMARK    4  A    between atoms: C_23  and  C_24
REMARK    5  A    between atoms: N_26  and  C_27
REMARK    6  A    between atoms: C_27  and  C_28
REMARK    7  A    between atoms: C_27  and  C_29
REMARK    8  A    between atoms: C_31  and  C_32
REMARK                            x       y       z     vdW  Elec       q    Type
REMARK                         _______ _______ _______ _____ _____    ______ ____
ROOT
ATOM      1  C   UNL     1       1.386   4.695  20.573  0.00  0.00    +0.000 C 
ATOM      2  C   UNL     1       2.750   4.525  20.003  0.00  0.00    +0.000 A 
ATOM      3  C   UNL     1       3.544   3.418  20.247  0.00  0.00    +0.000 A 
ATOM      4  N   UNL     1       4.687   3.540  19.514  0.00  0.00    +0.000 N 
ATOM      5  C   UNL     1       4.653   4.702  18.797  0.00  0.00    +0.000 A 
ATOM      6  N   UNL     1       5.628   5.068  17.958  0.00  0.00    +0.000 NA
ATOM      7  C   UNL     1       5.341   6.229  17.362  0.00  0.00    +0.000 A 
ATOM      8  N   UNL     1       4.257   7.008  17.542  0.00  0.00    +0.000 NA
ATOM      9  C   UNL     1       3.299   6.640  18.442  0.00  0.00    +0.000 A 
ATOM     10  N   UNL     1       2.280   7.544  18.668  0.00  0.00    +0.000 N 
ATOM     11  C   UNL     1       1.654   7.728  19.966  0.00  0.00    +0.000 C 
ATOM     12  C   UNL     1       1.497   9.215  20.324  0.00  0.00    +0.000 C 
ATOM     13  N   UNL     1       0.881  10.000  19.236  0.00  0.00    +0.000 N 
ATOM     14  C   UNL     1      -0.355  10.610  19.415  0.00  0.00    +0.000 C 
ATOM     15  N   UNL     1      -1.335  10.328  18.611  0.00  0.00    +0.000 NA
ATOM     16  N   UNL     1      -0.254  11.507  20.461  0.00  0.00    +0.000 N 
ATOM     17  C   UNL     1       1.466   9.767  17.888  0.00  0.00    +0.000 C 
ATOM     18  C   UNL     1       2.807  10.503  17.810  0.00  0.00    +0.000 C 
ATOM     19  C   UNL     1       1.657   8.263  17.553  0.00  0.00    +0.000 C 
ATOM     20  C   UNL     1       3.479   5.386  19.095  0.00  0.00    +0.000 A 
ATOM     21  H   UNL     1       5.445   2.875  19.468  0.00  0.00    +0.000 HD
ATOM     22  H   UNL     1       0.655  11.946  20.541  0.00  0.00    +0.000 HD
ENDROOT
BRANCH  16  23
ATOM     23  C   UNL     1      -1.227  11.994  21.351  0.00  0.00    +0.000 A 
ATOM     24  C   UNL     1      -1.486  11.297  22.542  0.00  0.00    +0.000 A 
ATOM     25  C   UNL     1      -2.354  11.818  23.508  0.00  0.00    +0.000 A 
ATOM     26  C   UNL     1      -2.955  13.058  23.307  0.00  0.00    +0.000 A 
ATOM     27  C   UNL     1      -2.715  13.763  22.124  0.00  0.00    +0.000 A 
ATOM     28  C   UNL     1      -1.895  13.203  21.134  0.00  0.00    +0.000 A 
BRANCH  27  29
ATOM     29  C   UNL     1      -3.328  15.109  21.950  0.00  0.00    +0.000 C 
ATOM     30  O   UNL     1      -2.907  15.868  21.085  0.00  0.00    +0.000 OA
ATOM     31  N   UNL     1      -4.384  15.407  22.791  0.00  0.00    +0.000 N 
ATOM     32  H   UNL     1      -4.852  14.632  23.247  0.00  0.00    +0.000 HD
BRANCH  31  33
ATOM     33  C   UNL     1      -5.131  16.652  22.669  0.00  0.00    +0.000 C 
ATOM     34  C   UNL     1      -6.630  16.378  22.570  0.00  0.00    +0.000 C 
ATOM     35  C   UNL     1      -4.831  17.562  23.856  0.00  0.00    +0.000 C 
ENDBRANCH  31  33
ENDBRANCH  27  29
ENDBRANCH  16  23
BRANCH  15  36
ATOM     36  C   UNL     1      -2.503  10.957  18.690  0.00  0.00    +0.000 C 
ATOM     37  N   UNL     1      -3.546  11.467  18.691  0.00  0.00    +0.000 NA
ENDBRANCH  15  36
TORSDOF 4
ENDMDL
