MODEL 1
REMARK VINA RESULT:      -8.5      0.000      0.000
REMARK  Name = 
REMARK  7 active torsions:
REMARK  status: ('A' for Active; 'I' for Inactive)
REMARK    1  A    between atoms: C_1  and  C_2
REMARK    2  A    between atoms: C_2  and  C_3
REMARK    3  A    between atoms: C_2  and  N_9
REMARK    4  A    between atoms: N_9  and  C_10
REMARK    5  A    between atoms: N_9  and  C_11
REMARK    6  A    between atoms: C_11  and  C_12
REMARK    7  A    between atoms: N_14  and  C_15
REMARK                            x       y       z     vdW  Elec       q    Type
REMARK                         _______ _______ _______ _____ _____    ______ ____
ROOT
ATOM      1  C   UNL     1       6.609   4.706  18.947  0.00  0.00    +0.000 C 
ATOM      2  O   UNL     1       6.861   5.062  20.092  0.00  0.00    +0.000 OA
ATOM      3  N   UNL     1       5.337   4.291  18.604  0.00  0.00    +0.000 N 
ATOM      4  H   UNL     1       5.083   4.253  17.622  0.00  0.00    +0.000 HD
ENDROOT
BRANCH   3   5
ATOM      5  C   UNL     1       4.285   4.244  19.621  0.00  0.00    +0.000 C 
ATOM      6  C   UNL     1       3.112   5.155  19.224  0.00  0.00    +0.000 C 
ATOM      7  C   UNL     1       1.964   5.241  20.230  0.00  0.00    +0.000 C 
ATOM      8  C   UNL     1       1.084   4.005  20.455  0.00  0.00    +0.000 C 
ATOM      9  C   UNL     1       0.794   3.143  19.226  0.00  0.00    +0.000 C 
ATOM     10  C   UNL     1       1.669   1.893  19.075  0.00  0.00    +0.000 C 
ATOM     11  C   UNL     1       3.149   2.120  18.774  0.00  0.00    +0.000 C 
ATOM     12  C   UNL     1       3.924   2.788  19.907  0.00  0.00    +0.000 C 
ENDBRANCH   3   5
BRANCH   1  13
ATOM     13  C   UNL     1       7.640   4.688  17.797  0.00  0.00    +0.000 C 
BRANCH  13  14
ATOM     14  N   UNL     1       7.368   5.688  16.727  0.00  0.00    +0.000 NA
ATOM     15  C   UNL     1       7.309   7.034  17.299  0.00  0.00    +0.000 C 
BRANCH  14  17
ATOM     16  C   UNL     1       5.167   6.525  15.786  0.00  0.00    +0.000 C 
ATOM     17  C   UNL     1       6.168   5.362  15.900  0.00  0.00    +0.000 C 
BRANCH  17  18
ATOM     18  C   UNL     1       6.519   4.910  14.476  0.00  0.00    +0.000 A 
ATOM     19  C   UNL     1       5.791   3.897  13.873  0.00  0.00    +0.000 A 
ATOM     20  C   UNL     1       6.189   3.522  12.610  0.00  0.00    +0.000 A 
ATOM     21  N   UNL     1       7.221   4.084  11.957  0.00  0.00    +0.000 NA
ATOM     22  C   UNL     1       7.861   5.057  12.623  0.00  0.00    +0.000 A 
ATOM     23  N   UNL     1       7.568   5.500  13.853  0.00  0.00    +0.000 NA
ENDBRANCH  17  18
ENDBRANCH  14  17
ENDBRANCH  13  14
ENDBRANCH   1  13
TORSDOF 5
ENDMDL
MODEL 2
REMARK VINA RESULT:      -7.9      0.610      1.001
REMARK  Name = 
REMARK  7 active torsions:
REMARK  status: ('A' for Active; 'I' for Inactive)
REMARK    1  A    between atoms: C_1  and  C_2
REMARK    2  A    between atoms: C_2  and  C_3
REMARK    3  A    between atoms: C_2  and  N_9
REMARK    4  A    between atoms: N_9  and  C_10
REMARK    5  A    between atoms: N_9  and  C_11
REMARK    6  A    between atoms: C_11  and  C_12
REMARK    7  A    between atoms: N_14  and  C_15
REMARK                            x       y       z     vdW  Elec       q    Type
REMARK                         _______ _______ _______ _____ _____    ______ ____
ROOT
ATOM      1  C   UNL     1       6.604   4.745  18.879  0.00  0.00    +0.000 C 
ATOM      2  O   UNL     1       6.849   5.208  19.987  0.00  0.00    +0.000 OA
ATOM      3  N   UNL     1       5.352   4.236  18.592  0.00  0.00    +0.000 N 
ATOM      4  H   UNL     1       5.088   4.104  17.621  0.00  0.00    +0.000 HD
ENDROOT
BRANCH   3   5
ATOM      5  C   UNL     1       4.315   4.220  19.626  0.00  0.00    +0.000 C 
ATOM      6  C   UNL     1       3.149   5.142  19.235  0.00  0.00    +0.000 C 
ATOM      7  C   UNL     1       2.018   5.258  20.258  0.00  0.00    +0.000 C 
ATOM      8  C   UNL     1       1.125   4.039  20.515  0.00  0.00    +0.000 C 
ATOM      9  C   UNL     1       0.803   3.162  19.304  0.00  0.00    +0.000 C 
ATOM     10  C   UNL     1       1.658   1.899  19.157  0.00  0.00    +0.000 C 
ATOM     11  C   UNL     1       3.136   2.100  18.829  0.00  0.00    +0.000 C 
ATOM     12  C   UNL     1       3.938   2.773  19.939  0.00  0.00    +0.000 C 
ENDBRANCH   3   5
BRANCH   1  13
ATOM     13  C   UNL     1       7.620   4.686  17.718  0.00  0.00    +0.000 C 
BRANCH  13  14
ATOM     14  N   UNL     1       7.353   5.669  16.630  0.00  0.00    +0.000 NA
ATOM     15  C   UNL     1       7.319   7.026  17.177  0.00  0.00    +0.000 C 
BRANCH  14  17
ATOM     16  C   UNL     1       5.171   6.529  15.667  0.00  0.00    +0.000 C 
ATOM     17  C   UNL     1       6.141   5.344  15.821  0.00  0.00    +0.000 C 
BRANCH  17  18
ATOM     18  C   UNL     1       6.473   4.830  14.414  0.00  0.00    +0.000 A 
ATOM     19  C   UNL     1       7.552   5.357  13.722  0.00  0.00    +0.000 A 
ATOM     20  C   UNL     1       7.765   4.872  12.452  0.00  0.00    +0.000 A 
ATOM     21  N   UNL     1       6.992   3.935  11.874  0.00  0.00    +0.000 NA
ATOM     22  C   UNL     1       5.975   3.486  12.624  0.00  0.00    +0.000 A 
ATOM     23  N   UNL     1       5.669   3.887  13.866  0.00  0.00    +0.000 NA
ENDBRANCH  17  18
ENDBRANCH  14  17
ENDBRANCH  13  14
ENDBRANCH   1  13
TORSDOF 5
ENDMDL
MODEL 3
REMARK VINA RESULT:      -7.1      3.835      6.010
REMARK  Name = 
REMARK  7 active torsions:
REMARK  status: ('A' for Active; 'I' for Inactive)
REMARK    1  A    between atoms: C_1  and  C_2
REMARK    2  A    between atoms: C_2  and  C_3
REMARK    3  A    between atoms: C_2  and  N_9
REMARK    4  A    between atoms: N_9  and  C_10
REMARK    5  A    between atoms: N_9  and  C_11
REMARK    6  A    between atoms: C_11  and  C_12
REMARK    7  A    between atoms: N_14  and  C_15
REMARK                            x       y       z     vdW  Elec       q    Type
REMARK                         _______ _______ _______ _____ _____    ______ ____
ROOT
ATOM      1  C   UNL     1       2.210   6.686  19.856  0.00  0.00    +0.000 C 
ATOM      2  O   UNL     1       2.868   7.298  19.023  0.00  0.00    +0.000 OA
ATOM      3  N   UNL     1       1.520   7.364  20.842  0.00  0.00    +0.000 N 
ATOM      4  H   UNL     1       0.787   6.879  21.348  0.00  0.00    +0.000 HD
ENDROOT
BRANCH   3   5
ATOM      5  C   UNL     1       1.599   8.825  20.916  0.00  0.00    +0.000 C 
ATOM      6  C   UNL     1       0.646   9.468  19.897  0.00  0.00    +0.000 C 
ATOM      7  C   UNL     1       0.669  10.996  19.832  0.00  0.00    +0.000 C 
ATOM      8  C   UNL     1       0.126  11.794  21.024  0.00  0.00    +0.000 C 
ATOM      9  C   UNL     1      -1.086  11.204  21.744  0.00  0.00    +0.000 C 
ATOM     10  C   UNL     1      -0.777  10.425  23.028  0.00  0.00    +0.000 C 
ATOM     11  C   UNL     1      -0.019   9.109  22.871  0.00  0.00    +0.000 C 
ATOM     12  C   UNL     1       1.413   9.267  22.366  0.00  0.00    +0.000 C 
ENDBRANCH   3   5
BRANCH   1  13
ATOM     13  C   UNL     1       2.071   5.149  19.893  0.00  0.00    +0.000 C 
BRANCH  13  14
ATOM     14  N   UNL     1       2.867   4.445  18.849  0.00  0.00    +0.000 NA
ATOM     15  C   UNL     1       2.084   3.352  18.272  0.00  0.00    +0.000 C 
BRANCH  14  17
ATOM     16  C   UNL     1       4.267   2.509  19.699  0.00  0.00    +0.000 C 
ATOM     17  C   UNL     1       4.211   4.001  19.325  0.00  0.00    +0.000 C 
BRANCH  17  18
ATOM     18  C   UNL     1       5.331   4.267  18.310  0.00  0.00    +0.000 A 
ATOM     19  C   UNL     1       5.057   4.227  16.952  0.00  0.00    +0.000 A 
ATOM     20  C   UNL     1       6.120   4.440  16.103  0.00  0.00    +0.000 A 
ATOM     21  N   UNL     1       7.373   4.679  16.527  0.00  0.00    +0.000 NA
ATOM     22  C   UNL     1       7.537   4.700  17.858  0.00  0.00    +0.000 A 
ATOM     23  N   UNL     1       6.581   4.503  18.776  0.00  0.00    +0.000 NA
ENDBRANCH  17  18
ENDBRANCH  14  17
ENDBRANCH  13  14
ENDBRANCH   1  13
TORSDOF 5
ENDMDL
MODEL 4
REMARK VINA RESULT:      -7.1      0.864      1.646
REMARK  Name = 
REMARK  7 active torsions:
REMARK  status: ('A' for Active; 'I' for Inactive)
REMARK    1  A    between atoms: C_1  and  C_2
REMARK    2  A    between atoms: C_2  and  C_3
REMARK    3  A    between atoms: C_2  and  N_9
REMARK    4  A    between atoms: N_9  and  C_10
REMARK    5  A    between atoms: N_9  and  C_11
REMARK    6  A    between atoms: C_11  and  C_12
REMARK    7  A    between atoms: N_14  and  C_15
REMARK                            x       y       z     vdW  Elec       q    Type
REMARK                         _______ _______ _______ _____ _____    ______ ____
ROOT
ATOM      1  C   UNL     1       6.038   4.325  18.605  0.00  0.00    +0.000 C 
ATOM      2  O   UNL     1       5.707   4.838  19.668  0.00  0.00    +0.000 OA
ATOM      3  N   UNL     1       5.196   3.441  17.959  0.00  0.00    +0.000 N 
ATOM      4  H   UNL     1       5.362   3.235  16.979  0.00  0.00    +0.000 HD
ENDROOT
BRANCH   3   5
ATOM      5  C   UNL     1       3.909   3.087  18.560  0.00  0.00    +0.000 C 
ATOM      6  C   UNL     1       4.003   3.126  20.094  0.00  0.00    +0.000 C 
ATOM      7  C   UNL     1       2.736   2.722  20.851  0.00  0.00    +0.000 C 
ATOM      8  C   UNL     1       1.510   3.641  20.783  0.00  0.00    +0.000 C 
ATOM      9  C   UNL     1       1.786   5.144  20.755  0.00  0.00    +0.000 C 
ATOM     10  C   UNL     1       1.749   5.797  19.368  0.00  0.00    +0.000 C 
ATOM     11  C   UNL     1       2.855   5.407  18.392  0.00  0.00    +0.000 C 
ATOM     12  C   UNL     1       2.809   3.948  17.943  0.00  0.00    +0.000 C 
ENDBRANCH   3   5
BRANCH   1  13
ATOM     13  C   UNL     1       7.378   4.602  17.889  0.00  0.00    +0.000 C 
BRANCH  13  14
ATOM     14  N   UNL     1       7.277   5.596  16.783  0.00  0.00    +0.000 NA
ATOM     15  C   UNL     1       7.330   6.955  17.323  0.00  0.00    +0.000 C 
BRANCH  14  17
ATOM     16  C   UNL     1       5.196   6.615  15.751  0.00  0.00    +0.000 C 
ATOM     17  C   UNL     1       6.099   5.376  15.892  0.00  0.00    +0.000 C 
BRANCH  17  18
ATOM     18  C   UNL     1       6.485   4.921  14.479  0.00  0.00    +0.000 A 
ATOM     19  C   UNL     1       5.763   3.917  13.854  0.00  0.00    +0.000 A 
ATOM     20  C   UNL     1       6.193   3.538  12.602  0.00  0.00    +0.000 A 
ATOM     21  N   UNL     1       7.251   4.086  11.981  0.00  0.00    +0.000 NA
ATOM     22  C   UNL     1       7.884   5.051  12.666  0.00  0.00    +0.000 A 
ATOM     23  N   UNL     1       7.560   5.497  13.887  0.00  0.00    +0.000 NA
ENDBRANCH  17  18
ENDBRANCH  14  17
ENDBRANCH  13  14
ENDBRANCH   1  13
TORSDOF 5
ENDMDL
MODEL 5
REMARK VINA RESULT:      -6.9      5.073      8.100
REMARK  Name = 
REMARK  7 active torsions:
REMARK  status: ('A' for Active; 'I' for Inactive)
REMARK    1  A    between atoms: C_1  and  C_2
REMARK    2  A    between atoms: C_2  and  C_3
REMARK    3  A    between atoms: C_2  and  N_9
REMARK    4  A    between atoms: N_9  and  C_10
REMARK    5  A    between atoms: N_9  and  C_11
REMARK    6  A    between atoms: C_11  and  C_12
REMARK    7  A    between atoms: N_14  and  C_15
REMARK                            x       y       z     vdW  Elec       q    Type
REMARK                         _______ _______ _______ _____ _____    ______ ____
ROOT
ATOM      1  C   UNL     1       2.672   8.023  18.165  0.00  0.00    +0.000 C 
ATOM      2  O   UNL     1       3.747   7.660  17.701  0.00  0.00    +0.000 OA
ATOM      3  N   UNL     1       2.034   7.269  19.131  0.00  0.00    +0.000 N 
ATOM      4  H   UNL     1       1.299   7.701  19.682  0.00  0.00    +0.000 HD
ENDROOT
BRANCH   3   5
ATOM      5  C   UNL     1       2.627   6.010  19.585  0.00  0.00    +0.000 C 
ATOM      6  C   UNL     1       1.822   5.428  20.758  0.00  0.00    +0.000 C 
ATOM      7  C   UNL     1       2.367   4.134  21.365  0.00  0.00    +0.000 C 
ATOM      8  C   UNL     1       2.313   2.847  20.533  0.00  0.00    +0.000 C 
ATOM      9  C   UNL     1       1.087   2.666  19.638  0.00  0.00    +0.000 C 
ATOM     10  C   UNL     1       1.285   3.035  18.163  0.00  0.00    +0.000 C 
ATOM     11  C   UNL     1       1.506   4.512  17.846  0.00  0.00    +0.000 C 
ATOM     12  C   UNL     1       2.815   5.081  18.388  0.00  0.00    +0.000 C 
ENDBRANCH   3   5
BRANCH   1  13
ATOM     13  C   UNL     1       1.940   9.316  17.748  0.00  0.00    +0.000 C 
BRANCH  13  14
ATOM     14  N   UNL     1       0.786   9.666  18.624  0.00  0.00    +0.000 NA
ATOM     15  C   UNL     1      -0.413   9.881  17.812  0.00  0.00    +0.000 C 
BRANCH  14  17
ATOM     16  C   UNL     1       0.623  12.169  18.995  0.00  0.00    +0.000 C 
ATOM     17  C   UNL     1       1.065  10.803  19.550  0.00  0.00    +0.000 C 
BRANCH  17  18
ATOM     18  C   UNL     1       0.419  10.632  20.931  0.00  0.00    +0.000 A 
ATOM     19  C   UNL     1      -0.380  11.638  21.450  0.00  0.00    +0.000 A 
ATOM     20  C   UNL     1      -0.895  11.427  22.709  0.00  0.00    +0.000 A 
ATOM     21  N   UNL     1      -0.662  10.317  23.431  0.00  0.00    +0.000 NA
ATOM     22  C   UNL     1       0.121   9.401  22.842  0.00  0.00    +0.000 A 
ATOM     23  N   UNL     1       0.679   9.500  21.628  0.00  0.00    +0.000 NA
ENDBRANCH  17  18
ENDBRANCH  14  17
ENDBRANCH  13  14
ENDBRANCH   1  13
TORSDOF 5
ENDMDL
MODEL 6
REMARK VINA RESULT:      -6.8      3.859      6.176
REMARK  Name = 
REMARK  7 active torsions:
REMARK  status: ('A' for Active; 'I' for Inactive)
REMARK    1  A    between atoms: C_1  and  C_2
REMARK    2  A    between atoms: C_2  and  C_3
REMARK    3  A    between atoms: C_2  and  N_9
REMARK    4  A    between atoms: N_9  and  C_10
REMARK    5  A    between atoms: N_9  and  C_11
REMARK    6  A    between atoms: C_11  and  C_12
REMARK    7  A    between atoms: N_14  and  C_15
REMARK                            x       y       z     vdW  Elec       q    Type
REMARK                         _______ _______ _______ _____ _____    ______ ____
ROOT
ATOM      1  C   UNL     1       2.199   6.704  19.949  0.00  0.00    +0.000 C 
ATOM      2  O   UNL     1       2.999   7.302  19.239  0.00  0.00    +0.000 OA
ATOM      3  N   UNL     1       1.384   7.395  20.826  0.00  0.00    +0.000 N 
ATOM      4  H   UNL     1       0.566   6.929  21.204  0.00  0.00    +0.000 HD
ENDROOT
BRANCH   3   5
ATOM      5  C   UNL     1       1.497   8.851  20.934  0.00  0.00    +0.000 C 
ATOM      6  C   UNL     1       0.562   9.539  19.926  0.00  0.00    +0.000 C 
ATOM      7  C   UNL     1       0.621  11.067  19.897  0.00  0.00    +0.000 C 
ATOM      8  C   UNL     1       0.092  11.850  21.104  0.00  0.00    +0.000 C 
ATOM      9  C   UNL     1      -1.136  11.272  21.807  0.00  0.00    +0.000 C 
ATOM     10  C   UNL     1      -0.850  10.457  23.074  0.00  0.00    +0.000 C 
ATOM     11  C   UNL     1      -0.122   9.128  22.889  0.00  0.00    +0.000 C 
ATOM     12  C   UNL     1       1.315   9.264  22.393  0.00  0.00    +0.000 C 
ENDBRANCH   3   5
BRANCH   1  13
ATOM     13  C   UNL     1       2.008   5.172  19.941  0.00  0.00    +0.000 C 
BRANCH  13  14
ATOM     14  N   UNL     1       2.785   4.472  18.880  0.00  0.00    +0.000 NA
ATOM     15  C   UNL     1       1.950   3.459  18.233  0.00  0.00    +0.000 C 
BRANCH  14  17
ATOM     16  C   UNL     1       4.129   2.385  19.400  0.00  0.00    +0.000 C 
ATOM     17  C   UNL     1       4.088   3.924  19.361  0.00  0.00    +0.000 C 
BRANCH  17  18
ATOM     18  C   UNL     1       5.287   4.399  18.531  0.00  0.00    +0.000 A 
ATOM     19  C   UNL     1       6.245   5.219  19.107  0.00  0.00    +0.000 A 
ATOM     20  C   UNL     1       7.272   5.633  18.289  0.00  0.00    +0.000 A 
ATOM     21  N   UNL     1       7.380   5.285  16.995  0.00  0.00    +0.000 NA
ATOM     22  C   UNL     1       6.405   4.488  16.531  0.00  0.00    +0.000 A 
ATOM     23  N   UNL     1       5.359   4.027  17.230  0.00  0.00    +0.000 NA
ENDBRANCH  17  18
ENDBRANCH  14  17
ENDBRANCH  13  14
ENDBRANCH   1  13
TORSDOF 5
ENDMDL
MODEL 7
REMARK VINA RESULT:      -6.8      1.650      2.446
REMARK  Name = 
REMARK  7 active torsions:
REMARK  status: ('A' for Active; 'I' for Inactive)
REMARK    1  A    between atoms: C_1  and  C_2
REMARK    2  A    between atoms: C_2  and  C_3
REMARK    3  A    between atoms: C_2  and  N_9
REMARK    4  A    between atoms: N_9  and  C_10
REMARK    5  A    between atoms: N_9  and  C_11
REMARK    6  A    between atoms: C_11  and  C_12
REMARK    7  A    between atoms: N_14  and  C_15
REMARK                            x       y       z     vdW  Elec       q    Type
REMARK                         _______ _______ _______ _____ _____    ______ ____
ROOT
ATOM      1  C   UNL     1       4.157   6.887  17.295  0.00  0.00    +0.000 C 
ATOM      2  O   UNL     1       3.295   7.740  17.479  0.00  0.00    +0.000 OA
ATOM      3  N   UNL     1       3.946   5.580  17.688  0.00  0.00    +0.000 N 
ATOM      4  H   UNL     1       4.538   4.852  17.302  0.00  0.00    +0.000 HD
ENDROOT
BRANCH   3   5
ATOM      5  C   UNL     1       2.698   5.211  18.359  0.00  0.00    +0.000 C 
ATOM      6  C   UNL     1       2.070   3.980  17.688  0.00  0.00    +0.000 C 
ATOM      7  C   UNL     1       0.728   3.519  18.260  0.00  0.00    +0.000 C 
ATOM      8  C   UNL     1       0.694   2.917  19.670  0.00  0.00    +0.000 C 
ATOM      9  C   UNL     1       1.890   2.054  20.072  0.00  0.00    +0.000 C 
ATOM     10  C   UNL     1       2.955   2.755  20.922  0.00  0.00    +0.000 C 
ATOM     11  C   UNL     1       3.765   3.857  20.243  0.00  0.00    +0.000 C 
ATOM     12  C   UNL     1       2.950   5.089  19.860  0.00  0.00    +0.000 C 
ENDBRANCH   3   5
BRANCH   1  13
ATOM     13  C   UNL     1       5.519   7.161  16.621  0.00  0.00    +0.000 C 
BRANCH  13  14
ATOM     14  N   UNL     1       6.691   6.907  17.504  0.00  0.00    +0.000 NA
ATOM     15  C   UNL     1       7.590   8.062  17.491  0.00  0.00    +0.000 C 
BRANCH  14  17
ATOM     16  C   UNL     1       7.128   4.518  18.236  0.00  0.00    +0.000 C 
ATOM     17  C   UNL     1       7.397   5.626  17.201  0.00  0.00    +0.000 C 
BRANCH  17  18
ATOM     18  C   UNL     1       7.056   5.060  15.816  0.00  0.00    +0.000 A 
ATOM     19  C   UNL     1       6.120   4.046  15.695  0.00  0.00    +0.000 A 
ATOM     20  C   UNL     1       5.894   3.565  14.425  0.00  0.00    +0.000 A 
ATOM     21  N   UNL     1       6.525   4.028  13.332  0.00  0.00    +0.000 NA
ATOM     22  C   UNL     1       7.411   5.010  13.552  0.00  0.00    +0.000 A 
ATOM     23  N   UNL     1       7.715   5.552  14.739  0.00  0.00    +0.000 NA
ENDBRANCH  17  18
ENDBRANCH  14  17
ENDBRANCH  13  14
ENDBRANCH   1  13
TORSDOF 5
ENDMDL
MODEL 8
REMARK VINA RESULT:      -6.8      6.026      8.149
REMARK  Name = 
REMARK  7 active torsions:
REMARK  status: ('A' for Active; 'I' for Inactive)
REMARK    1  A    between atoms: C_1  and  C_2
REMARK    2  A    between atoms: C_2  and  C_3
REMARK    3  A    between atoms: C_2  and  N_9
REMARK    4  A    between atoms: N_9  and  C_10
REMARK    5  A    between atoms: N_9  and  C_11
REMARK    6  A    between atoms: C_11  and  C_12
REMARK    7  A    between atoms: N_14  and  C_15
REMARK                            x       y       z     vdW  Elec       q    Type
REMARK                         _______ _______ _______ _____ _____    ______ ____
ROOT
ATOM      1  C   UNL     1       1.921   8.421  18.528  0.00  0.00    +0.000 C 
ATOM      2  O   UNL     1       2.175   8.708  17.364  0.00  0.00    +0.000 OA
ATOM      3  N   UNL     1       2.284   7.192  19.045  0.00  0.00    +0.000 N 
ATOM      4  H   UNL     1       2.305   7.072  20.052  0.00  0.00    +0.000 HD
ENDROOT
BRANCH   3   5
ATOM      5  C   UNL     1       2.950   6.208  18.188  0.00  0.00    +0.000 C 
ATOM      6  C   UNL     1       4.220   5.675  18.869  0.00  0.00    +0.000 C 
ATOM      7  C   UNL     1       5.043   4.674  18.056  0.00  0.00    +0.000 C 
ATOM      8  C   UNL     1       4.459   3.283  17.786  0.00  0.00    +0.000 C 
ATOM      9  C   UNL     1       3.629   2.662  18.911  0.00  0.00    +0.000 C 
ATOM     10  C   UNL     1       2.109   2.797  18.762  0.00  0.00    +0.000 C 
ATOM     11  C   UNL     1       1.527   4.204  18.881  0.00  0.00    +0.000 C 
ATOM     12  C   UNL     1       1.938   5.150  17.755  0.00  0.00    +0.000 C 
ENDBRANCH   3   5
BRANCH   1  13
ATOM     13  C   UNL     1       1.203   9.365  19.517  0.00  0.00    +0.000 C 
BRANCH  13  14
ATOM     14  N   UNL     1       0.503  10.506  18.863  0.00  0.00    +0.000 NA
ATOM     15  C   UNL     1       1.320  11.716  18.956  0.00  0.00    +0.000 C 
BRANCH  14  17
ATOM     16  C   UNL     1      -1.072  12.019  20.151  0.00  0.00    +0.000 C 
ATOM     17  C   UNL     1      -0.890  10.712  19.359  0.00  0.00    +0.000 C 
BRANCH  17  18
ATOM     18  C   UNL     1      -1.940  10.696  18.240  0.00  0.00    +0.000 A 
ATOM     19  C   UNL     1      -1.753   9.890  17.128  0.00  0.00    +0.000 A 
ATOM     20  C   UNL     1      -2.719   9.958  16.150  0.00  0.00    +0.000 A 
ATOM     21  N   UNL     1      -3.804  10.749  16.230  0.00  0.00    +0.000 NA
ATOM     22  C   UNL     1      -3.896  11.489  17.344  0.00  0.00    +0.000 A 
ATOM     23  N   UNL     1      -3.018  11.509  18.356  0.00  0.00    +0.000 NA
ENDBRANCH  17  18
ENDBRANCH  14  17
ENDBRANCH  13  14
ENDBRANCH   1  13
TORSDOF 5
ENDMDL
MODEL 9
REMARK VINA RESULT:      -6.8      5.917      8.082
REMARK  Name = 
REMARK  7 active torsions:
REMARK  status: ('A' for Active; 'I' for Inactive)
REMARK    1  A    between atoms: C_1  and  C_2
REMARK    2  A    between atoms: C_2  and  C_3
REMARK    3  A    between atoms: C_2  and  N_9
REMARK    4  A    between atoms: N_9  and  C_10
REMARK    5  A    between atoms: N_9  and  C_11
REMARK    6  A    between atoms: C_11  and  C_12
REMARK    7  A    between atoms: N_14  and  C_15
REMARK                            x       y       z     vdW  Elec       q    Type
REMARK                         _______ _______ _______ _____ _____    ______ ____
ROOT
ATOM      1  C   UNL     1       1.996   8.364  18.575  0.00  0.00    +0.000 C 
ATOM      2  O   UNL     1       2.303   8.620  17.416  0.00  0.00    +0.000 OA
ATOM      3  N   UNL     1       2.311   7.140  19.131  0.00  0.00    +0.000 N 
ATOM      4  H   UNL     1       2.289   7.041  20.141  0.00  0.00    +0.000 HD
ENDROOT
BRANCH   3   5
ATOM      5  C   UNL     1       2.989   6.124  18.324  0.00  0.00    +0.000 C 
ATOM      6  C   UNL     1       4.216   5.575  19.070  0.00  0.00    +0.000 C 
ATOM      7  C   UNL     1       5.050   4.540  18.313  0.00  0.00    +0.000 C 
ATOM      8  C   UNL     1       4.445   3.157  18.045  0.00  0.00    +0.000 C 
ATOM      9  C   UNL     1       3.553   2.578  19.143  0.00  0.00    +0.000 C 
ATOM     10  C   UNL     1       2.044   2.745  18.925  0.00  0.00    +0.000 C 
ATOM     11  C   UNL     1       1.491   4.167  18.991  0.00  0.00    +0.000 C 
ATOM     12  C   UNL     1       1.972   5.080  17.867  0.00  0.00    +0.000 C 
ENDBRANCH   3   5
BRANCH   1  13
ATOM     13  C   UNL     1       1.259   9.344  19.513  0.00  0.00    +0.000 C 
BRANCH  13  14
ATOM     14  N   UNL     1       0.521  10.425  18.800  0.00  0.00    +0.000 NA
ATOM     15  C   UNL     1       1.295  11.666  18.833  0.00  0.00    +0.000 C 
BRANCH  14  17
ATOM     16  C   UNL     1      -1.073  11.864  20.147  0.00  0.00    +0.000 C 
ATOM     17  C   UNL     1      -0.880  10.606  19.282  0.00  0.00    +0.000 C 
BRANCH  17  18
ATOM     18  C   UNL     1      -1.908  10.663  18.144  0.00  0.00    +0.000 A 
ATOM     19  C   UNL     1      -3.037  11.457  18.271  0.00  0.00    +0.000 A 
ATOM     20  C   UNL     1      -3.931  11.427  17.225  0.00  0.00    +0.000 A 
ATOM     21  N   UNL     1      -3.757  10.684  16.119  0.00  0.00    +0.000 NA
ATOM     22  C   UNL     1      -2.634   9.951  16.089  0.00  0.00    +0.000 A 
ATOM     23  N   UNL     1      -1.698   9.897  17.046  0.00  0.00    +0.000 NA
ENDBRANCH  17  18
ENDBRANCH  14  17
ENDBRANCH  13  14
ENDBRANCH   1  13
TORSDOF 5
ENDMDL
