MODEL 1
REMARK VINA RESULT:      -9.0      0.000      0.000
REMARK  Name = 
REMARK  13 active torsions:
REMARK  status: ('A' for Active; 'I' for Inactive)
REMARK    1  A    between atoms: C_1  and  C_2
REMARK    2  A    between atoms: C_3  and  N_4
REMARK    3  A    between atoms: N_4  and  S_5
REMARK    4  A    between atoms: S_5  and  C_8
REMARK    5  A    between atoms: C_11  and  C_12
REMARK    6  A    between atoms: C_16  and  C_17
REMARK    7  A    between atoms: C_17  and  N_18
REMARK    8  A    between atoms: N_21  and  C_22
REMARK    9  A    between atoms: C_28  and  C_29
REMARK   10  A    between atoms: C_29  and  C_30
REMARK   11  A    between atoms: C_30  and  C_31
REMARK   12  A    between atoms: C_30  and  C_32
REMARK   13  A    between atoms: N_34  and  C_35
REMARK                            x       y       z     vdW  Elec       q    Type
REMARK                         _______ _______ _______ _____ _____    ______ ____
ROOT
ATOM      1  C   UNL     1       1.273   9.299  19.696  0.00  0.00    +0.000 A 
ATOM      2  C   UNL     1       1.661   9.550  18.385  0.00  0.00    +0.000 A 
ATOM      3  C   UNL     1       2.400   8.586  17.701  0.00  0.00    +0.000 A 
ATOM      4  C   UNL     1       2.804   7.388  18.315  0.00  0.00    +0.000 A 
ATOM      5  C   UNL     1       2.423   7.183  19.654  0.00  0.00    +0.000 A 
ATOM      6  C   UNL     1       1.660   8.129  20.344  0.00  0.00    +0.000 A 
ENDROOT
BRANCH   4   7
ATOM      7  C   UNL     1       3.594   6.388  17.560  0.00  0.00    +0.000 A 
ATOM      8  C   UNL     1       4.630   6.777  16.693  0.00  0.00    +0.000 A 
ATOM      9  C   UNL     1       5.364   5.837  15.962  0.00  0.00    +0.000 A 
ATOM     10  C   UNL     1       5.076   4.483  16.085  0.00  0.00    +0.000 A 
ATOM     11  C   UNL     1       4.040   4.059  16.922  0.00  0.00    +0.000 A 
ATOM     12  C   UNL     1       3.321   5.016  17.661  0.00  0.00    +0.000 A 
BRANCH  11  13
ATOM     13  C   UNL     1       3.683   2.596  17.049  0.00  0.00    +0.000 C 
BRANCH  13  14
ATOM     14  N   UNL     1       3.311   2.186  18.407  0.00  0.00    +0.000 NA
ATOM     15  C   UNL     1       1.915   2.577  18.692  0.00  0.00    +0.000 C 
ATOM     16  C   UNL     1       1.474   2.158  20.115  0.00  0.00    +0.000 C 
ATOM     17  N   UNL     1       2.354   2.624  21.206  0.00  0.00    +0.000 NA
ATOM     18  C   UNL     1       2.186   4.049  21.472  0.00  0.00    +0.000 C 
ATOM     19  C   UNL     1       3.753   2.302  20.863  0.00  0.00    +0.000 C 
ATOM     20  C   UNL     1       4.191   2.748  19.449  0.00  0.00    +0.000 C 
ENDBRANCH  13  14
ENDBRANCH  11  13
ENDBRANCH   4   7
BRANCH   1  21
ATOM     21  S   UNL     1       0.211  10.466  20.520  0.00  0.00    +0.000 S 
ATOM     22  O   UNL     1       1.031  11.315  21.346  0.00  0.00    +0.000 OA
ATOM     23  O   UNL     1      -0.913   9.719  21.050  0.00  0.00    +0.000 OA
BRANCH  21  24
ATOM     24  N   UNL     1      -0.359  11.290  19.153  0.00  0.00    +0.000 N 
ATOM     25  H   UNL     1       0.188  11.023  18.342  0.00  0.00    +0.000 HD
BRANCH  24  28
ATOM     26  C   UNL     1      -2.346   9.773  16.989  0.00  0.00    +0.000 C 
ATOM     27  C   UNL     1      -2.571  10.821  18.020  0.00  0.00    +0.000 A 
ATOM     28  C   UNL     1      -1.737  11.428  18.945  0.00  0.00    +0.000 A 
ATOM     29  C   UNL     1      -2.577  12.314  19.668  0.00  0.00    +0.000 A 
ATOM     30  N   UNL     1      -3.829  12.283  19.218  0.00  0.00    +0.000 NA
ATOM     31  N   UNL     1      -3.812  11.343  18.263  0.00  0.00    +0.000 N 
ATOM     32  C   UNL     1      -5.067  10.987  17.640  0.00  0.00    +0.000 C 
BRANCH  29  33
ATOM     33  C   UNL     1      -2.250  13.171  20.849  0.00  0.00    +0.000 C 
BRANCH  33  34
ATOM     34  C   UNL     1      -2.416  12.531  22.236  0.00  0.00    +0.000 C 
ATOM     35  C   UNL     1      -1.397  13.053  23.250  0.00  0.00    +0.000 C 
ATOM     36  C   UNL     1      -3.833  12.825  22.740  0.00  0.00    +0.000 C 
ENDBRANCH  33  34
ENDBRANCH  29  33
ENDBRANCH  24  28
ENDBRANCH  21  24
ENDBRANCH   1  21
TORSDOF 8
ENDMDL
MODEL 2
REMARK VINA RESULT:      -8.9      1.706      3.313
REMARK  Name = 
REMARK  13 active torsions:
REMARK  status: ('A' for Active; 'I' for Inactive)
REMARK    1  A    between atoms: C_1  and  C_2
REMARK    2  A    between atoms: C_3  and  N_4
REMARK    3  A    between atoms: N_4  and  S_5
REMARK    4  A    between atoms: S_5  and  C_8
REMARK    5  A    between atoms: C_11  and  C_12
REMARK    6  A    between atoms: C_16  and  C_17
REMARK    7  A    between atoms: C_17  and  N_18
REMARK    8  A    between atoms: N_21  and  C_22
REMARK    9  A    between atoms: C_28  and  C_29
REMARK   10  A    between atoms: C_29  and  C_30
REMARK   11  A    between atoms: C_30  and  C_31
REMARK   12  A    between atoms: C_30  and  C_32
REMARK   13  A    between atoms: N_34  and  C_35
REMARK                            x       y       z     vdW  Elec       q    Type
REMARK                         _______ _______ _______ _____ _____    ______ ____
ROOT
ATOM      1  C   UNL     1       1.068  10.122  19.972  0.00  0.00    +0.000 A 
ATOM      2  C   UNL     1       1.588   9.638  18.778  0.00  0.00    +0.000 A 
ATOM      3  C   UNL     1       1.949   8.294  18.691  0.00  0.00    +0.000 A 
ATOM      4  C   UNL     1       1.846   7.426  19.791  0.00  0.00    +0.000 A 
ATOM      5  C   UNL     1       1.347   7.959  20.995  0.00  0.00    +0.000 A 
ATOM      6  C   UNL     1       0.956   9.298  21.089  0.00  0.00    +0.000 A 
ENDROOT
BRANCH   4   7
ATOM      7  C   UNL     1       2.244   6.006  19.666  0.00  0.00    +0.000 A 
ATOM      8  C   UNL     1       2.166   5.124  20.759  0.00  0.00    +0.000 A 
ATOM      9  C   UNL     1       2.561   3.788  20.651  0.00  0.00    +0.000 A 
ATOM     10  C   UNL     1       3.044   3.301  19.442  0.00  0.00    +0.000 A 
ATOM     11  C   UNL     1       3.154   4.152  18.337  0.00  0.00    +0.000 A 
ATOM     12  C   UNL     1       2.739   5.490  18.459  0.00  0.00    +0.000 A 
BRANCH  11  13
ATOM     13  C   UNL     1       3.707   3.658  17.020  0.00  0.00    +0.000 C 
BRANCH  13  14
ATOM     14  N   UNL     1       5.123   3.978  16.808  0.00  0.00    +0.000 NA
ATOM     15  C   UNL     1       5.756   4.356  18.088  0.00  0.00    +0.000 C 
ATOM     16  C   UNL     1       7.256   4.696  17.915  0.00  0.00    +0.000 C 
ATOM     17  N   UNL     1       7.552   5.719  16.891  0.00  0.00    +0.000 NA
ATOM     18  C   UNL     1       7.204   7.062  17.345  0.00  0.00    +0.000 C 
ATOM     19  C   UNL     1       6.841   5.370  15.645  0.00  0.00    +0.000 C 
ATOM     20  C   UNL     1       5.337   5.059  15.826  0.00  0.00    +0.000 C 
ENDBRANCH  13  14
ENDBRANCH  11  13
ENDBRANCH   4   7
BRANCH   1  21
ATOM     21  S   UNL     1       0.475  11.799  20.039  0.00  0.00    +0.000 S 
ATOM     22  O   UNL     1       0.448  12.319  18.695  0.00  0.00    +0.000 OA
ATOM     23  O   UNL     1       1.189  12.462  21.112  0.00  0.00    +0.000 OA
BRANCH  21  24
ATOM     24  N   UNL     1      -1.086  11.488  20.618  0.00  0.00    +0.000 N 
ATOM     25  H   UNL     1      -1.176  11.843  21.564  0.00  0.00    +0.000 HD
BRANCH  24  28
ATOM     26  C   UNL     1      -1.864  10.048  17.745  0.00  0.00    +0.000 C 
ATOM     27  C   UNL     1      -2.510  11.107  18.563  0.00  0.00    +0.000 A 
ATOM     28  C   UNL     1      -2.193  11.683  19.783  0.00  0.00    +0.000 A 
ATOM     29  C   UNL     1      -3.241  12.606  20.035  0.00  0.00    +0.000 A 
ATOM     30  N   UNL     1      -4.129  12.626  19.044  0.00  0.00    +0.000 NA
ATOM     31  N   UNL     1      -3.697  11.683  18.196  0.00  0.00    +0.000 N 
ATOM     32  C   UNL     1      -4.518  11.377  17.046  0.00  0.00    +0.000 C 
BRANCH  29  33
ATOM     33  C   UNL     1      -3.481  13.453  21.243  0.00  0.00    +0.000 C 
BRANCH  33  34
ATOM     34  C   UNL     1      -4.165  12.773  22.440  0.00  0.00    +0.000 C 
ATOM     35  C   UNL     1      -3.164  12.279  23.486  0.00  0.00    +0.000 C 
ATOM     36  C   UNL     1      -5.123  13.779  23.088  0.00  0.00    +0.000 C 
ENDBRANCH  33  34
ENDBRANCH  29  33
ENDBRANCH  24  28
ENDBRANCH  21  24
ENDBRANCH   1  21
TORSDOF 8
ENDMDL
MODEL 3
REMARK VINA RESULT:      -8.7      1.757      3.677
REMARK  Name = 
REMARK  13 active torsions:
REMARK  status: ('A' for Active; 'I' for Inactive)
REMARK    1  A    between atoms: C_1  and  C_2
REMARK    2  A    between atoms: C_3  and  N_4
REMARK    3  A    between atoms: N_4  and  S_5
REMARK    4  A    between atoms: S_5  and  C_8
REMARK    5  A    between atoms: C_11  and  C_12
REMARK    6  A    between atoms: C_16  and  C_17
REMARK    7  A    between atoms: C_17  and  N_18
REMARK    8  A    between atoms: N_21  and  C_22
REMARK    9  A    between atoms: C_28  and  C_29
REMARK   10  A    between atoms: C_29  and  C_30
REMARK   11  A    between atoms: C_30  and  C_31
REMARK   12  A    between atoms: C_30  and  C_32
REMARK   13  A    between atoms: N_34  and  C_35
REMARK                            x       y       z     vdW  Elec       q    Type
REMARK                         _______ _______ _______ _____ _____    ______ ____
ROOT
ATOM      1  C   UNL     1       0.902   9.937  20.064  0.00  0.00    +0.000 A 
ATOM      2  C   UNL     1       0.646   9.146  21.178  0.00  0.00    +0.000 A 
ATOM      3  C   UNL     1       1.099   7.828  21.191  0.00  0.00    +0.000 A 
ATOM      4  C   UNL     1       1.765   7.262  20.091  0.00  0.00    +0.000 A 
ATOM      5  C   UNL     1       1.978   8.082  18.967  0.00  0.00    +0.000 A 
ATOM      6  C   UNL     1       1.553   9.413  18.949  0.00  0.00    +0.000 A 
ENDROOT
BRANCH   4   7
ATOM      7  C   UNL     1       2.228   5.856  20.137  0.00  0.00    +0.000 A 
ATOM      8  C   UNL     1       1.597   4.903  20.956  0.00  0.00    +0.000 A 
ATOM      9  C   UNL     1       2.044   3.580  21.019  0.00  0.00    +0.000 A 
ATOM     10  C   UNL     1       3.135   3.179  20.259  0.00  0.00    +0.000 A 
ATOM     11  C   UNL     1       3.801   4.101  19.446  0.00  0.00    +0.000 A 
ATOM     12  C   UNL     1       3.330   5.425  19.384  0.00  0.00    +0.000 A 
BRANCH  11  13
ATOM     13  C   UNL     1       5.012   3.701  18.634  0.00  0.00    +0.000 C 
BRANCH  13  14
ATOM     14  N   UNL     1       5.481   4.738  17.709  0.00  0.00    +0.000 NA
ATOM     15  C   UNL     1       4.797   4.605  16.406  0.00  0.00    +0.000 C 
ATOM     16  C   UNL     1       5.255   5.684  15.397  0.00  0.00    +0.000 C 
ATOM     17  N   UNL     1       6.715   5.765  15.187  0.00  0.00    +0.000 NA
ATOM     18  C   UNL     1       7.211   4.659  14.373  0.00  0.00    +0.000 C 
ATOM     19  C   UNL     1       7.387   5.809  16.500  0.00  0.00    +0.000 C 
ATOM     20  C   UNL     1       6.940   4.710  17.491  0.00  0.00    +0.000 C 
ENDBRANCH  13  14
ENDBRANCH  11  13
ENDBRANCH   4   7
BRANCH   1  21
ATOM     21  S   UNL     1       0.450  11.658  20.105  0.00  0.00    +0.000 S 
ATOM     22  O   UNL     1       0.455  12.157  18.754  0.00  0.00    +0.000 OA
ATOM     23  O   UNL     1       1.224  12.277  21.163  0.00  0.00    +0.000 OA
BRANCH  21  24
ATOM     24  N   UNL     1      -1.127  11.486  20.700  0.00  0.00    +0.000 N 
ATOM     25  H   UNL     1      -1.193  11.909  21.620  0.00  0.00    +0.000 HD
BRANCH  24  28
ATOM     26  C   UNL     1      -1.866  10.082  17.799  0.00  0.00    +0.000 C 
ATOM     27  C   UNL     1      -2.521  11.135  18.619  0.00  0.00    +0.000 A 
ATOM     28  C   UNL     1      -2.221  11.695  19.851  0.00  0.00    +0.000 A 
ATOM     29  C   UNL     1      -3.270  12.618  20.098  0.00  0.00    +0.000 A 
ATOM     30  N   UNL     1      -4.143  12.653  19.094  0.00  0.00    +0.000 NA
ATOM     31  N   UNL     1      -3.701  11.718  18.242  0.00  0.00    +0.000 N 
ATOM     32  C   UNL     1      -4.505  11.428  17.076  0.00  0.00    +0.000 C 
BRANCH  29  33
ATOM     33  C   UNL     1      -3.525  13.452  21.312  0.00  0.00    +0.000 C 
BRANCH  33  34
ATOM     34  C   UNL     1      -4.221  12.759  22.494  0.00  0.00    +0.000 C 
ATOM     35  C   UNL     1      -3.408  12.841  23.786  0.00  0.00    +0.000 C 
ATOM     36  C   UNL     1      -5.587  13.421  22.709  0.00  0.00    +0.000 C 
ENDBRANCH  33  34
ENDBRANCH  29  33
ENDBRANCH  24  28
ENDBRANCH  21  24
ENDBRANCH   1  21
TORSDOF 8
ENDMDL
MODEL 4
REMARK VINA RESULT:      -8.7      0.604      1.268
REMARK  Name = 
REMARK  13 active torsions:
REMARK  status: ('A' for Active; 'I' for Inactive)
REMARK    1  A    between atoms: C_1  and  C_2
REMARK    2  A    between atoms: C_3  and  N_4
REMARK    3  A    between atoms: N_4  and  S_5
REMARK    4  A    between atoms: S_5  and  C_8
REMARK    5  A    between atoms: C_11  and  C_12
REMARK    6  A    between atoms: C_16  and  C_17
REMARK    7  A    between atoms: C_17  and  N_18
REMARK    8  A    between atoms: N_21  and  C_22
REMARK    9  A    between atoms: C_28  and  C_29
REMARK   10  A    between atoms: C_29  and  C_30
REMARK   11  A    between atoms: C_30  and  C_31
REMARK   12  A    between atoms: C_30  and  C_32
REMARK   13  A    between atoms: N_34  and  C_35
REMARK                            x       y       z     vdW  Elec       q    Type
REMARK                         _______ _______ _______ _____ _____    ______ ____
ROOT
ATOM      1  C   UNL     1       1.168   9.366  19.763  0.00  0.00    +0.000 A 
ATOM      2  C   UNL     1       1.533   8.174  20.379  0.00  0.00    +0.000 A 
ATOM      3  C   UNL     1       2.317   7.260  19.678  0.00  0.00    +0.000 A 
ATOM      4  C   UNL     1       2.711   7.489  18.348  0.00  0.00    +0.000 A 
ATOM      5  C   UNL     1       2.296   8.690  17.744  0.00  0.00    +0.000 A 
ATOM      6  C   UNL     1       1.530   9.628  18.444  0.00  0.00    +0.000 A 
ENDROOT
BRANCH   4   7
ATOM      7  C   UNL     1       3.541   6.494  17.630  0.00  0.00    +0.000 A 
ATOM      8  C   UNL     1       4.633   6.888  16.836  0.00  0.00    +0.000 A 
ATOM      9  C   UNL     1       5.405   5.954  16.139  0.00  0.00    +0.000 A 
ATOM     10  C   UNL     1       5.102   4.600  16.223  0.00  0.00    +0.000 A 
ATOM     11  C   UNL     1       4.011   4.172  16.986  0.00  0.00    +0.000 A 
ATOM     12  C   UNL     1       3.253   5.123  17.693  0.00  0.00    +0.000 A 
BRANCH  11  13
ATOM     13  C   UNL     1       3.638   2.709  17.068  0.00  0.00    +0.000 C 
BRANCH  13  14
ATOM     14  N   UNL     1       3.288   2.255  18.418  0.00  0.00    +0.000 NA
ATOM     15  C   UNL     1       1.899   2.640  18.741  0.00  0.00    +0.000 C 
ATOM     16  C   UNL     1       1.482   2.175  20.156  0.00  0.00    +0.000 C 
ATOM     17  N   UNL     1       2.383   2.602  21.246  0.00  0.00    +0.000 NA
ATOM     18  C   UNL     1       2.223   4.018  21.563  0.00  0.00    +0.000 C 
ATOM     19  C   UNL     1       3.775   2.288  20.869  0.00  0.00    +0.000 C 
ATOM     20  C   UNL     1       4.188   2.781  19.463  0.00  0.00    +0.000 C 
ENDBRANCH  13  14
ENDBRANCH  11  13
ENDBRANCH   4   7
BRANCH   1  21
ATOM     21  S   UNL     1       0.288  10.591  20.707  0.00  0.00    +0.000 S 
ATOM     22  O   UNL     1       1.243  11.311  21.510  0.00  0.00    +0.000 OA
ATOM     23  O   UNL     1      -0.871   9.937  21.281  0.00  0.00    +0.000 OA
BRANCH  21  24
ATOM     24  N   UNL     1      -0.280  11.535  19.419  0.00  0.00    +0.000 N 
ATOM     25  H   UNL     1       0.319  11.405  18.611  0.00  0.00    +0.000 HD
BRANCH  24  28
ATOM     26  C   UNL     1      -2.068  10.102  17.035  0.00  0.00    +0.000 C 
ATOM     27  C   UNL     1      -2.406  11.035  18.142  0.00  0.00    +0.000 A 
ATOM     28  C   UNL     1      -1.654  11.606  19.157  0.00  0.00    +0.000 A 
ATOM     29  C   UNL     1      -2.582  12.367  19.915  0.00  0.00    +0.000 A 
ATOM     30  N   UNL     1      -3.809  12.301  19.403  0.00  0.00    +0.000 NA
ATOM     31  N   UNL     1      -3.688  11.455  18.371  0.00  0.00    +0.000 N 
ATOM     32  C   UNL     1      -4.889  11.079  17.658  0.00  0.00    +0.000 C 
BRANCH  29  33
ATOM     33  C   UNL     1      -2.363  13.132  21.181  0.00  0.00    +0.000 C 
BRANCH  33  34
ATOM     34  C   UNL     1      -1.420  14.342  21.103  0.00  0.00    +0.000 C 
ATOM     35  C   UNL     1      -2.155  15.639  20.761  0.00  0.00    +0.000 C 
ATOM     36  C   UNL     1      -0.716  14.498  22.456  0.00  0.00    +0.000 C 
ENDBRANCH  33  34
ENDBRANCH  29  33
ENDBRANCH  24  28
ENDBRANCH  21  24
ENDBRANCH   1  21
TORSDOF 8
ENDMDL
MODEL 5
REMARK VINA RESULT:      -8.7      2.439      4.745
REMARK  Name = 
REMARK  13 active torsions:
REMARK  status: ('A' for Active; 'I' for Inactive)
REMARK    1  A    between atoms: C_1  and  C_2
REMARK    2  A    between atoms: C_3  and  N_4
REMARK    3  A    between atoms: N_4  and  S_5
REMARK    4  A    between atoms: S_5  and  C_8
REMARK    5  A    between atoms: C_11  and  C_12
REMARK    6  A    between atoms: C_16  and  C_17
REMARK    7  A    between atoms: C_17  and  N_18
REMARK    8  A    between atoms: N_21  and  C_22
REMARK    9  A    between atoms: C_28  and  C_29
REMARK   10  A    between atoms: C_29  and  C_30
REMARK   11  A    between atoms: C_30  and  C_31
REMARK   12  A    between atoms: C_30  and  C_32
REMARK   13  A    between atoms: N_34  and  C_35
REMARK                            x       y       z     vdW  Elec       q    Type
REMARK                         _______ _______ _______ _____ _____    ______ ____
ROOT
ATOM      1  C   UNL     1      -0.450  11.661  22.007  0.00  0.00    +0.000 A 
ATOM      2  C   UNL     1       0.486  11.745  20.981  0.00  0.00    +0.000 A 
ATOM      3  C   UNL     1       1.046  10.572  20.477  0.00  0.00    +0.000 A 
ATOM      4  C   UNL     1       0.726   9.311  21.007  0.00  0.00    +0.000 A 
ATOM      5  C   UNL     1      -0.199   9.266  22.067  0.00  0.00    +0.000 A 
ATOM      6  C   UNL     1      -0.788  10.431  22.566  0.00  0.00    +0.000 A 
ENDROOT
BRANCH   4   7
ATOM      7  C   UNL     1       1.344   8.085  20.451  0.00  0.00    +0.000 A 
ATOM      8  C   UNL     1       1.190   6.837  21.081  0.00  0.00    +0.000 A 
ATOM      9  C   UNL     1       1.790   5.682  20.571  0.00  0.00    +0.000 A 
ATOM     10  C   UNL     1       2.558   5.749  19.415  0.00  0.00    +0.000 A 
ATOM     11  C   UNL     1       2.750   6.976  18.771  0.00  0.00    +0.000 A 
ATOM     12  C   UNL     1       2.129   8.126  19.289  0.00  0.00    +0.000 A 
BRANCH  11  13
ATOM     13  C   UNL     1       3.609   7.085  17.532  0.00  0.00    +0.000 C 
BRANCH  13  14
ATOM     14  N   UNL     1       4.786   6.210  17.541  0.00  0.00    +0.000 NA
ATOM     15  C   UNL     1       5.976   6.953  17.077  0.00  0.00    +0.000 C 
ATOM     16  C   UNL     1       7.247   6.072  17.076  0.00  0.00    +0.000 C 
ATOM     17  N   UNL     1       7.129   4.803  16.328  0.00  0.00    +0.000 NA
ATOM     18  C   UNL     1       7.162   5.016  14.884  0.00  0.00    +0.000 C 
ATOM     19  C   UNL     1       5.890   4.116  16.742  0.00  0.00    +0.000 C 
ATOM     20  C   UNL     1       4.622   4.999  16.714  0.00  0.00    +0.000 C 
ENDBRANCH  13  14
ENDBRANCH  11  13
ENDBRANCH   4   7
BRANCH   1  21
ATOM     21  S   UNL     1      -1.268  13.145  22.552  0.00  0.00    +0.000 S 
ATOM     22  O   UNL     1      -0.272  14.036  23.087  0.00  0.00    +0.000 OA
ATOM     23  O   UNL     1      -2.432  12.735  23.313  0.00  0.00    +0.000 OA
BRANCH  21  24
ATOM     24  N   UNL     1      -1.839  13.679  21.048  0.00  0.00    +0.000 N 
ATOM     25  H   UNL     1      -1.064  13.766  20.401  0.00  0.00    +0.000 HD
BRANCH  24  28
ATOM     26  C   UNL     1      -4.977  14.110  21.998  0.00  0.00    +0.000 C 
ATOM     27  C   UNL     1      -4.337  13.295  20.932  0.00  0.00    +0.000 A 
ATOM     28  C   UNL     1      -3.022  13.146  20.520  0.00  0.00    +0.000 A 
ATOM     29  C   UNL     1      -3.083  12.256  19.417  0.00  0.00    +0.000 A 
ATOM     30  N   UNL     1      -4.329  11.860  19.171  0.00  0.00    +0.000 NA
ATOM     31  N   UNL     1      -5.070  12.536  20.060  0.00  0.00    +0.000 N 
ATOM     32  C   UNL     1      -6.508  12.408  19.982  0.00  0.00    +0.000 C 
BRANCH  29  33
ATOM     33  C   UNL     1      -1.983  11.796  18.514  0.00  0.00    +0.000 C 
BRANCH  33  34
ATOM     34  C   UNL     1      -2.269  10.558  17.651  0.00  0.00    +0.000 C 
ATOM     35  C   UNL     1      -2.661  10.918  16.217  0.00  0.00    +0.000 C 
ATOM     36  C   UNL     1      -1.013   9.679  17.630  0.00  0.00    +0.000 C 
ENDBRANCH  33  34
ENDBRANCH  29  33
ENDBRANCH  24  28
ENDBRANCH  21  24
ENDBRANCH   1  21
TORSDOF 8
ENDMDL
MODEL 6
REMARK VINA RESULT:      -8.7      6.003      9.343
REMARK  Name = 
REMARK  13 active torsions:
REMARK  status: ('A' for Active; 'I' for Inactive)
REMARK    1  A    between atoms: C_1  and  C_2
REMARK    2  A    between atoms: C_3  and  N_4
REMARK    3  A    between atoms: N_4  and  S_5
REMARK    4  A    between atoms: S_5  and  C_8
REMARK    5  A    between atoms: C_11  and  C_12
REMARK    6  A    between atoms: C_16  and  C_17
REMARK    7  A    between atoms: C_17  and  N_18
REMARK    8  A    between atoms: N_21  and  C_22
REMARK    9  A    between atoms: C_28  and  C_29
REMARK   10  A    between atoms: C_29  and  C_30
REMARK   11  A    between atoms: C_30  and  C_31
REMARK   12  A    between atoms: C_30  and  C_32
REMARK   13  A    between atoms: N_34  and  C_35
REMARK                            x       y       z     vdW  Elec       q    Type
REMARK                         _______ _______ _______ _____ _____    ______ ____
ROOT
ATOM      1  C   UNL     1       7.125   6.718  17.814  0.00  0.00    +0.000 A 
ATOM      2  C   UNL     1       8.099   6.690  18.805  0.00  0.00    +0.000 A 
ATOM      3  C   UNL     1       8.753   7.873  19.147  0.00  0.00    +0.000 A 
ATOM      4  C   UNL     1       8.486   9.084  18.485  0.00  0.00    +0.000 A 
ATOM      5  C   UNL     1       7.517   9.069  17.465  0.00  0.00    +0.000 A 
ATOM      6  C   UNL     1       6.836   7.895  17.129  0.00  0.00    +0.000 A 
ENDROOT
BRANCH   4   7
ATOM      7  C   UNL     1       9.203  10.322  18.870  0.00  0.00    +0.000 A 
ATOM      8  C   UNL     1      10.113  10.942  17.996  0.00  0.00    +0.000 A 
ATOM      9  C   UNL     1      10.808  12.098  18.363  0.00  0.00    +0.000 A 
ATOM     10  C   UNL     1      10.605  12.663  19.617  0.00  0.00    +0.000 A 
ATOM     11  C   UNL     1       9.721  12.065  20.521  0.00  0.00    +0.000 A 
ATOM     12  C   UNL     1       9.020  10.909  20.130  0.00  0.00    +0.000 A 
BRANCH  11  13
ATOM     13  C   UNL     1       9.506  12.638  21.903  0.00  0.00    +0.000 C 
BRANCH  13  14
ATOM     14  N   UNL     1       8.203  12.308  22.491  0.00  0.00    +0.000 NA
ATOM     15  C   UNL     1       7.278  13.451  22.350  0.00  0.00    +0.000 C 
ATOM     16  C   UNL     1       5.885  13.148  22.951  0.00  0.00    +0.000 C 
ATOM     17  N   UNL     1       5.895  12.684  24.353  0.00  0.00    +0.000 NA
ATOM     18  C   UNL     1       6.163  13.775  25.286  0.00  0.00    +0.000 C 
ATOM     19  C   UNL     1       6.888  11.600  24.493  0.00  0.00    +0.000 C 
ATOM     20  C   UNL     1       8.283  11.925  23.913  0.00  0.00    +0.000 C 
ENDBRANCH  13  14
ENDBRANCH  11  13
ENDBRANCH   4   7
BRANCH   1  21
ATOM     21  S   UNL     1       6.193   5.239  17.479  0.00  0.00    +0.000 S 
ATOM     22  O   UNL     1       7.064   4.107  17.669  0.00  0.00    +0.000 OA
ATOM     23  O   UNL     1       5.469   5.461  16.243  0.00  0.00    +0.000 OA
BRANCH  21  24
ATOM     24  N   UNL     1       5.059   5.370  18.732  0.00  0.00    +0.000 N 
ATOM     25  H   UNL     1       5.005   6.334  19.042  0.00  0.00    +0.000 HD
BRANCH  24  28
ATOM     26  C   UNL     1       4.271   2.307  19.695  0.00  0.00    +0.000 C 
ATOM     27  C   UNL     1       3.511   3.391  19.018  0.00  0.00    +0.000 A 
ATOM     28  C   UNL     1       3.841   4.685  18.647  0.00  0.00    +0.000 A 
ATOM     29  C   UNL     1       2.654   5.218  18.082  0.00  0.00    +0.000 A 
ATOM     30  N   UNL     1       1.667   4.325  18.077  0.00  0.00    +0.000 NA
ATOM     31  N   UNL     1       2.189   3.254  18.690  0.00  0.00    +0.000 N 
ATOM     32  C   UNL     1       1.321   2.127  18.944  0.00  0.00    +0.000 C 
BRANCH  29  33
ATOM     33  C   UNL     1       2.384   6.602  17.587  0.00  0.00    +0.000 C 
BRANCH  33  34
ATOM     34  C   UNL     1       2.620   7.750  18.581  0.00  0.00    +0.000 C 
ATOM     35  C   UNL     1       2.049   9.081  18.089  0.00  0.00    +0.000 C 
ATOM     36  C   UNL     1       1.965   7.378  19.917  0.00  0.00    +0.000 C 
ENDBRANCH  33  34
ENDBRANCH  29  33
ENDBRANCH  24  28
ENDBRANCH  21  24
ENDBRANCH   1  21
TORSDOF 8
ENDMDL
MODEL 7
REMARK VINA RESULT:      -8.6      6.794     10.351
REMARK  Name = 
REMARK  13 active torsions:
REMARK  status: ('A' for Active; 'I' for Inactive)
REMARK    1  A    between atoms: C_1  and  C_2
REMARK    2  A    between atoms: C_3  and  N_4
REMARK    3  A    between atoms: N_4  and  S_5
REMARK    4  A    between atoms: S_5  and  C_8
REMARK    5  A    between atoms: C_11  and  C_12
REMARK    6  A    between atoms: C_16  and  C_17
REMARK    7  A    between atoms: C_17  and  N_18
REMARK    8  A    between atoms: N_21  and  C_22
REMARK    9  A    between atoms: C_28  and  C_29
REMARK   10  A    between atoms: C_29  and  C_30
REMARK   11  A    between atoms: C_30  and  C_31
REMARK   12  A    between atoms: C_30  and  C_32
REMARK   13  A    between atoms: N_34  and  C_35
REMARK                            x       y       z     vdW  Elec       q    Type
REMARK                         _______ _______ _______ _____ _____    ______ ____
ROOT
ATOM      1  C   UNL     1       7.102   6.544  17.596  0.00  0.00    +0.000 A 
ATOM      2  C   UNL     1       7.958   6.442  18.687  0.00  0.00    +0.000 A 
ATOM      3  C   UNL     1       8.615   7.585  19.141  0.00  0.00    +0.000 A 
ATOM      4  C   UNL     1       8.473   8.827  18.499  0.00  0.00    +0.000 A 
ATOM      5  C   UNL     1       7.624   8.885  17.378  0.00  0.00    +0.000 A 
ATOM      6  C   UNL     1       6.939   7.754  16.926  0.00  0.00    +0.000 A 
ENDROOT
BRANCH   4   7
ATOM      7  C   UNL     1       9.190  10.019  19.005  0.00  0.00    +0.000 A 
ATOM      8  C   UNL     1       9.190  10.348  20.373  0.00  0.00    +0.000 A 
ATOM      9  C   UNL     1       9.847  11.485  20.852  0.00  0.00    +0.000 A 
ATOM     10  C   UNL     1      10.523  12.320  19.971  0.00  0.00    +0.000 A 
ATOM     11  C   UNL     1      10.529  12.037  18.601  0.00  0.00    +0.000 A 
ATOM     12  C   UNL     1       9.875  10.882  18.137  0.00  0.00    +0.000 A 
BRANCH  11  13
ATOM     13  C   UNL     1      11.227  12.946  17.616  0.00  0.00    +0.000 C 
BRANCH  13  14
ATOM     14  N   UNL     1      10.473  14.159  17.282  0.00  0.00    +0.000 NA
ATOM     15  C   UNL     1      11.382  15.321  17.212  0.00  0.00    +0.000 C 
ATOM     16  C   UNL     1      10.631  16.626  16.856  0.00  0.00    +0.000 C 
ATOM     17  N   UNL     1       9.481  16.944  17.726  0.00  0.00    +0.000 NA
ATOM     18  C   UNL     1       9.906  17.437  19.033  0.00  0.00    +0.000 C 
ATOM     19  C   UNL     1       8.629  15.745  17.854  0.00  0.00    +0.000 C 
ATOM     20  C   UNL     1       9.387  14.453  18.237  0.00  0.00    +0.000 C 
ENDBRANCH  13  14
ENDBRANCH  11  13
ENDBRANCH   4   7
BRANCH   1  21
ATOM     21  S   UNL     1       6.157   5.118  17.106  0.00  0.00    +0.000 S 
ATOM     22  O   UNL     1       7.075   4.099  16.666  0.00  0.00    +0.000 OA
ATOM     23  O   UNL     1       5.069   5.593  16.273  0.00  0.00    +0.000 OA
BRANCH  21  24
ATOM     24  N   UNL     1       5.480   4.739  18.612  0.00  0.00    +0.000 N 
ATOM     25  H   UNL     1       5.862   5.355  19.322  0.00  0.00    +0.000 HD
BRANCH  24  28
ATOM     26  C   UNL     1       3.888   1.842  18.566  0.00  0.00    +0.000 C 
ATOM     27  C   UNL     1       3.433   3.254  18.664  0.00  0.00    +0.000 A 
ATOM     28  C   UNL     1       4.111   4.462  18.714  0.00  0.00    +0.000 A 
ATOM     29  C   UNL     1       3.097   5.445  18.852  0.00  0.00    +0.000 A 
ATOM     30  N   UNL     1       1.882   4.902  18.862  0.00  0.00    +0.000 NA
ATOM     31  N   UNL     1       2.112   3.583  18.799  0.00  0.00    +0.000 N 
ATOM     32  C   UNL     1       0.978   2.691  18.902  0.00  0.00    +0.000 C 
BRANCH  29  33
ATOM     33  C   UNL     1       3.235   6.921  19.044  0.00  0.00    +0.000 C 
BRANCH  33  34
ATOM     34  C   UNL     1       1.963   7.764  18.862  0.00  0.00    +0.000 C 
ATOM     35  C   UNL     1       1.521   8.448  20.156  0.00  0.00    +0.000 C 
ATOM     36  C   UNL     1       2.234   8.827  17.791  0.00  0.00    +0.000 C 
ENDBRANCH  33  34
ENDBRANCH  29  33
ENDBRANCH  24  28
ENDBRANCH  21  24
ENDBRANCH   1  21
TORSDOF 8
ENDMDL
MODEL 8
REMARK VINA RESULT:      -8.5      1.600      2.352
REMARK  Name = 
REMARK  13 active torsions:
REMARK  status: ('A' for Active; 'I' for Inactive)
REMARK    1  A    between atoms: C_1  and  C_2
REMARK    2  A    between atoms: C_3  and  N_4
REMARK    3  A    between atoms: N_4  and  S_5
REMARK    4  A    between atoms: S_5  and  C_8
REMARK    5  A    between atoms: C_11  and  C_12
REMARK    6  A    between atoms: C_16  and  C_17
REMARK    7  A    between atoms: C_17  and  N_18
REMARK    8  A    between atoms: N_21  and  C_22
REMARK    9  A    between atoms: C_28  and  C_29
REMARK   10  A    between atoms: C_29  and  C_30
REMARK   11  A    between atoms: C_30  and  C_31
REMARK   12  A    between atoms: C_30  and  C_32
REMARK   13  A    between atoms: N_34  and  C_35
REMARK                            x       y       z     vdW  Elec       q    Type
REMARK                         _______ _______ _______ _____ _____    ______ ____
ROOT
ATOM      1  C   UNL     1       1.216   9.131  19.838  0.00  0.00    +0.000 A 
ATOM      2  C   UNL     1       1.718   7.978  20.432  0.00  0.00    +0.000 A 
ATOM      3  C   UNL     1       2.528   7.127  19.682  0.00  0.00    +0.000 A 
ATOM      4  C   UNL     1       2.814   7.378  18.329  0.00  0.00    +0.000 A 
ATOM      5  C   UNL     1       2.261   8.536  17.751  0.00  0.00    +0.000 A 
ATOM      6  C   UNL     1       1.468   9.412  18.498  0.00  0.00    +0.000 A 
ENDROOT
BRANCH   4   7
ATOM      7  C   UNL     1       3.674   6.450  17.559  0.00  0.00    +0.000 A 
ATOM      8  C   UNL     1       4.554   6.919  16.568  0.00  0.00    +0.000 A 
ATOM      9  C   UNL     1       5.352   6.044  15.824  0.00  0.00    +0.000 A 
ATOM     10  C   UNL     1       5.287   4.676  16.058  0.00  0.00    +0.000 A 
ATOM     11  C   UNL     1       4.410   4.169  17.022  0.00  0.00    +0.000 A 
ATOM     12  C   UNL     1       3.624   5.064  17.771  0.00  0.00    +0.000 A 
BRANCH  11  13
ATOM     13  C   UNL     1       4.294   2.684  17.273  0.00  0.00    +0.000 C 
BRANCH  13  14
ATOM     14  N   UNL     1       3.419   2.333  18.397  0.00  0.00    +0.000 NA
ATOM     15  C   UNL     1       2.005   2.558  18.030  0.00  0.00    +0.000 C 
ATOM     16  C   UNL     1       1.041   2.195  19.184  0.00  0.00    +0.000 C 
ATOM     17  N   UNL     1       1.332   2.853  20.474  0.00  0.00    +0.000 NA
ATOM     18  C   UNL     1       0.944   4.260  20.467  0.00  0.00    +0.000 C 
ATOM     19  C   UNL     1       2.767   2.692  20.782  0.00  0.00    +0.000 C 
ATOM     20  C   UNL     1       3.722   3.084  19.630  0.00  0.00    +0.000 C 
ENDBRANCH  13  14
ENDBRANCH  11  13
ENDBRANCH   4   7
BRANCH   1  21
ATOM     21  S   UNL     1       0.301  10.287  20.836  0.00  0.00    +0.000 S 
ATOM     22  O   UNL     1       1.244  11.095  21.566  0.00  0.00    +0.000 OA
ATOM     23  O   UNL     1      -0.754   9.541  21.494  0.00  0.00    +0.000 OA
BRANCH  21  24
ATOM     24  N   UNL     1      -0.436  11.163  19.587  0.00  0.00    +0.000 N 
ATOM     25  H   UNL     1      -1.366  10.797  19.416  0.00  0.00    +0.000 HD
BRANCH  24  28
ATOM     26  C   UNL     1       1.919  13.043  18.224  0.00  0.00    +0.000 C 
ATOM     27  C   UNL     1       0.690  13.351  19.002  0.00  0.00    +0.000 A 
ATOM     28  C   UNL     1      -0.309  12.557  19.542  0.00  0.00    +0.000 A 
ATOM     29  C   UNL     1      -1.226  13.470  20.126  0.00  0.00    +0.000 A 
ATOM     30  N   UNL     1      -0.823  14.730  19.985  0.00  0.00    +0.000 NA
ATOM     31  N   UNL     1       0.302  14.637  19.263  0.00  0.00    +0.000 N 
ATOM     32  C   UNL     1       0.939  15.864  18.840  0.00  0.00    +0.000 C 
BRANCH  29  33
ATOM     33  C   UNL     1      -2.542  13.195  20.778  0.00  0.00    +0.000 C 
BRANCH  33  34
ATOM     34  C   UNL     1      -2.503  12.528  22.162  0.00  0.00    +0.000 C 
ATOM     35  C   UNL     1      -1.394  13.088  23.053  0.00  0.00    +0.000 C 
ATOM     36  C   UNL     1      -3.860  12.740  22.843  0.00  0.00    +0.000 C 
ENDBRANCH  33  34
ENDBRANCH  29  33
ENDBRANCH  24  28
ENDBRANCH  21  24
ENDBRANCH   1  21
TORSDOF 8
ENDMDL
MODEL 9
REMARK VINA RESULT:      -8.5      1.940      4.451
REMARK  Name = 
REMARK  13 active torsions:
REMARK  status: ('A' for Active; 'I' for Inactive)
REMARK    1  A    between atoms: C_1  and  C_2
REMARK    2  A    between atoms: C_3  and  N_4
REMARK    3  A    between atoms: N_4  and  S_5
REMARK    4  A    between atoms: S_5  and  C_8
REMARK    5  A    between atoms: C_11  and  C_12
REMARK    6  A    between atoms: C_16  and  C_17
REMARK    7  A    between atoms: C_17  and  N_18
REMARK    8  A    between atoms: N_21  and  C_22
REMARK    9  A    between atoms: C_28  and  C_29
REMARK   10  A    between atoms: C_29  and  C_30
REMARK   11  A    between atoms: C_30  and  C_31
REMARK   12  A    between atoms: C_30  and  C_32
REMARK   13  A    between atoms: N_34  and  C_35
REMARK                            x       y       z     vdW  Elec       q    Type
REMARK                         _______ _______ _______ _____ _____    ______ ____
ROOT
ATOM      1  C   UNL     1       0.855  10.006  20.337  0.00  0.00    +0.000 A 
ATOM      2  C   UNL     1       1.494   9.508  19.207  0.00  0.00    +0.000 A 
ATOM      3  C   UNL     1       1.864   8.165  19.174  0.00  0.00    +0.000 A 
ATOM      4  C   UNL     1       1.652   7.310  20.270  0.00  0.00    +0.000 A 
ATOM      5  C   UNL     1       1.033   7.856  21.410  0.00  0.00    +0.000 A 
ATOM      6  C   UNL     1       0.633   9.195  21.447  0.00  0.00    +0.000 A 
ENDROOT
BRANCH   4   7
ATOM      7  C   UNL     1       2.063   5.889  20.204  0.00  0.00    +0.000 A 
ATOM      8  C   UNL     1       1.303   4.878  20.817  0.00  0.00    +0.000 A 
ATOM      9  C   UNL     1       1.699   3.538  20.775  0.00  0.00    +0.000 A 
ATOM     10  C   UNL     1       2.868   3.178  20.115  0.00  0.00    +0.000 A 
ATOM     11  C   UNL     1       3.661   4.158  19.510  0.00  0.00    +0.000 A 
ATOM     12  C   UNL     1       3.241   5.500  19.549  0.00  0.00    +0.000 A 
BRANCH  11  13
ATOM     13  C   UNL     1       4.955   3.801  18.815  0.00  0.00    +0.000 C 
BRANCH  13  14
ATOM     14  N   UNL     1       5.440   4.829  17.888  0.00  0.00    +0.000 NA
ATOM     15  C   UNL     1       4.750   4.708  16.587  0.00  0.00    +0.000 C 
ATOM     16  C   UNL     1       5.225   5.778  15.577  0.00  0.00    +0.000 C 
ATOM     17  N   UNL     1       6.685   5.834  15.363  0.00  0.00    +0.000 NA
ATOM     18  C   UNL     1       7.160   4.720  14.548  0.00  0.00    +0.000 C 
ATOM     19  C   UNL     1       7.361   5.867  16.675  0.00  0.00    +0.000 C 
ATOM     20  C   UNL     1       6.898   4.776  17.667  0.00  0.00    +0.000 C 
ENDBRANCH  13  14
ENDBRANCH  11  13
ENDBRANCH   4   7
BRANCH   1  21
ATOM     21  S   UNL     1       0.256  11.682  20.321  0.00  0.00    +0.000 S 
ATOM     22  O   UNL     1       0.072  12.080  18.949  0.00  0.00    +0.000 OA
ATOM     23  O   UNL     1       1.078  12.437  21.245  0.00  0.00    +0.000 OA
BRANCH  21  24
ATOM     24  N   UNL     1      -1.228  11.422  21.098  0.00  0.00    +0.000 N 
ATOM     25  H   UNL     1      -1.075  10.912  21.962  0.00  0.00    +0.000 HD
BRANCH  24  28
ATOM     26  C   UNL     1      -1.553  13.906  23.256  0.00  0.00    +0.000 C 
ATOM     27  C   UNL     1      -2.341  13.474  22.070  0.00  0.00    +0.000 A 
ATOM     28  C   UNL     1      -2.178  12.449  21.152  0.00  0.00    +0.000 A 
ATOM     29  C   UNL     1      -3.248  12.607  20.234  0.00  0.00    +0.000 A 
ATOM     30  N   UNL     1      -4.032  13.631  20.563  0.00  0.00    +0.000 NA
ATOM     31  N   UNL     1      -3.439  14.167  21.638  0.00  0.00    +0.000 N 
ATOM     32  C   UNL     1      -3.995  15.386  22.183  0.00  0.00    +0.000 C 
BRANCH  29  33
ATOM     33  C   UNL     1      -3.536  11.844  18.982  0.00  0.00    +0.000 C 
BRANCH  33  34
ATOM     34  C   UNL     1      -4.926  12.041  18.356  0.00  0.00    +0.000 C 
ATOM     35  C   UNL     1      -4.925  11.820  16.842  0.00  0.00    +0.000 C 
ATOM     36  C   UNL     1      -5.900  11.058  19.014  0.00  0.00    +0.000 C 
ENDBRANCH  33  34
ENDBRANCH  29  33
ENDBRANCH  24  28
ENDBRANCH  21  24
ENDBRANCH   1  21
TORSDOF 8
ENDMDL
