MODEL 1
REMARK VINA RESULT:      -6.8      0.000      0.000
REMARK  Name = 
REMARK  19 active torsions:
REMARK  status: ('A' for Active; 'I' for Inactive)
REMARK    1  A    between atoms: C_1  and  C_2
REMARK    2  A    between atoms: C_4  and  C_5
REMARK    3  A    between atoms: C_6  and  N_7
REMARK    4  A    between atoms: C_8  and  C_10
REMARK    5  A    between atoms: C_10  and  C_11
REMARK    6  A    between atoms: C_10  and  C_12
REMARK    7  A    between atoms: C_10  and  C_13
REMARK    8  A    between atoms: C_13  and  C_14
REMARK    9  A    between atoms: C_14  and  C_15
REMARK   10  A    between atoms: C_15  and  C_16
REMARK   11  A    between atoms: C_16  and  C_17
REMARK   12  A    between atoms: C_17  and  C_18
REMARK   13  A    between atoms: C_18  and  O_19
REMARK   14  A    between atoms: O_19  and  C_20
REMARK   15  A    between atoms: C_20  and  C_21
REMARK   16  A    between atoms: C_21  and  C_22
REMARK   17  A    between atoms: C_21  and  C_23
REMARK   18  A    between atoms: C_27  and  C_28
REMARK   19  A    between atoms: C_27  and  C_29
REMARK                            x       y       z     vdW  Elec       q    Type
REMARK                         _______ _______ _______ _____ _____    ______ ____
ROOT
ATOM      1  N   UNL     1      -1.670  10.907  18.469  0.00  0.00    +0.000 N 
ATOM      2  C   UNL     1      -0.467  11.593  18.390  0.00  0.00    +0.000 C 
ATOM      3  O   UNL     1      -0.336  12.772  18.081  0.00  0.00    +0.000 OA
ATOM      4  H   UNL     1      -1.641   9.956  18.826  0.00  0.00    +0.000 HD
ENDROOT
BRANCH   1  10
ATOM      5  C   UNL     1      -7.097  12.815  17.653  0.00  0.00    +0.000 C 
ATOM      6  C   UNL     1      -5.697  12.326  17.849  0.00  0.00    +0.000 A 
ATOM      7  C   UNL     1      -5.074  11.563  16.861  0.00  0.00    +0.000 A 
ATOM      8  C   UNL     1      -3.753  11.058  16.991  0.00  0.00    +0.000 A 
ATOM      9  C   UNL     1      -3.311  10.250  15.804  0.00  0.00    +0.000 C 
ATOM     10  C   UNL     1      -3.004  11.336  18.159  0.00  0.00    +0.000 A 
ATOM     11  C   UNL     1      -3.663  12.109  19.143  0.00  0.00    +0.000 A 
ATOM     12  C   UNL     1      -4.963  12.587  18.989  0.00  0.00    +0.000 A 
ATOM     13  C   UNL     1      -5.394  13.351  20.181  0.00  0.00    +0.000 C 
ATOM     14  C   UNL     1      -4.118  13.293  21.039  0.00  0.00    +0.000 C 
ATOM     15  C   UNL     1      -4.423  12.661  22.404  0.00  0.00    +0.000 C 
ATOM     16  C   UNL     1      -3.549  14.700  21.255  0.00  0.00    +0.000 C 
ATOM     17  O   UNL     1      -3.109  12.475  20.358  0.00  0.00    +0.000 OA
ENDBRANCH   1  10
BRANCH   2  18
ATOM     18  C   UNL     1       0.821  10.801  18.729  0.00  0.00    +0.000 C 
ATOM     19  C   UNL     1       2.043  11.711  18.435  0.00  0.00    +0.000 C 
ATOM     20  C   UNL     1       0.841  10.478  20.231  0.00  0.00    +0.000 C 
BRANCH  18  21
ATOM     21  C   UNL     1       0.933   9.493  17.914  0.00  0.00    +0.000 C 
BRANCH  21  22
ATOM     22  C   UNL     1       2.330   8.870  17.939  0.00  0.00    +0.000 C 
BRANCH  22  23
ATOM     23  C   UNL     1       2.267   7.354  18.120  0.00  0.00    +0.000 C 
BRANCH  23  24
ATOM     24  C   UNL     1       3.672   6.816  18.363  0.00  0.00    +0.000 C 
BRANCH  24  25
ATOM     25  C   UNL     1       4.020   5.674  17.420  0.00  0.00    +0.000 C 
BRANCH  25  26
ATOM     26  C   UNL     1       4.357   4.432  18.230  0.00  0.00    +0.000 C 
BRANCH  26  27
ATOM     27  O   UNL     1       3.231   3.562  18.236  0.00  0.00    +0.000 OA
BRANCH  27  28
ATOM     28  C   UNL     1       3.218   2.764  19.417  0.00  0.00    +0.000 C 
BRANCH  28  29
ATOM     29  C   UNL     1       1.786   2.666  19.948  0.00  0.00    +0.000 C 
ATOM     30  C   UNL     1       1.430   3.884  20.804  0.00  0.00    +0.000 C 
ATOM     31  C   UNL     1       0.811   2.518  18.784  0.00  0.00    +0.000 C 
ENDBRANCH  28  29
ENDBRANCH  27  28
ENDBRANCH  26  27
ENDBRANCH  25  26
ENDBRANCH  24  25
ENDBRANCH  23  24
ENDBRANCH  22  23
ENDBRANCH  21  22
ENDBRANCH  18  21
ENDBRANCH   2  18
TORSDOF 11
ENDMDL
MODEL 2
REMARK VINA RESULT:      -6.7      1.634      2.577
REMARK  Name = 
REMARK  19 active torsions:
REMARK  status: ('A' for Active; 'I' for Inactive)
REMARK    1  A    between atoms: C_1  and  C_2
REMARK    2  A    between atoms: C_4  and  C_5
REMARK    3  A    between atoms: C_6  and  N_7
REMARK    4  A    between atoms: C_8  and  C_10
REMARK    5  A    between atoms: C_10  and  C_11
REMARK    6  A    between atoms: C_10  and  C_12
REMARK    7  A    between atoms: C_10  and  C_13
REMARK    8  A    between atoms: C_13  and  C_14
REMARK    9  A    between atoms: C_14  and  C_15
REMARK   10  A    between atoms: C_15  and  C_16
REMARK   11  A    between atoms: C_16  and  C_17
REMARK   12  A    between atoms: C_17  and  C_18
REMARK   13  A    between atoms: C_18  and  O_19
REMARK   14  A    between atoms: O_19  and  C_20
REMARK   15  A    between atoms: C_20  and  C_21
REMARK   16  A    between atoms: C_21  and  C_22
REMARK   17  A    between atoms: C_21  and  C_23
REMARK   18  A    between atoms: C_27  and  C_28
REMARK   19  A    between atoms: C_27  and  C_29
REMARK                            x       y       z     vdW  Elec       q    Type
REMARK                         _______ _______ _______ _____ _____    ______ ____
ROOT
ATOM      1  N   UNL     1      -1.967  11.364  18.982  0.00  0.00    +0.000 N 
ATOM      2  C   UNL     1      -0.774  11.992  18.656  0.00  0.00    +0.000 C 
ATOM      3  O   UNL     1      -0.667  13.068  18.080  0.00  0.00    +0.000 OA
ATOM      4  H   UNL     1      -1.911  10.517  19.540  0.00  0.00    +0.000 HD
ENDROOT
BRANCH   1  10
ATOM      5  C   UNL     1      -7.480  13.044  18.239  0.00  0.00    +0.000 C 
ATOM      6  C   UNL     1      -6.058  12.613  18.415  0.00  0.00    +0.000 A 
ATOM      7  C   UNL     1      -5.411  11.893  17.411  0.00  0.00    +0.000 A 
ATOM      8  C   UNL     1      -4.068  11.445  17.523  0.00  0.00    +0.000 A 
ATOM      9  C   UNL     1      -3.601  10.674  16.321  0.00  0.00    +0.000 C 
ATOM     10  C   UNL     1      -3.321  11.738  18.689  0.00  0.00    +0.000 A 
ATOM     11  C   UNL     1      -4.005  12.467  19.690  0.00  0.00    +0.000 A 
ATOM     12  C   UNL     1      -5.326  12.889  19.553  0.00  0.00    +0.000 A 
ATOM     13  C   UNL     1      -5.780  13.616  20.760  0.00  0.00    +0.000 C 
ATOM     14  C   UNL     1      -4.496  13.601  21.607  0.00  0.00    +0.000 C 
ATOM     15  C   UNL     1      -4.760  12.938  22.964  0.00  0.00    +0.000 C 
ATOM     16  C   UNL     1      -3.987  15.029  21.839  0.00  0.00    +0.000 C 
ATOM     17  O   UNL     1      -3.458  12.839  20.905  0.00  0.00    +0.000 OA
ENDBRANCH   1  10
BRANCH   2  18
ATOM     18  C   UNL     1       0.537  11.271  19.063  0.00  0.00    +0.000 C 
ATOM     19  C   UNL     1       1.734  12.098  18.523  0.00  0.00    +0.000 C 
ATOM     20  C   UNL     1       0.650  11.245  20.594  0.00  0.00    +0.000 C 
BRANCH  18  21
ATOM     21  C   UNL     1       0.605   9.829  18.511  0.00  0.00    +0.000 C 
BRANCH  21  22
ATOM     22  C   UNL     1       2.010   9.398  18.087  0.00  0.00    +0.000 C 
BRANCH  22  23
ATOM     23  C   UNL     1       2.071   7.902  17.777  0.00  0.00    +0.000 C 
BRANCH  23  24
ATOM     24  C   UNL     1       3.526   7.454  17.739  0.00  0.00    +0.000 C 
BRANCH  24  25
ATOM     25  C   UNL     1       3.660   5.938  17.724  0.00  0.00    +0.000 C 
BRANCH  25  26
ATOM     26  C   UNL     1       4.172   5.461  19.073  0.00  0.00    +0.000 C 
BRANCH  26  27
ATOM     27  O   UNL     1       5.579   5.660  19.132  0.00  0.00    +0.000 OA
BRANCH  27  28
ATOM     28  C   UNL     1       6.263   4.638  18.410  0.00  0.00    +0.000 C 
BRANCH  28  29
ATOM     29  C   UNL     1       7.291   5.278  17.474  0.00  0.00    +0.000 C 
ATOM     30  C   UNL     1       6.845   5.180  16.013  0.00  0.00    +0.000 C 
ATOM     31  C   UNL     1       7.519   6.733  17.873  0.00  0.00    +0.000 C 
ENDBRANCH  28  29
ENDBRANCH  27  28
ENDBRANCH  26  27
ENDBRANCH  25  26
ENDBRANCH  24  25
ENDBRANCH  23  24
ENDBRANCH  22  23
ENDBRANCH  21  22
ENDBRANCH  18  21
ENDBRANCH   2  18
TORSDOF 11
ENDMDL
MODEL 3
REMARK VINA RESULT:      -6.6      1.760      3.704
REMARK  Name = 
REMARK  19 active torsions:
REMARK  status: ('A' for Active; 'I' for Inactive)
REMARK    1  A    between atoms: C_1  and  C_2
REMARK    2  A    between atoms: C_4  and  C_5
REMARK    3  A    between atoms: C_6  and  N_7
REMARK    4  A    between atoms: C_8  and  C_10
REMARK    5  A    between atoms: C_10  and  C_11
REMARK    6  A    between atoms: C_10  and  C_12
REMARK    7  A    between atoms: C_10  and  C_13
REMARK    8  A    between atoms: C_13  and  C_14
REMARK    9  A    between atoms: C_14  and  C_15
REMARK   10  A    between atoms: C_15  and  C_16
REMARK   11  A    between atoms: C_16  and  C_17
REMARK   12  A    between atoms: C_17  and  C_18
REMARK   13  A    between atoms: C_18  and  O_19
REMARK   14  A    between atoms: O_19  and  C_20
REMARK   15  A    between atoms: C_20  and  C_21
REMARK   16  A    between atoms: C_21  and  C_22
REMARK   17  A    between atoms: C_21  and  C_23
REMARK   18  A    between atoms: C_27  and  C_28
REMARK   19  A    between atoms: C_27  and  C_29
REMARK                            x       y       z     vdW  Elec       q    Type
REMARK                         _______ _______ _______ _____ _____    ______ ____
ROOT
ATOM      1  N   UNL     1      -2.645  12.652  20.166  0.00  0.00    +0.000 N 
ATOM      2  C   UNL     1      -1.499  11.871  20.146  0.00  0.00    +0.000 C 
ATOM      3  O   UNL     1      -1.127  11.126  21.047  0.00  0.00    +0.000 OA
ATOM      4  H   UNL     1      -2.881  13.154  19.314  0.00  0.00    +0.000 HD
ENDROOT
BRANCH   1  10
ATOM      5  C   UNL     1      -6.901  13.327  24.064  0.00  0.00    +0.000 C 
ATOM      6  C   UNL     1      -5.795  13.150  23.072  0.00  0.00    +0.000 A 
ATOM      7  C   UNL     1      -4.492  13.528  23.395  0.00  0.00    +0.000 A 
ATOM      8  C   UNL     1      -3.403  13.398  22.493  0.00  0.00    +0.000 A 
ATOM      9  C   UNL     1      -2.103  13.892  23.063  0.00  0.00    +0.000 C 
ATOM     10  C   UNL     1      -3.614  12.851  21.205  0.00  0.00    +0.000 A 
ATOM     11  C   UNL     1      -4.946  12.479  20.907  0.00  0.00    +0.000 A 
ATOM     12  C   UNL     1      -5.996  12.623  21.811  0.00  0.00    +0.000 A 
ATOM     13  C   UNL     1      -7.274  12.165  21.221  0.00  0.00    +0.000 C 
ATOM     14  C   UNL     1      -6.796  11.676  19.842  0.00  0.00    +0.000 C 
ATOM     15  C   UNL     1      -7.545  12.416  18.726  0.00  0.00    +0.000 C 
ATOM     16  C   UNL     1      -7.037  10.168  19.692  0.00  0.00    +0.000 C 
ATOM     17  O   UNL     1      -5.361  11.941  19.701  0.00  0.00    +0.000 OA
ENDBRANCH   1  10
BRANCH   2  18
ATOM     18  C   UNL     1      -0.617  11.942  18.874  0.00  0.00    +0.000 C 
ATOM     19  C   UNL     1      -1.437  11.381  17.682  0.00  0.00    +0.000 C 
ATOM     20  C   UNL     1      -0.296  13.410  18.558  0.00  0.00    +0.000 C 
BRANCH  18  21
ATOM     21  C   UNL     1       0.696  11.143  19.029  0.00  0.00    +0.000 C 
BRANCH  21  22
ATOM     22  C   UNL     1       0.706   9.820  18.262  0.00  0.00    +0.000 C 
BRANCH  22  23
ATOM     23  C   UNL     1       2.126   9.397  17.885  0.00  0.00    +0.000 C 
BRANCH  23  24
ATOM     24  C   UNL     1       2.239   7.880  17.967  0.00  0.00    +0.000 C 
BRANCH  24  25
ATOM     25  C   UNL     1       3.637   7.389  17.622  0.00  0.00    +0.000 C 
BRANCH  25  26
ATOM     26  C   UNL     1       3.645   5.870  17.578  0.00  0.00    +0.000 C 
BRANCH  26  27
ATOM     27  O   UNL     1       2.520   5.378  18.296  0.00  0.00    +0.000 OA
BRANCH  27  28
ATOM     28  C   UNL     1       2.756   4.049  18.754  0.00  0.00    +0.000 C 
BRANCH  28  29
ATOM     29  C   UNL     1       2.086   3.854  20.115  0.00  0.00    +0.000 C 
ATOM     30  C   UNL     1       1.847   5.196  20.811  0.00  0.00    +0.000 C 
ATOM     31  C   UNL     1       0.775   3.092  19.943  0.00  0.00    +0.000 C 
ENDBRANCH  28  29
ENDBRANCH  27  28
ENDBRANCH  26  27
ENDBRANCH  25  26
ENDBRANCH  24  25
ENDBRANCH  23  24
ENDBRANCH  22  23
ENDBRANCH  21  22
ENDBRANCH  18  21
ENDBRANCH   2  18
TORSDOF 11
ENDMDL
MODEL 4
REMARK VINA RESULT:      -6.6      1.546      2.592
REMARK  Name = 
REMARK  19 active torsions:
REMARK  status: ('A' for Active; 'I' for Inactive)
REMARK    1  A    between atoms: C_1  and  C_2
REMARK    2  A    between atoms: C_4  and  C_5
REMARK    3  A    between atoms: C_6  and  N_7
REMARK    4  A    between atoms: C_8  and  C_10
REMARK    5  A    between atoms: C_10  and  C_11
REMARK    6  A    between atoms: C_10  and  C_12
REMARK    7  A    between atoms: C_10  and  C_13
REMARK    8  A    between atoms: C_13  and  C_14
REMARK    9  A    between atoms: C_14  and  C_15
REMARK   10  A    between atoms: C_15  and  C_16
REMARK   11  A    between atoms: C_16  and  C_17
REMARK   12  A    between atoms: C_17  and  C_18
REMARK   13  A    between atoms: C_18  and  O_19
REMARK   14  A    between atoms: O_19  and  C_20
REMARK   15  A    between atoms: C_20  and  C_21
REMARK   16  A    between atoms: C_21  and  C_22
REMARK   17  A    between atoms: C_21  and  C_23
REMARK   18  A    between atoms: C_27  and  C_28
REMARK   19  A    between atoms: C_27  and  C_29
REMARK                            x       y       z     vdW  Elec       q    Type
REMARK                         _______ _______ _______ _____ _____    ______ ____
ROOT
ATOM      1  N   UNL     1      -1.614  11.267  18.815  0.00  0.00    +0.000 N 
ATOM      2  C   UNL     1      -0.477  12.044  18.656  0.00  0.00    +0.000 C 
ATOM      3  O   UNL     1      -0.443  13.170  18.172  0.00  0.00    +0.000 OA
ATOM      4  H   UNL     1      -1.511  10.388  19.314  0.00  0.00    +0.000 HD
ENDROOT
BRANCH   1  10
ATOM      5  C   UNL     1      -7.174  12.468  17.626  0.00  0.00    +0.000 C 
ATOM      6  C   UNL     1      -5.739  12.160  17.918  0.00  0.00    +0.000 A 
ATOM      7  C   UNL     1      -4.981  11.417  17.012  0.00  0.00    +0.000 A 
ATOM      8  C   UNL     1      -3.619  11.081  17.236  0.00  0.00    +0.000 A 
ATOM      9  C   UNL     1      -3.024  10.259  16.128  0.00  0.00    +0.000 C 
ATOM     10  C   UNL     1      -2.970  11.515  18.416  0.00  0.00    +0.000 A 
ATOM     11  C   UNL     1      -3.765  12.264  19.315  0.00  0.00    +0.000 A 
ATOM     12  C   UNL     1      -5.101  12.575  19.070  0.00  0.00    +0.000 A 
ATOM     13  C   UNL     1      -5.680  13.354  20.188  0.00  0.00    +0.000 C 
ATOM     14  C   UNL     1      -4.454  13.499  21.105  0.00  0.00    +0.000 C 
ATOM     15  C   UNL     1      -4.756  12.921  22.493  0.00  0.00    +0.000 C 
ATOM     16  C   UNL     1      -4.062  14.974  21.252  0.00  0.00    +0.000 C 
ATOM     17  O   UNL     1      -3.323  12.766  20.527  0.00  0.00    +0.000 OA
ENDBRANCH   1  10
BRANCH   2  18
ATOM     18  C   UNL     1       0.866  11.438  19.138  0.00  0.00    +0.000 C 
ATOM     19  C   UNL     1       1.760  12.593  19.664  0.00  0.00    +0.000 C 
ATOM     20  C   UNL     1       0.603  10.489  20.316  0.00  0.00    +0.000 C 
BRANCH  18  21
ATOM     21  C   UNL     1       1.601  10.678  18.011  0.00  0.00    +0.000 C 
BRANCH  21  22
ATOM     22  C   UNL     1       1.440   9.159  18.086  0.00  0.00    +0.000 C 
BRANCH  22  23
ATOM     23  C   UNL     1       2.772   8.440  17.873  0.00  0.00    +0.000 C 
BRANCH  23  24
ATOM     24  C   UNL     1       2.818   7.193  18.747  0.00  0.00    +0.000 C 
BRANCH  24  25
ATOM     25  C   UNL     1       2.470   5.933  17.969  0.00  0.00    +0.000 C 
BRANCH  25  26
ATOM     26  C   UNL     1       3.748   5.206  17.584  0.00  0.00    +0.000 C 
BRANCH  26  27
ATOM     27  O   UNL     1       4.492   6.018  16.685  0.00  0.00    +0.000 OA
BRANCH  27  28
ATOM     28  C   UNL     1       5.844   5.571  16.602  0.00  0.00    +0.000 C 
BRANCH  28  29
ATOM     29  C   UNL     1       6.626   6.091  17.810  0.00  0.00    +0.000 C 
ATOM     30  C   UNL     1       7.658   5.066  18.283  0.00  0.00    +0.000 C 
ATOM     31  C   UNL     1       7.299   7.415  17.460  0.00  0.00    +0.000 C 
ENDBRANCH  28  29
ENDBRANCH  27  28
ENDBRANCH  26  27
ENDBRANCH  25  26
ENDBRANCH  24  25
ENDBRANCH  23  24
ENDBRANCH  22  23
ENDBRANCH  21  22
ENDBRANCH  18  21
ENDBRANCH   2  18
TORSDOF 11
ENDMDL
MODEL 5
REMARK VINA RESULT:      -6.5      4.439      6.641
REMARK  Name = 
REMARK  19 active torsions:
REMARK  status: ('A' for Active; 'I' for Inactive)
REMARK    1  A    between atoms: C_1  and  C_2
REMARK    2  A    between atoms: C_4  and  C_5
REMARK    3  A    between atoms: C_6  and  N_7
REMARK    4  A    between atoms: C_8  and  C_10
REMARK    5  A    between atoms: C_10  and  C_11
REMARK    6  A    between atoms: C_10  and  C_12
REMARK    7  A    between atoms: C_10  and  C_13
REMARK    8  A    between atoms: C_13  and  C_14
REMARK    9  A    between atoms: C_14  and  C_15
REMARK   10  A    between atoms: C_15  and  C_16
REMARK   11  A    between atoms: C_16  and  C_17
REMARK   12  A    between atoms: C_17  and  C_18
REMARK   13  A    between atoms: C_18  and  O_19
REMARK   14  A    between atoms: O_19  and  C_20
REMARK   15  A    between atoms: C_20  and  C_21
REMARK   16  A    between atoms: C_21  and  C_22
REMARK   17  A    between atoms: C_21  and  C_23
REMARK   18  A    between atoms: C_27  and  C_28
REMARK   19  A    between atoms: C_27  and  C_29
REMARK                            x       y       z     vdW  Elec       q    Type
REMARK                         _______ _______ _______ _____ _____    ______ ____
ROOT
ATOM      1  N   UNL     1       2.377   6.115  19.577  0.00  0.00    +0.000 N 
ATOM      2  C   UNL     1       1.987   4.948  18.936  0.00  0.00    +0.000 C 
ATOM      3  O   UNL     1       1.468   4.880  17.828  0.00  0.00    +0.000 OA
ATOM      4  H   UNL     1       2.878   6.018  20.456  0.00  0.00    +0.000 HD
ENDROOT
BRANCH   1  10
ATOM      5  C   UNL     1       1.491  11.726  18.355  0.00  0.00    +0.000 C 
ATOM      6  C   UNL     1       1.732  10.282  18.662  0.00  0.00    +0.000 A 
ATOM      7  C   UNL     1       2.418   9.474  17.755  0.00  0.00    +0.000 A 
ATOM      8  C   UNL     1       2.668   8.095  17.982  0.00  0.00    +0.000 A 
ATOM      9  C   UNL     1       3.406   7.435  16.852  0.00  0.00    +0.000 C 
ATOM     10  C   UNL     1       2.224   7.485  19.180  0.00  0.00    +0.000 A 
ATOM     11  C   UNL     1       1.531   8.329  20.079  0.00  0.00    +0.000 A 
ATOM     12  C   UNL     1       1.296   9.679  19.826  0.00  0.00    +0.000 A 
ATOM     13  C   UNL     1       0.539  10.304  20.933  0.00  0.00    +0.000 C 
ATOM     14  C   UNL     1       0.412   9.117  21.904  0.00  0.00    +0.000 C 
ATOM     15  C   UNL     1      -1.064   8.832  22.207  0.00  0.00    +0.000 C 
ATOM     16  C   UNL     1       1.144   9.415  23.218  0.00  0.00    +0.000 C 
ATOM     17  O   UNL     1       1.007   7.923  21.294  0.00  0.00    +0.000 OA
ENDBRANCH   1  10
BRANCH   2  18
ATOM     18  C   UNL     1       2.236   3.614  19.686  0.00  0.00    +0.000 C 
ATOM     19  C   UNL     1       2.362   3.924  21.201  0.00  0.00    +0.000 C 
ATOM     20  C   UNL     1       1.019   2.694  19.506  0.00  0.00    +0.000 C 
BRANCH  18  21
ATOM     21  C   UNL     1       3.511   2.895  19.190  0.00  0.00    +0.000 C 
BRANCH  21  22
ATOM     22  C   UNL     1       4.809   3.520  19.704  0.00  0.00    +0.000 C 
BRANCH  22  23
ATOM     23  C   UNL     1       5.081   4.874  19.048  0.00  0.00    +0.000 C 
BRANCH  23  24
ATOM     24  C   UNL     1       6.481   5.344  19.422  0.00  0.00    +0.000 C 
BRANCH  24  25
ATOM     25  C   UNL     1       7.308   5.712  18.200  0.00  0.00    +0.000 C 
BRANCH  25  26
ATOM     26  C   UNL     1       7.953   4.460  17.628  0.00  0.00    +0.000 C 
BRANCH  26  27
ATOM     27  O   UNL     1       7.758   4.441  16.219  0.00  0.00    +0.000 OA
BRANCH  27  28
ATOM     28  C   UNL     1       6.867   5.480  15.820  0.00  0.00    +0.000 C 
BRANCH  28  29
ATOM     29  C   UNL     1       5.751   4.889  14.957  0.00  0.00    +0.000 C 
ATOM     30  C   UNL     1       6.321   4.023  13.832  0.00  0.00    +0.000 C 
ATOM     31  C   UNL     1       4.794   4.082  15.829  0.00  0.00    +0.000 C 
ENDBRANCH  28  29
ENDBRANCH  27  28
ENDBRANCH  26  27
ENDBRANCH  25  26
ENDBRANCH  24  25
ENDBRANCH  23  24
ENDBRANCH  22  23
ENDBRANCH  21  22
ENDBRANCH  18  21
ENDBRANCH   2  18
TORSDOF 11
ENDMDL
MODEL 6
REMARK VINA RESULT:      -6.5      2.547      5.361
REMARK  Name = 
REMARK  19 active torsions:
REMARK  status: ('A' for Active; 'I' for Inactive)
REMARK    1  A    between atoms: C_1  and  C_2
REMARK    2  A    between atoms: C_4  and  C_5
REMARK    3  A    between atoms: C_6  and  N_7
REMARK    4  A    between atoms: C_8  and  C_10
REMARK    5  A    between atoms: C_10  and  C_11
REMARK    6  A    between atoms: C_10  and  C_12
REMARK    7  A    between atoms: C_10  and  C_13
REMARK    8  A    between atoms: C_13  and  C_14
REMARK    9  A    between atoms: C_14  and  C_15
REMARK   10  A    between atoms: C_15  and  C_16
REMARK   11  A    between atoms: C_16  and  C_17
REMARK   12  A    between atoms: C_17  and  C_18
REMARK   13  A    between atoms: C_18  and  O_19
REMARK   14  A    between atoms: O_19  and  C_20
REMARK   15  A    between atoms: C_20  and  C_21
REMARK   16  A    between atoms: C_21  and  C_22
REMARK   17  A    between atoms: C_21  and  C_23
REMARK   18  A    between atoms: C_27  and  C_28
REMARK   19  A    between atoms: C_27  and  C_29
REMARK                            x       y       z     vdW  Elec       q    Type
REMARK                         _______ _______ _______ _____ _____    ______ ____
ROOT
ATOM      1  N   UNL     1       1.309   8.629  19.578  0.00  0.00    +0.000 N 
ATOM      2  C   UNL     1       1.711   7.331  19.853  0.00  0.00    +0.000 C 
ATOM      3  O   UNL     1       1.406   6.685  20.850  0.00  0.00    +0.000 OA
ATOM      4  H   UNL     1       1.562   9.012  18.671  0.00  0.00    +0.000 HD
ENDROOT
BRANCH   1  10
ATOM      5  C   UNL     1      -2.050  12.466  22.363  0.00  0.00    +0.000 C 
ATOM      6  C   UNL     1      -1.184  11.470  21.659  0.00  0.00    +0.000 A 
ATOM      7  C   UNL     1      -0.147  10.833  22.340  0.00  0.00    +0.000 A 
ATOM      8  C   UNL     1       0.717   9.888  21.725  0.00  0.00    +0.000 A 
ATOM      9  C   UNL     1       1.768   9.355  22.658  0.00  0.00    +0.000 C 
ATOM     10  C   UNL     1       0.536   9.548  20.364  0.00  0.00    +0.000 A 
ATOM     11  C   UNL     1      -0.521  10.212  19.700  0.00  0.00    +0.000 A 
ATOM     12  C   UNL     1      -1.351  11.138  20.329  0.00  0.00    +0.000 A 
ATOM     13  C   UNL     1      -2.357  11.679  19.387  0.00  0.00    +0.000 C 
ATOM     14  C   UNL     1      -2.020  10.880  18.115  0.00  0.00    +0.000 C 
ATOM     15  C   UNL     1      -1.693  11.833  16.959  0.00  0.00    +0.000 C 
ATOM     16  C   UNL     1      -3.201   9.989  17.711  0.00  0.00    +0.000 C 
ATOM     17  O   UNL     1      -0.853  10.029  18.368  0.00  0.00    +0.000 OA
ENDBRANCH   1  10
BRANCH   2  18
ATOM     18  C   UNL     1       2.619   6.635  18.807  0.00  0.00    +0.000 C 
ATOM     19  C   UNL     1       3.282   7.732  17.932  0.00  0.00    +0.000 C 
ATOM     20  C   UNL     1       3.745   5.883  19.531  0.00  0.00    +0.000 C 
BRANCH  18  21
ATOM     21  C   UNL     1       1.830   5.655  17.910  0.00  0.00    +0.000 C 
BRANCH  21  22
ATOM     22  C   UNL     1       1.914   4.198  18.368  0.00  0.00    +0.000 C 
BRANCH  22  23
ATOM     23  C   UNL     1       2.422   3.286  17.251  0.00  0.00    +0.000 C 
BRANCH  23  24
ATOM     24  C   UNL     1       3.645   2.521  17.742  0.00  0.00    +0.000 C 
BRANCH  24  25
ATOM     25  C   UNL     1       4.923   3.335  17.605  0.00  0.00    +0.000 C 
BRANCH  25  26
ATOM     26  C   UNL     1       4.872   4.149  16.322  0.00  0.00    +0.000 C 
BRANCH  26  27
ATOM     27  O   UNL     1       5.737   5.271  16.449  0.00  0.00    +0.000 OA
BRANCH  27  28
ATOM     28  C   UNL     1       7.011   4.869  16.948  0.00  0.00    +0.000 C 
BRANCH  28  29
ATOM     29  C   UNL     1       7.611   6.003  17.782  0.00  0.00    +0.000 C 
ATOM     30  C   UNL     1       6.981   7.350  17.417  0.00  0.00    +0.000 C 
ATOM     31  C   UNL     1       7.430   5.705  19.267  0.00  0.00    +0.000 C 
ENDBRANCH  28  29
ENDBRANCH  27  28
ENDBRANCH  26  27
ENDBRANCH  25  26
ENDBRANCH  24  25
ENDBRANCH  23  24
ENDBRANCH  22  23
ENDBRANCH  21  22
ENDBRANCH  18  21
ENDBRANCH   2  18
TORSDOF 11
ENDMDL
MODEL 7
REMARK VINA RESULT:      -6.4      1.179      1.650
REMARK  Name = 
REMARK  19 active torsions:
REMARK  status: ('A' for Active; 'I' for Inactive)
REMARK    1  A    between atoms: C_1  and  C_2
REMARK    2  A    between atoms: C_4  and  C_5
REMARK    3  A    between atoms: C_6  and  N_7
REMARK    4  A    between atoms: C_8  and  C_10
REMARK    5  A    between atoms: C_10  and  C_11
REMARK    6  A    between atoms: C_10  and  C_12
REMARK    7  A    between atoms: C_10  and  C_13
REMARK    8  A    between atoms: C_13  and  C_14
REMARK    9  A    between atoms: C_14  and  C_15
REMARK   10  A    between atoms: C_15  and  C_16
REMARK   11  A    between atoms: C_16  and  C_17
REMARK   12  A    between atoms: C_17  and  C_18
REMARK   13  A    between atoms: C_18  and  O_19
REMARK   14  A    between atoms: O_19  and  C_20
REMARK   15  A    between atoms: C_20  and  C_21
REMARK   16  A    between atoms: C_21  and  C_22
REMARK   17  A    between atoms: C_21  and  C_23
REMARK   18  A    between atoms: C_27  and  C_28
REMARK   19  A    between atoms: C_27  and  C_29
REMARK                            x       y       z     vdW  Elec       q    Type
REMARK                         _______ _______ _______ _____ _____    ______ ____
ROOT
ATOM      1  N   UNL     1      -2.090  11.431  19.316  0.00  0.00    +0.000 N 
ATOM      2  C   UNL     1      -0.836  11.924  18.985  0.00  0.00    +0.000 C 
ATOM      3  O   UNL     1      -0.612  12.825  18.185  0.00  0.00    +0.000 OA
ATOM      4  H   UNL     1      -2.137  10.743  20.063  0.00  0.00    +0.000 HD
ENDROOT
BRANCH   1  10
ATOM      5  C   UNL     1      -7.439  12.955  17.635  0.00  0.00    +0.000 C 
ATOM      6  C   UNL     1      -6.057  12.565  18.054  0.00  0.00    +0.000 A 
ATOM      7  C   UNL     1      -5.236  11.843  17.186  0.00  0.00    +0.000 A 
ATOM      8  C   UNL     1      -3.921  11.432  17.529  0.00  0.00    +0.000 A 
ATOM      9  C   UNL     1      -3.244  10.652  16.437  0.00  0.00    +0.000 C 
ATOM     10  C   UNL     1      -3.385  11.765  18.795  0.00  0.00    +0.000 A 
ATOM     11  C   UNL     1      -4.241  12.494  19.653  0.00  0.00    +0.000 A 
ATOM     12  C   UNL     1      -5.530  12.880  19.291  0.00  0.00    +0.000 A 
ATOM     13  C   UNL     1      -6.194  13.617  20.390  0.00  0.00    +0.000 C 
ATOM     14  C   UNL     1      -5.068  13.650  21.437  0.00  0.00    +0.000 C 
ATOM     15  C   UNL     1      -5.539  13.004  22.746  0.00  0.00    +0.000 C 
ATOM     16  C   UNL     1      -4.636  15.094  21.719  0.00  0.00    +0.000 C 
ATOM     17  O   UNL     1      -3.911  12.902  20.934  0.00  0.00    +0.000 OA
ENDBRANCH   1  10
BRANCH   2  18
ATOM     18  C   UNL     1       0.384  11.282  19.693  0.00  0.00    +0.000 C 
ATOM     19  C   UNL     1       1.062  12.367  20.572  0.00  0.00    +0.000 C 
ATOM     20  C   UNL     1      -0.099  10.168  20.632  0.00  0.00    +0.000 C 
BRANCH  18  21
ATOM     21  C   UNL     1       1.407  10.709  18.687  0.00  0.00    +0.000 C 
BRANCH  21  22
ATOM     22  C   UNL     1       1.428   9.180  18.634  0.00  0.00    +0.000 C 
BRANCH  22  23
ATOM     23  C   UNL     1       2.364   8.667  17.540  0.00  0.00    +0.000 C 
BRANCH  23  24
ATOM     24  C   UNL     1       3.139   7.463  18.062  0.00  0.00    +0.000 C 
BRANCH  24  25
ATOM     25  C   UNL     1       2.219   6.379  18.603  0.00  0.00    +0.000 C 
BRANCH  25  26
ATOM     26  C   UNL     1       2.878   5.701  19.793  0.00  0.00    +0.000 C 
BRANCH  26  27
ATOM     27  O   UNL     1       3.116   4.335  19.476  0.00  0.00    +0.000 OA
BRANCH  27  28
ATOM     28  C   UNL     1       2.201   3.884  18.479  0.00  0.00    +0.000 C 
BRANCH  28  29
ATOM     29  C   UNL     1       2.946   3.018  17.461  0.00  0.00    +0.000 C 
ATOM     30  C   UNL     1       4.129   3.774  16.853  0.00  0.00    +0.000 C 
ATOM     31  C   UNL     1       3.413   1.725  18.125  0.00  0.00    +0.000 C 
ENDBRANCH  28  29
ENDBRANCH  27  28
ENDBRANCH  26  27
ENDBRANCH  25  26
ENDBRANCH  24  25
ENDBRANCH  23  24
ENDBRANCH  22  23
ENDBRANCH  21  22
ENDBRANCH  18  21
ENDBRANCH   2  18
TORSDOF 11
ENDMDL
MODEL 8
REMARK VINA RESULT:      -6.4      1.528      2.539
REMARK  Name = 
REMARK  19 active torsions:
REMARK  status: ('A' for Active; 'I' for Inactive)
REMARK    1  A    between atoms: C_1  and  C_2
REMARK    2  A    between atoms: C_4  and  C_5
REMARK    3  A    between atoms: C_6  and  N_7
REMARK    4  A    between atoms: C_8  and  C_10
REMARK    5  A    between atoms: C_10  and  C_11
REMARK    6  A    between atoms: C_10  and  C_12
REMARK    7  A    between atoms: C_10  and  C_13
REMARK    8  A    between atoms: C_13  and  C_14
REMARK    9  A    between atoms: C_14  and  C_15
REMARK   10  A    between atoms: C_15  and  C_16
REMARK   11  A    between atoms: C_16  and  C_17
REMARK   12  A    between atoms: C_17  and  C_18
REMARK   13  A    between atoms: C_18  and  O_19
REMARK   14  A    between atoms: O_19  and  C_20
REMARK   15  A    between atoms: C_20  and  C_21
REMARK   16  A    between atoms: C_21  and  C_22
REMARK   17  A    between atoms: C_21  and  C_23
REMARK   18  A    between atoms: C_27  and  C_28
REMARK   19  A    between atoms: C_27  and  C_29
REMARK                            x       y       z     vdW  Elec       q    Type
REMARK                         _______ _______ _______ _____ _____    ______ ____
ROOT
ATOM      1  N   UNL     1      -1.851  10.933  18.585  0.00  0.00    +0.000 N 
ATOM      2  C   UNL     1      -0.644  11.609  18.496  0.00  0.00    +0.000 C 
ATOM      3  O   UNL     1      -0.505  12.786  18.182  0.00  0.00    +0.000 OA
ATOM      4  H   UNL     1      -1.828   9.983  18.945  0.00  0.00    +0.000 HD
ENDROOT
BRANCH   1  10
ATOM      5  C   UNL     1      -7.268  12.884  17.801  0.00  0.00    +0.000 C 
ATOM      6  C   UNL     1      -5.871  12.383  17.988  0.00  0.00    +0.000 A 
ATOM      7  C   UNL     1      -5.261  11.613  16.998  0.00  0.00    +0.000 A 
ATOM      8  C   UNL     1      -3.943  11.098  17.121  0.00  0.00    +0.000 A 
ATOM      9  C   UNL     1      -3.516  10.282  15.934  0.00  0.00    +0.000 C 
ATOM     10  C   UNL     1      -3.184  11.372  18.283  0.00  0.00    +0.000 A 
ATOM     11  C   UNL     1      -3.830  12.153  19.270  0.00  0.00    +0.000 A 
ATOM     12  C   UNL     1      -5.127  12.641  19.123  0.00  0.00    +0.000 A 
ATOM     13  C   UNL     1      -5.544  13.412  20.316  0.00  0.00    +0.000 C 
ATOM     14  C   UNL     1      -4.263  13.346  21.165  0.00  0.00    +0.000 C 
ATOM     15  C   UNL     1      -4.564  12.721  22.534  0.00  0.00    +0.000 C 
ATOM     16  C   UNL     1      -3.680  14.749  21.373  0.00  0.00    +0.000 C 
ATOM     17  O   UNL     1      -3.265  12.518  20.479  0.00  0.00    +0.000 OA
ENDBRANCH   1  10
BRANCH   2  18
ATOM     18  C   UNL     1       0.641  10.807  18.829  0.00  0.00    +0.000 C 
ATOM     19  C   UNL     1       1.860  11.754  18.670  0.00  0.00    +0.000 C 
ATOM     20  C   UNL     1       0.596  10.360  20.297  0.00  0.00    +0.000 C 
BRANCH  18  21
ATOM     21  C   UNL     1       0.812   9.574  17.913  0.00  0.00    +0.000 C 
BRANCH  21  22
ATOM     22  C   UNL     1       2.223   8.986  17.931  0.00  0.00    +0.000 C 
BRANCH  22  23
ATOM     23  C   UNL     1       2.196   7.458  17.978  0.00  0.00    +0.000 C 
BRANCH  23  24
ATOM     24  C   UNL     1       2.729   6.985  19.325  0.00  0.00    +0.000 C 
BRANCH  24  25
ATOM     25  C   UNL     1       3.589   5.736  19.195  0.00  0.00    +0.000 C 
BRANCH  25  26
ATOM     26  C   UNL     1       4.179   5.669  17.795  0.00  0.00    +0.000 C 
BRANCH  26  27
ATOM     27  O   UNL     1       5.080   6.756  17.619  0.00  0.00    +0.000 OA
BRANCH  27  28
ATOM     28  C   UNL     1       6.132   6.398  16.727  0.00  0.00    +0.000 C 
BRANCH  28  29
ATOM     29  C   UNL     1       6.355   4.885  16.784  0.00  0.00    +0.000 C 
ATOM     30  C   UNL     1       6.435   4.284  15.379  0.00  0.00    +0.000 C 
ATOM     31  C   UNL     1       7.622   4.579  17.577  0.00  0.00    +0.000 C 
ENDBRANCH  28  29
ENDBRANCH  27  28
ENDBRANCH  26  27
ENDBRANCH  25  26
ENDBRANCH  24  25
ENDBRANCH  23  24
ENDBRANCH  22  23
ENDBRANCH  21  22
ENDBRANCH  18  21
ENDBRANCH   2  18
TORSDOF 11
ENDMDL
MODEL 9
REMARK VINA RESULT:      -6.4      1.457      2.401
REMARK  Name = 
REMARK  19 active torsions:
REMARK  status: ('A' for Active; 'I' for Inactive)
REMARK    1  A    between atoms: C_1  and  C_2
REMARK    2  A    between atoms: C_4  and  C_5
REMARK    3  A    between atoms: C_6  and  N_7
REMARK    4  A    between atoms: C_8  and  C_10
REMARK    5  A    between atoms: C_10  and  C_11
REMARK    6  A    between atoms: C_10  and  C_12
REMARK    7  A    between atoms: C_10  and  C_13
REMARK    8  A    between atoms: C_13  and  C_14
REMARK    9  A    between atoms: C_14  and  C_15
REMARK   10  A    between atoms: C_15  and  C_16
REMARK   11  A    between atoms: C_16  and  C_17
REMARK   12  A    between atoms: C_17  and  C_18
REMARK   13  A    between atoms: C_18  and  O_19
REMARK   14  A    between atoms: O_19  and  C_20
REMARK   15  A    between atoms: C_20  and  C_21
REMARK   16  A    between atoms: C_21  and  C_22
REMARK   17  A    between atoms: C_21  and  C_23
REMARK   18  A    between atoms: C_27  and  C_28
REMARK   19  A    between atoms: C_27  and  C_29
REMARK                            x       y       z     vdW  Elec       q    Type
REMARK                         _______ _______ _______ _____ _____    ______ ____
ROOT
ATOM      1  N   UNL     1      -1.535  11.687  18.439  0.00  0.00    +0.000 N 
ATOM      2  C   UNL     1      -0.762  10.680  18.996  0.00  0.00    +0.000 C 
ATOM      3  O   UNL     1      -1.183   9.611  19.426  0.00  0.00    +0.000 OA
ATOM      4  H   UNL     1      -1.046  12.484  18.040  0.00  0.00    +0.000 HD
ENDROOT
BRANCH   1  10
ATOM      5  C   UNL     1      -7.317  12.244  18.267  0.00  0.00    +0.000 C 
ATOM      6  C   UNL     1      -5.828  12.103  18.297  0.00  0.00    +0.000 A 
ATOM      7  C   UNL     1      -5.153  11.539  17.214  0.00  0.00    +0.000 A 
ATOM      8  C   UNL     1      -3.743  11.367  17.186  0.00  0.00    +0.000 A 
ATOM      9  C   UNL     1      -3.253  10.720  15.921  0.00  0.00    +0.000 C 
ATOM     10  C   UNL     1      -2.959  11.787  18.286  0.00  0.00    +0.000 A 
ATOM     11  C   UNL     1      -3.672  12.352  19.369  0.00  0.00    +0.000 A 
ATOM     12  C   UNL     1      -5.057  12.505  19.370  0.00  0.00    +0.000 A 
ATOM     13  C   UNL     1      -5.525  13.112  20.636  0.00  0.00    +0.000 C 
ATOM     14  C   UNL     1      -4.186  13.342  21.359  0.00  0.00    +0.000 C 
ATOM     15  C   UNL     1      -4.181  12.622  22.713  0.00  0.00    +0.000 C 
ATOM     16  C   UNL     1      -3.949  14.840  21.588  0.00  0.00    +0.000 C 
ATOM     17  O   UNL     1      -3.092  12.811  20.539  0.00  0.00    +0.000 OA
ENDBRANCH   1  10
BRANCH   2  18
ATOM     18  C   UNL     1       0.766  10.925  19.076  0.00  0.00    +0.000 C 
ATOM     19  C   UNL     1       1.037  12.419  18.756  0.00  0.00    +0.000 C 
ATOM     20  C   UNL     1       1.248  10.670  20.512  0.00  0.00    +0.000 C 
BRANCH  18  21
ATOM     21  C   UNL     1       1.553  10.028  18.095  0.00  0.00    +0.000 C 
BRANCH  21  22
ATOM     22  C   UNL     1       1.951   8.673  18.683  0.00  0.00    +0.000 C 
BRANCH  22  23
ATOM     23  C   UNL     1       2.803   7.863  17.706  0.00  0.00    +0.000 C 
BRANCH  23  24
ATOM     24  C   UNL     1       3.162   6.525  18.340  0.00  0.00    +0.000 C 
BRANCH  24  25
ATOM     25  C   UNL     1       2.133   5.448  18.031  0.00  0.00    +0.000 C 
BRANCH  25  26
ATOM     26  C   UNL     1       2.835   4.111  17.852  0.00  0.00    +0.000 C 
BRANCH  26  27
ATOM     27  O   UNL     1       4.241   4.322  17.850  0.00  0.00    +0.000 OA
BRANCH  27  28
ATOM     28  C   UNL     1       4.851   3.640  16.756  0.00  0.00    +0.000 C 
BRANCH  28  29
ATOM     29  C   UNL     1       5.850   4.573  16.068  0.00  0.00    +0.000 C 
ATOM     30  C   UNL     1       7.184   4.604  16.817  0.00  0.00    +0.000 C 
ATOM     31  C   UNL     1       6.052   4.138  14.620  0.00  0.00    +0.000 C 
ENDBRANCH  28  29
ENDBRANCH  27  28
ENDBRANCH  26  27
ENDBRANCH  25  26
ENDBRANCH  24  25
ENDBRANCH  23  24
ENDBRANCH  22  23
ENDBRANCH  21  22
ENDBRANCH  18  21
ENDBRANCH   2  18
TORSDOF 11
ENDMDL
