MODEL 1
REMARK VINA RESULT:      -7.4      0.000      0.000
REMARK  Name = 
REMARK  4 active torsions:
REMARK  status: ('A' for Active; 'I' for Inactive)
REMARK    1  A    between atoms: C_1  and  N_2
REMARK    2  A    between atoms: N_2  and  C_3
REMARK    3  A    between atoms: N_2  and  C_11
REMARK    4  A    between atoms: C_8  and  C_9
REMARK                            x       y       z     vdW  Elec       q    Type
REMARK                         _______ _______ _______ _____ _____    ______ ____
ROOT
ATOM      1  C   UNL     1       2.948   4.848  18.393  0.00  0.00    +0.000 C 
ATOM      2  C   UNL     1       2.770   5.438  19.813  0.00  0.00    +0.000 C 
ATOM      3  N   UNL     1       2.102   6.514  19.145  0.00  0.00    +0.000 N 
ATOM      4  C   UNL     1       1.818   7.724  19.736  0.00  0.00    +0.000 A 
ATOM      5  C   UNL     1       1.459   7.721  21.204  0.00  0.00    +0.000 A 
ATOM      6  C   UNL     1       1.059   8.849  21.797  0.00  0.00    +0.000 A 
ATOM      7  C   UNL     1       0.986  10.021  21.029  0.00  0.00    +0.000 A 
ATOM      8  N   UNL     1       0.613  11.250  21.312  0.00  0.00    +0.000 NA
ATOM      9  N   UNL     1       0.712  11.990  20.152  0.00  0.00    +0.000 NA
ATOM     10  C   UNL     1       1.138  11.186  19.203  0.00  0.00    +0.000 A 
ATOM     11  N   UNL     1       1.348   9.929  19.703  0.00  0.00    +0.000 N 
ATOM     12  N   UNL     1       1.775   8.821  19.017  0.00  0.00    +0.000 NA
ATOM     13  C   UNL     1       2.910   6.346  17.968  0.00  0.00    +0.000 C 
ENDROOT
BRANCH   1  15
ATOM     14  C   UNL     1       4.580   3.245  19.420  0.00  0.00    +0.000 C 
ATOM     15  N   UNL     1       4.160   4.048  18.276  0.00  0.00    +0.000 N 
BRANCH  15  16
ATOM     16  C   UNL     1       5.121   4.367  17.286  0.00  0.00    +0.000 A 
ATOM     17  N   UNL     1       4.821   3.985  16.014  0.00  0.00    +0.000 NA
ATOM     18  C   UNL     1       5.678   4.258  15.001  0.00  0.00    +0.000 A 
ATOM     19  C   UNL     1       6.879   4.909  15.171  0.00  0.00    +0.000 A 
ATOM     20  C   UNL     1       7.224   5.273  16.462  0.00  0.00    +0.000 A 
ATOM     21  C   UNL     1       6.357   4.988  17.532  0.00  0.00    +0.000 A 
BRANCH  21  22
ATOM     22  C   UNL     1       6.828   5.281  18.850  0.00  0.00    +0.000 C 
ATOM     23  N   UNL     1       7.192   5.512  19.927  0.00  0.00    +0.000 NA
ENDBRANCH  21  22
ENDBRANCH  15  16
ENDBRANCH   1  15
TORSDOF 3
ENDMDL
MODEL 2
REMARK VINA RESULT:      -7.3      0.727      2.092
REMARK  Name = 
REMARK  4 active torsions:
REMARK  status: ('A' for Active; 'I' for Inactive)
REMARK    1  A    between atoms: C_1  and  N_2
REMARK    2  A    between atoms: N_2  and  C_3
REMARK    3  A    between atoms: N_2  and  C_11
REMARK    4  A    between atoms: C_8  and  C_9
REMARK                            x       y       z     vdW  Elec       q    Type
REMARK                         _______ _______ _______ _____ _____    ______ ____
ROOT
ATOM      1  C   UNL     1       3.032   4.657  18.623  0.00  0.00    +0.000 C 
ATOM      2  C   UNL     1       2.762   5.368  19.971  0.00  0.00    +0.000 C 
ATOM      3  N   UNL     1       2.134   6.375  19.170  0.00  0.00    +0.000 N 
ATOM      4  C   UNL     1       1.810   7.630  19.631  0.00  0.00    +0.000 A 
ATOM      5  C   UNL     1       1.359   7.755  21.068  0.00  0.00    +0.000 A 
ATOM      6  C   UNL     1       0.918   8.928  21.532  0.00  0.00    +0.000 A 
ATOM      7  C   UNL     1       0.891  10.026  20.659  0.00  0.00    +0.000 A 
ATOM      8  N   UNL     1       0.497  11.272  20.808  0.00  0.00    +0.000 NA
ATOM      9  N   UNL     1       0.667  11.907  19.594  0.00  0.00    +0.000 NA
ATOM     10  C   UNL     1       1.154  11.025  18.750  0.00  0.00    +0.000 A 
ATOM     11  N   UNL     1       1.336   9.820  19.371  0.00  0.00    +0.000 N 
ATOM     12  N   UNL     1       1.809   8.659  18.816  0.00  0.00    +0.000 NA
ATOM     13  C   UNL     1       3.015   6.110  18.065  0.00  0.00    +0.000 C 
ENDROOT
BRANCH   1  15
ATOM     14  C   UNL     1       4.197   2.524  19.242  0.00  0.00    +0.000 C 
ATOM     15  N   UNL     1       4.250   3.859  18.655  0.00  0.00    +0.000 N 
BRANCH  15  16
ATOM     16  C   UNL     1       5.511   4.496  18.537  0.00  0.00    +0.000 A 
ATOM     17  N   UNL     1       6.043   4.988  19.690  0.00  0.00    +0.000 NA
ATOM     18  C   UNL     1       7.249   5.603  19.675  0.00  0.00    +0.000 A 
ATOM     19  C   UNL     1       8.000   5.783  18.535  0.00  0.00    +0.000 A 
ATOM     20  C   UNL     1       7.461   5.325  17.345  0.00  0.00    +0.000 A 
ATOM     21  C   UNL     1       6.204   4.695  17.333  0.00  0.00    +0.000 A 
BRANCH  21  22
ATOM     22  C   UNL     1       5.655   4.358  16.057  0.00  0.00    +0.000 C 
ATOM     23  N   UNL     1       5.199   4.101  15.022  0.00  0.00    +0.000 NA
ENDBRANCH  21  22
ENDBRANCH  15  16
ENDBRANCH   1  15
TORSDOF 3
ENDMDL
MODEL 3
REMARK VINA RESULT:      -7.2      1.720      2.579
REMARK  Name = 
REMARK  4 active torsions:
REMARK  status: ('A' for Active; 'I' for Inactive)
REMARK    1  A    between atoms: C_1  and  N_2
REMARK    2  A    between atoms: N_2  and  C_3
REMARK    3  A    between atoms: N_2  and  C_11
REMARK    4  A    between atoms: C_8  and  C_9
REMARK                            x       y       z     vdW  Elec       q    Type
REMARK                         _______ _______ _______ _____ _____    ______ ____
ROOT
ATOM      1  C   UNL     1       2.440   6.948  17.959  0.00  0.00    +0.000 C 
ATOM      2  C   UNL     1       2.042   6.921  19.454  0.00  0.00    +0.000 C 
ATOM      3  N   UNL     1       1.466   8.206  19.194  0.00  0.00    +0.000 N 
ATOM      4  C   UNL     1       1.079   9.086  20.179  0.00  0.00    +0.000 A 
ATOM      5  C   UNL     1       0.503   8.507  21.450  0.00  0.00    +0.000 A 
ATOM      6  C   UNL     1       0.001   9.317  22.387  0.00  0.00    +0.000 A 
ATOM      7  C   UNL     1       0.028  10.701  22.160  0.00  0.00    +0.000 A 
ATOM      8  N   UNL     1      -0.401  11.727  22.862  0.00  0.00    +0.000 NA
ATOM      9  N   UNL     1      -0.140  12.867  22.130  0.00  0.00    +0.000 NA
ATOM     10  C   UNL     1       0.435  12.496  21.009  0.00  0.00    +0.000 A 
ATOM     11  N   UNL     1       0.586  11.136  20.978  0.00  0.00    +0.000 N 
ATOM     12  N   UNL     1       1.128  10.380  19.970  0.00  0.00    +0.000 NA
ATOM     13  C   UNL     1       2.444   8.489  18.179  0.00  0.00    +0.000 C 
ENDROOT
BRANCH   1  15
ATOM     14  C   UNL     1       4.660   6.787  16.803  0.00  0.00    +0.000 C 
ATOM     15  N   UNL     1       3.667   6.206  17.701  0.00  0.00    +0.000 N 
BRANCH  15  16
ATOM     16  C   UNL     1       3.710   4.811  17.942  0.00  0.00    +0.000 A 
ATOM     17  N   UNL     1       2.632   4.097  17.515  0.00  0.00    +0.000 NA
ATOM     18  C   UNL     1       2.591   2.755  17.694  0.00  0.00    +0.000 A 
ATOM     19  C   UNL     1       3.591   2.035  18.307  0.00  0.00    +0.000 A 
ATOM     20  C   UNL     1       4.679   2.745  18.785  0.00  0.00    +0.000 A 
ATOM     21  C   UNL     1       4.738   4.141  18.623  0.00  0.00    +0.000 A 
BRANCH  21  22
ATOM     22  C   UNL     1       5.829   4.824  19.245  0.00  0.00    +0.000 C 
ATOM     23  N   UNL     1       6.711   5.368  19.768  0.00  0.00    +0.000 NA
ENDBRANCH  21  22
ENDBRANCH  15  16
ENDBRANCH   1  15
TORSDOF 3
ENDMDL
MODEL 4
REMARK VINA RESULT:      -7.1      1.394      2.043
REMARK  Name = 
REMARK  4 active torsions:
REMARK  status: ('A' for Active; 'I' for Inactive)
REMARK    1  A    between atoms: C_1  and  N_2
REMARK    2  A    between atoms: N_2  and  C_3
REMARK    3  A    between atoms: N_2  and  C_11
REMARK    4  A    between atoms: C_8  and  C_9
REMARK                            x       y       z     vdW  Elec       q    Type
REMARK                         _______ _______ _______ _____ _____    ______ ____
ROOT
ATOM      1  C   UNL     1       3.605   6.438  18.385  0.00  0.00    +0.000 C 
ATOM      2  C   UNL     1       2.515   7.459  17.977  0.00  0.00    +0.000 C 
ATOM      3  N   UNL     1       2.501   7.809  19.365  0.00  0.00    +0.000 N 
ATOM      4  C   UNL     1       1.509   8.557  19.956  0.00  0.00    +0.000 A 
ATOM      5  C   UNL     1       0.878   9.659  19.138  0.00  0.00    +0.000 A 
ATOM      6  C   UNL     1      -0.003  10.491  19.701  0.00  0.00    +0.000 A 
ATOM      7  C   UNL     1      -0.323  10.312  21.054  0.00  0.00    +0.000 A 
ATOM      8  N   UNL     1      -1.113  10.967  21.878  0.00  0.00    +0.000 NA
ATOM      9  N   UNL     1      -1.013  10.363  23.114  0.00  0.00    +0.000 NA
ATOM     10  C   UNL     1      -0.165   9.365  23.002  0.00  0.00    +0.000 A 
ATOM     11  N   UNL     1       0.292   9.270  21.716  0.00  0.00    +0.000 N 
ATOM     12  N   UNL     1       1.197   8.369  21.217  0.00  0.00    +0.000 NA
ATOM     13  C   UNL     1       2.861   6.472  19.752  0.00  0.00    +0.000 C 
ENDROOT
BRANCH   1  15
ATOM     14  C   UNL     1       2.629   4.200  17.814  0.00  0.00    +0.000 C 
ATOM     15  N   UNL     1       3.598   5.255  17.536  0.00  0.00    +0.000 N 
BRANCH  15  16
ATOM     16  C   UNL     1       4.745   4.932  16.769  0.00  0.00    +0.000 A 
ATOM     17  N   UNL     1       4.521   4.591  15.470  0.00  0.00    +0.000 NA
ATOM     18  C   UNL     1       5.560   4.277  14.660  0.00  0.00    +0.000 A 
ATOM     19  C   UNL     1       6.873   4.268  15.071  0.00  0.00    +0.000 A 
ATOM     20  C   UNL     1       7.122   4.574  16.398  0.00  0.00    +0.000 A 
ATOM     21  C   UNL     1       6.059   4.890  17.263  0.00  0.00    +0.000 A 
BRANCH  21  22
ATOM     22  C   UNL     1       6.374   5.076  18.645  0.00  0.00    +0.000 C 
ATOM     23  N   UNL     1       6.644   5.211  19.765  0.00  0.00    +0.000 NA
ENDBRANCH  21  22
ENDBRANCH  15  16
ENDBRANCH   1  15
TORSDOF 3
ENDMDL
MODEL 5
REMARK VINA RESULT:      -7.0      1.294      1.889
REMARK  Name = 
REMARK  4 active torsions:
REMARK  status: ('A' for Active; 'I' for Inactive)
REMARK    1  A    between atoms: C_1  and  N_2
REMARK    2  A    between atoms: N_2  and  C_3
REMARK    3  A    between atoms: N_2  and  C_11
REMARK    4  A    between atoms: C_8  and  C_9
REMARK                            x       y       z     vdW  Elec       q    Type
REMARK                         _______ _______ _______ _____ _____    ______ ____
ROOT
ATOM      1  C   UNL     1       4.296   5.771  18.385  0.00  0.00    +0.000 C 
ATOM      2  C   UNL     1       3.362   6.827  17.746  0.00  0.00    +0.000 C 
ATOM      3  N   UNL     1       3.102   7.230  19.095  0.00  0.00    +0.000 N 
ATOM      4  C   UNL     1       2.059   8.048  19.463  0.00  0.00    +0.000 A 
ATOM      5  C   UNL     1       1.658   9.147  18.508  0.00  0.00    +0.000 A 
ATOM      6  C   UNL     1       0.733  10.043  18.867  0.00  0.00    +0.000 A 
ATOM      7  C   UNL     1       0.152   9.931  20.138  0.00  0.00    +0.000 A 
ATOM      8  N   UNL     1      -0.743  10.655  20.775  0.00  0.00    +0.000 NA
ATOM      9  N   UNL     1      -0.915  10.096  22.025  0.00  0.00    +0.000 NA
ATOM     10  C   UNL     1      -0.117   9.054  22.106  0.00  0.00    +0.000 A 
ATOM     11  N   UNL     1       0.570   8.887  20.935  0.00  0.00    +0.000 N 
ATOM     12  N   UNL     1       1.502   7.924  20.645  0.00  0.00    +0.000 NA
ATOM     13  C   UNL     1       3.307   5.893  19.582  0.00  0.00    +0.000 C 
ENDROOT
BRANCH   1  15
ATOM     14  C   UNL     1       3.961   3.294  18.179  0.00  0.00    +0.000 C 
ATOM     15  N   UNL     1       4.385   4.557  17.584  0.00  0.00    +0.000 N 
BRANCH  15  16
ATOM     16  C   UNL     1       5.247   4.518  16.460  0.00  0.00    +0.000 A 
ATOM     17  N   UNL     1       4.653   4.281  15.258  0.00  0.00    +0.000 NA
ATOM     18  C   UNL     1       5.399   4.236  14.129  0.00  0.00    +0.000 A 
ATOM     19  C   UNL     1       6.764   4.410  14.106  0.00  0.00    +0.000 A 
ATOM     20  C   UNL     1       7.395   4.614  15.322  0.00  0.00    +0.000 A 
ATOM     21  C   UNL     1       6.644   4.650  16.511  0.00  0.00    +0.000 A 
BRANCH  21  22
ATOM     22  C   UNL     1       7.370   4.743  17.739  0.00  0.00    +0.000 C 
ATOM     23  N   UNL     1       7.944   4.809  18.745  0.00  0.00    +0.000 NA
ENDBRANCH  21  22
ENDBRANCH  15  16
ENDBRANCH   1  15
TORSDOF 3
ENDMDL
MODEL 6
REMARK VINA RESULT:      -6.9      1.052      1.208
REMARK  Name = 
REMARK  4 active torsions:
REMARK  status: ('A' for Active; 'I' for Inactive)
REMARK    1  A    between atoms: C_1  and  N_2
REMARK    2  A    between atoms: N_2  and  C_3
REMARK    3  A    between atoms: N_2  and  C_11
REMARK    4  A    between atoms: C_8  and  C_9
REMARK                            x       y       z     vdW  Elec       q    Type
REMARK                         _______ _______ _______ _____ _____    ______ ____
ROOT
ATOM      1  C   UNL     1       3.585   5.618  18.164  0.00  0.00    +0.000 C 
ATOM      2  C   UNL     1       3.162   6.021  19.597  0.00  0.00    +0.000 C 
ATOM      3  N   UNL     1       2.376   7.026  18.947  0.00  0.00    +0.000 N 
ATOM      4  C   UNL     1       1.818   8.102  19.599  0.00  0.00    +0.000 A 
ATOM      5  C   UNL     1       1.323   7.888  21.010  0.00  0.00    +0.000 A 
ATOM      6  C   UNL     1       0.665   8.863  21.643  0.00  0.00    +0.000 A 
ATOM      7  C   UNL     1       0.454  10.076  20.970  0.00  0.00    +0.000 A 
ATOM      8  N   UNL     1      -0.165  11.187  21.308  0.00  0.00    +0.000 NA
ATOM      9  N   UNL     1      -0.090  12.046  20.231  0.00  0.00    +0.000 NA
ATOM     10  C   UNL     1       0.568  11.428  19.276  0.00  0.00    +0.000 A 
ATOM     11  N   UNL     1       0.956  10.184  19.691  0.00  0.00    +0.000 N 
ATOM     12  N   UNL     1       1.645   9.242  18.972  0.00  0.00    +0.000 NA
ATOM     13  C   UNL     1       3.314   7.121  17.862  0.00  0.00    +0.000 C 
ENDROOT
BRANCH   1  15
ATOM     14  C   UNL     1       5.746   5.110  19.331  0.00  0.00    +0.000 C 
ATOM     15  N   UNL     1       4.929   5.057  18.123  0.00  0.00    +0.000 N 
BRANCH  15  16
ATOM     16  C   UNL     1       5.578   4.875  16.876  0.00  0.00    +0.000 A 
ATOM     17  N   UNL     1       5.218   3.768  16.169  0.00  0.00    +0.000 NA
ATOM     18  C   UNL     1       5.779   3.520  14.963  0.00  0.00    +0.000 A 
ATOM     19  C   UNL     1       6.729   4.328  14.381  0.00  0.00    +0.000 A 
ATOM     20  C   UNL     1       7.139   5.439  15.099  0.00  0.00    +0.000 A 
ATOM     21  C   UNL     1       6.581   5.711  16.360  0.00  0.00    +0.000 A 
BRANCH  21  22
ATOM     22  C   UNL     1       7.136   6.802  17.098  0.00  0.00    +0.000 C 
ATOM     23  N   UNL     1       7.567   7.694  17.702  0.00  0.00    +0.000 NA
ENDBRANCH  21  22
ENDBRANCH  15  16
ENDBRANCH   1  15
TORSDOF 3
ENDMDL
MODEL 7
REMARK VINA RESULT:      -6.8      1.635      2.561
REMARK  Name = 
REMARK  4 active torsions:
REMARK  status: ('A' for Active; 'I' for Inactive)
REMARK    1  A    between atoms: C_1  and  N_2
REMARK    2  A    between atoms: N_2  and  C_3
REMARK    3  A    between atoms: N_2  and  C_11
REMARK    4  A    between atoms: C_8  and  C_9
REMARK                            x       y       z     vdW  Elec       q    Type
REMARK                         _______ _______ _______ _____ _____    ______ ____
ROOT
ATOM      1  C   UNL     1       3.176   6.944  18.678  0.00  0.00    +0.000 C 
ATOM      2  C   UNL     1       2.193   8.049  18.222  0.00  0.00    +0.000 C 
ATOM      3  N   UNL     1       2.087   8.356  19.617  0.00  0.00    +0.000 N 
ATOM      4  C   UNL     1       1.101   9.151  20.154  0.00  0.00    +0.000 A 
ATOM      5  C   UNL     1       0.614  10.318  19.328  0.00  0.00    +0.000 A 
ATOM      6  C   UNL     1      -0.254  11.191  19.850  0.00  0.00    +0.000 A 
ATOM      7  C   UNL     1      -0.695  10.992  21.166  0.00  0.00    +0.000 A 
ATOM      8  N   UNL     1      -1.505  11.673  21.947  0.00  0.00    +0.000 NA
ATOM      9  N   UNL     1      -1.548  11.026  23.164  0.00  0.00    +0.000 NA
ATOM     10  C   UNL     1      -0.761   9.976  23.084  0.00  0.00    +0.000 A 
ATOM     11  N   UNL     1      -0.207   9.890  21.835  0.00  0.00    +0.000 N 
ATOM     12  N   UNL     1       0.675   8.945  21.378  0.00  0.00    +0.000 NA
ATOM     13  C   UNL     1       2.325   6.986  19.981  0.00  0.00    +0.000 C 
ENDROOT
BRANCH   1  15
ATOM     14  C   UNL     1       2.063   4.837  17.898  0.00  0.00    +0.000 C 
ATOM     15  N   UNL     1       3.161   5.791  17.788  0.00  0.00    +0.000 N 
BRANCH  15  16
ATOM     16  C   UNL     1       4.360   5.371  17.161  0.00  0.00    +0.000 A 
ATOM     17  N   UNL     1       4.630   5.931  15.949  0.00  0.00    +0.000 NA
ATOM     18  C   UNL     1       5.760   5.596  15.281  0.00  0.00    +0.000 A 
ATOM     19  C   UNL     1       6.685   4.691  15.751  0.00  0.00    +0.000 A 
ATOM     20  C   UNL     1       6.412   4.080  16.963  0.00  0.00    +0.000 A 
ATOM     21  C   UNL     1       5.239   4.401  17.668  0.00  0.00    +0.000 A 
BRANCH  21  22
ATOM     22  C   UNL     1       4.960   3.645  18.850  0.00  0.00    +0.000 C 
ATOM     23  N   UNL     1       4.731   3.016  19.797  0.00  0.00    +0.000 NA
ENDBRANCH  21  22
ENDBRANCH  15  16
ENDBRANCH   1  15
TORSDOF 3
ENDMDL
MODEL 8
REMARK VINA RESULT:      -6.8      2.427      8.674
REMARK  Name = 
REMARK  4 active torsions:
REMARK  status: ('A' for Active; 'I' for Inactive)
REMARK    1  A    between atoms: C_1  and  N_2
REMARK    2  A    between atoms: N_2  and  C_3
REMARK    3  A    between atoms: N_2  and  C_11
REMARK    4  A    between atoms: C_8  and  C_9
REMARK                            x       y       z     vdW  Elec       q    Type
REMARK                         _______ _______ _______ _____ _____    ______ ____
ROOT
ATOM      1  C   UNL     1       0.206  10.312  19.658  0.00  0.00    +0.000 C 
ATOM      2  C   UNL     1       1.443  10.122  18.746  0.00  0.00    +0.000 C 
ATOM      3  N   UNL     1       1.324   8.736  19.089  0.00  0.00    +0.000 N 
ATOM      4  C   UNL     1       2.312   7.804  18.865  0.00  0.00    +0.000 A 
ATOM      5  C   UNL     1       3.155   7.961  17.621  0.00  0.00    +0.000 A 
ATOM      6  C   UNL     1       4.045   7.019  17.293  0.00  0.00    +0.000 A 
ATOM      7  C   UNL     1       4.174   5.900  18.128  0.00  0.00    +0.000 A 
ATOM      8  N   UNL     1       4.924   4.821  18.061  0.00  0.00    +0.000 NA
ATOM      9  N   UNL     1       4.608   4.030  19.147  0.00  0.00    +0.000 NA
ATOM     10  C   UNL     1       3.676   4.653  19.834  0.00  0.00    +0.000 A 
ATOM     11  N   UNL     1       3.373   5.852  19.248  0.00  0.00    +0.000 N 
ATOM     12  N   UNL     1       2.444   6.771  19.663  0.00  0.00    +0.000 NA
ATOM     13  C   UNL     1       0.776   9.056  20.379  0.00  0.00    +0.000 C 
ENDROOT
BRANCH   1  15
ATOM     14  C   UNL     1       1.461  12.251  20.636  0.00  0.00    +0.000 C 
ATOM     15  N   UNL     1       0.188  11.622  20.296  0.00  0.00    +0.000 N 
BRANCH  15  16
ATOM     16  C   UNL     1      -0.983  12.066  20.958  0.00  0.00    +0.000 A 
ATOM     17  N   UNL     1      -1.687  13.050  20.333  0.00  0.00    +0.000 NA
ATOM     18  C   UNL     1      -2.825  13.529  20.889  0.00  0.00    +0.000 A 
ATOM     19  C   UNL     1      -3.337  13.084  22.087  0.00  0.00    +0.000 A 
ATOM     20  C   UNL     1      -2.617  12.111  22.759  0.00  0.00    +0.000 A 
ATOM     21  C   UNL     1      -1.425  11.608  22.209  0.00  0.00    +0.000 A 
BRANCH  21  22
ATOM     22  C   UNL     1      -0.670  10.695  23.011  0.00  0.00    +0.000 C 
ATOM     23  N   UNL     1      -0.045   9.952  23.645  0.00  0.00    +0.000 NA
ENDBRANCH  21  22
ENDBRANCH  15  16
ENDBRANCH   1  15
TORSDOF 3
ENDMDL
MODEL 9
REMARK VINA RESULT:      -6.7      1.701      2.266
REMARK  Name = 
REMARK  4 active torsions:
REMARK  status: ('A' for Active; 'I' for Inactive)
REMARK    1  A    between atoms: C_1  and  N_2
REMARK    2  A    between atoms: N_2  and  C_3
REMARK    3  A    between atoms: N_2  and  C_11
REMARK    4  A    between atoms: C_8  and  C_9
REMARK                            x       y       z     vdW  Elec       q    Type
REMARK                         _______ _______ _______ _____ _____    ______ ____
ROOT
ATOM      1  C   UNL     1       2.602   6.434  18.527  0.00  0.00    +0.000 C 
ATOM      2  C   UNL     1       2.012   6.532  19.954  0.00  0.00    +0.000 C 
ATOM      3  N   UNL     1       1.567   7.830  19.545  0.00  0.00    +0.000 N 
ATOM      4  C   UNL     1       1.119   8.796  20.417  0.00  0.00    +0.000 A 
ATOM      5  C   UNL     1       0.343   8.341  21.630  0.00  0.00    +0.000 A 
ATOM      6  C   UNL     1      -0.218   9.241  22.443  0.00  0.00    +0.000 A 
ATOM      7  C   UNL     1      -0.064  10.602  22.143  0.00  0.00    +0.000 A 
ATOM      8  N   UNL     1      -0.506  11.698  22.721  0.00  0.00    +0.000 NA
ATOM      9  N   UNL     1      -0.072  12.768  21.966  0.00  0.00    +0.000 NA
ATOM     10  C   UNL     1       0.617  12.288  20.955  0.00  0.00    +0.000 A 
ATOM     11  N   UNL     1       0.674  10.922  21.023  0.00  0.00    +0.000 N 
ATOM     12  N   UNL     1       1.287  10.069  20.143  0.00  0.00    +0.000 NA
ATOM     13  C   UNL     1       2.687   7.983  18.657  0.00  0.00    +0.000 C 
ENDROOT
BRANCH   1  15
ATOM     14  C   UNL     1       4.606   5.472  19.687  0.00  0.00    +0.000 C 
ATOM     15  N   UNL     1       3.796   5.601  18.480  0.00  0.00    +0.000 N 
BRANCH  15  16
ATOM     16  C   UNL     1       4.392   5.294  17.232  0.00  0.00    +0.000 A 
ATOM     17  N   UNL     1       4.820   6.357  16.496  0.00  0.00    +0.000 NA
ATOM     18  C   UNL     1       5.411   6.158  15.293  0.00  0.00    +0.000 A 
ATOM     19  C   UNL     1       5.609   4.915  14.736  0.00  0.00    +0.000 A 
ATOM     20  C   UNL     1       5.146   3.821  15.449  0.00  0.00    +0.000 A 
ATOM     21  C   UNL     1       4.517   4.004  16.693  0.00  0.00    +0.000 A 
BRANCH  21  22
ATOM     22  C   UNL     1       3.956   2.846  17.317  0.00  0.00    +0.000 C 
ATOM     23  N   UNL     1       3.484   1.909  17.812  0.00  0.00    +0.000 NA
ENDBRANCH  21  22
ENDBRANCH  15  16
ENDBRANCH   1  15
TORSDOF 3
ENDMDL
