MODEL 1
REMARK VINA RESULT:      -8.7      0.000      0.000
REMARK  Name = 
REMARK  9 active torsions:
REMARK  status: ('A' for Active; 'I' for Inactive)
REMARK    1  A    between atoms: C_1  and  C_2
REMARK    2  A    between atoms: C_2  and  C_3
REMARK    3  A    between atoms: C_2  and  C_4
REMARK    4  A    between atoms: C_4  and  C_5
REMARK    5  A    between atoms: C_4  and  N_21
REMARK    6  A    between atoms: C_5  and  O_7
REMARK    7  A    between atoms: O_7  and  C_8
REMARK    8  A    between atoms: C_8  and  C_9
REMARK    9  A    between atoms: N_11  and  C_12
REMARK                            x       y       z     vdW  Elec       q    Type
REMARK                         _______ _______ _______ _____ _____    ______ ____
ROOT
ATOM      1  C   UNL     1       6.914   5.571  18.923  0.00  0.00    +0.000 C 
ATOM      2  O   UNL     1       7.383   5.413  20.043  0.00  0.00    +0.000 OA
ENDROOT
BRANCH   1   3
ATOM      3  C   UNL     1       6.144   4.522  18.107  0.00  0.00    +0.000 C 
BRANCH   3   4
ATOM      4  N   UNL     1       4.836   4.275  18.754  0.00  0.00    +0.000 N 
ATOM      5  C   UNL     1       4.568   3.180  19.544  0.00  0.00    +0.000 C 
ATOM      6  O   UNL     1       5.277   2.224  19.791  0.00  0.00    +0.000 OA
ATOM      7  C   UNL     1       3.197   3.330  20.041  0.00  0.00    +0.000 A 
ATOM      8  C   UNL     1       2.436   2.568  20.907  0.00  0.00    +0.000 A 
ATOM      9  C   UNL     1       1.119   2.987  21.152  0.00  0.00    +0.000 A 
ATOM     10  C   UNL     1       0.589   4.127  20.515  0.00  0.00    +0.000 A 
ATOM     11  C   UNL     1       1.383   4.895  19.664  0.00  0.00    +0.000 A 
ATOM     12  C   UNL     1       2.686   4.477  19.475  0.00  0.00    +0.000 A 
ATOM     13  C   UNL     1       3.760   5.118  18.738  0.00  0.00    +0.000 C 
ATOM     14  O   UNL     1       3.628   6.243  18.291  0.00  0.00    +0.000 OA
ENDBRANCH   3   4
BRANCH   3  16
ATOM     15  C   UNL     1       7.368   4.640  15.816  0.00  0.00    +0.000 C 
ATOM     16  C   UNL     1       6.059   4.821  16.582  0.00  0.00    +0.000 C 
ATOM     17  C   UNL     1       5.001   3.972  15.862  0.00  0.00    +0.000 C 
ENDBRANCH   3  16
ENDBRANCH   1   3
BRANCH   1  18
ATOM     18  O   UNL     1       7.025   6.753  18.246  0.00  0.00    +0.000 OA
BRANCH  18  19
ATOM     19  C   UNL     1       8.341   7.318  18.286  0.00  0.00    +0.000 C 
BRANCH  19  20
ATOM     20  C   UNL     1       8.333   8.846  18.369  0.00  0.00    +0.000 C 
ATOM     21  O   UNL     1       7.549   9.484  17.670  0.00  0.00    +0.000 OA
ATOM     22  N   UNL     1       9.281   9.382  19.233  0.00  0.00    +0.000 N 
ATOM     23  H   UNL     1      10.011   8.746  19.558  0.00  0.00    +0.000 HD
BRANCH  22  24
ATOM     24  C   UNL     1       9.479  10.766  19.465  0.00  0.00    +0.000 A 
ATOM     25  C   UNL     1       9.242  11.359  20.722  0.00  0.00    +0.000 A 
ATOM     26  C   UNL     1       9.352  12.736  20.918  0.00  0.00    +0.000 A 
ATOM     27  C   UNL     1       9.712  13.506  19.833  0.00  0.00    +0.000 A 
ATOM     28  C   UNL     1       9.988  12.939  18.613  0.00  0.00    +0.000 A 
ATOM     29  C   UNL     1       9.909  11.572  18.399  0.00  0.00    +0.000 A 
ATOM     30  O   UNL     1      10.306  13.882  17.682  0.00  0.00    +0.000 OA
ATOM     31  C   UNL     1      10.111  15.096  18.437  0.00  0.00    +0.000 C 
ATOM     32  O   UNL     1       9.820  14.858  19.832  0.00  0.00    +0.000 OA
ENDBRANCH  22  24
ENDBRANCH  19  20
ENDBRANCH  18  19
ENDBRANCH   1  18
TORSDOF 7
ENDMDL
MODEL 2
REMARK VINA RESULT:      -8.3      2.125      2.992
REMARK  Name = 
REMARK  9 active torsions:
REMARK  status: ('A' for Active; 'I' for Inactive)
REMARK    1  A    between atoms: C_1  and  C_2
REMARK    2  A    between atoms: C_2  and  C_3
REMARK    3  A    between atoms: C_2  and  C_4
REMARK    4  A    between atoms: C_4  and  C_5
REMARK    5  A    between atoms: C_4  and  N_21
REMARK    6  A    between atoms: C_5  and  O_7
REMARK    7  A    between atoms: O_7  and  C_8
REMARK    8  A    between atoms: C_8  and  C_9
REMARK    9  A    between atoms: N_11  and  C_12
REMARK                            x       y       z     vdW  Elec       q    Type
REMARK                         _______ _______ _______ _____ _____    ______ ____
ROOT
ATOM      1  C   UNL     1       5.902   5.450  18.847  0.00  0.00    +0.000 C 
ATOM      2  O   UNL     1       6.537   5.083  19.826  0.00  0.00    +0.000 OA
ENDROOT
BRANCH   1   3
ATOM      3  C   UNL     1       4.466   5.039  18.492  0.00  0.00    +0.000 C 
BRANCH   3   4
ATOM      4  N   UNL     1       3.549   6.147  18.839  0.00  0.00    +0.000 N 
ATOM      5  C   UNL     1       3.311   7.229  18.022  0.00  0.00    +0.000 C 
ATOM      6  O   UNL     1       3.829   7.511  16.958  0.00  0.00    +0.000 OA
ATOM      7  C   UNL     1       2.308   8.064  18.688  0.00  0.00    +0.000 A 
ATOM      8  C   UNL     1       1.665   9.226  18.303  0.00  0.00    +0.000 A 
ATOM      9  C   UNL     1       0.762   9.797  19.213  0.00  0.00    +0.000 A 
ATOM     10  C   UNL     1       0.542   9.219  20.480  0.00  0.00    +0.000 A 
ATOM     11  C   UNL     1       1.183   8.034  20.837  0.00  0.00    +0.000 A 
ATOM     12  C   UNL     1       2.037   7.476  19.903  0.00  0.00    +0.000 A 
ATOM     13  C   UNL     1       2.755   6.215  19.950  0.00  0.00    +0.000 C 
ATOM     14  O   UNL     1       2.546   5.409  20.838  0.00  0.00    +0.000 OA
ENDBRANCH   3   4
BRANCH   3  16
ATOM     15  C   UNL     1       5.531   3.836  16.448  0.00  0.00    +0.000 C 
ATOM     16  C   UNL     1       4.287   4.488  17.048  0.00  0.00    +0.000 C 
ATOM     17  C   UNL     1       3.148   3.463  16.932  0.00  0.00    +0.000 C 
ENDBRANCH   3  16
ENDBRANCH   1   3
BRANCH   1  18
ATOM     18  O   UNL     1       6.424   6.309  17.920  0.00  0.00    +0.000 OA
BRANCH  18  19
ATOM     19  C   UNL     1       7.779   6.689  18.185  0.00  0.00    +0.000 C 
BRANCH  19  20
ATOM     20  C   UNL     1       8.000   8.202  18.117  0.00  0.00    +0.000 C 
ATOM     21  O   UNL     1       7.458   8.850  17.224  0.00  0.00    +0.000 OA
ATOM     22  N   UNL     1       8.859   8.705  19.087  0.00  0.00    +0.000 N 
ATOM     23  H   UNL     1       9.412   8.019  19.603  0.00  0.00    +0.000 HD
BRANCH  22  24
ATOM     24  C   UNL     1       9.231  10.066  19.215  0.00  0.00    +0.000 A 
ATOM     25  C   UNL     1       9.323  10.705  20.469  0.00  0.00    +0.000 A 
ATOM     26  C   UNL     1       9.602  12.068  20.581  0.00  0.00    +0.000 A 
ATOM     27  C   UNL     1       9.795  12.775  19.415  0.00  0.00    +0.000 A 
ATOM     28  C   UNL     1       9.753  12.159  18.188  0.00  0.00    +0.000 A 
ATOM     29  C   UNL     1       9.501  10.803  18.052  0.00  0.00    +0.000 A 
ATOM     30  O   UNL     1       9.954  13.046  17.173  0.00  0.00    +0.000 OA
ATOM     31  C   UNL     1      10.039  14.288  17.903  0.00  0.00    +0.000 C 
ATOM     32  O   UNL     1      10.028  14.109  19.336  0.00  0.00    +0.000 OA
ENDBRANCH  22  24
ENDBRANCH  19  20
ENDBRANCH  18  19
ENDBRANCH   1  18
TORSDOF 7
ENDMDL
MODEL 3
REMARK VINA RESULT:      -8.3      5.158      7.292
REMARK  Name = 
REMARK  9 active torsions:
REMARK  status: ('A' for Active; 'I' for Inactive)
REMARK    1  A    between atoms: C_1  and  C_2
REMARK    2  A    between atoms: C_2  and  C_3
REMARK    3  A    between atoms: C_2  and  C_4
REMARK    4  A    between atoms: C_4  and  C_5
REMARK    5  A    between atoms: C_4  and  N_21
REMARK    6  A    between atoms: C_5  and  O_7
REMARK    7  A    between atoms: O_7  and  C_8
REMARK    8  A    between atoms: C_8  and  C_9
REMARK    9  A    between atoms: N_11  and  C_12
REMARK                            x       y       z     vdW  Elec       q    Type
REMARK                         _______ _______ _______ _____ _____    ______ ____
ROOT
ATOM      1  C   UNL     1       2.136   5.788  19.709  0.00  0.00    +0.000 C 
ATOM      2  O   UNL     1       2.042   6.328  20.803  0.00  0.00    +0.000 OA
ENDROOT
BRANCH   1   3
ATOM      3  C   UNL     1       2.573   4.339  19.448  0.00  0.00    +0.000 C 
BRANCH   3   4
ATOM      4  N   UNL     1       3.685   4.341  18.472  0.00  0.00    +0.000 N 
ATOM      5  C   UNL     1       3.557   3.929  17.165  0.00  0.00    +0.000 C 
ATOM      6  O   UNL     1       2.591   3.442  16.608  0.00  0.00    +0.000 OA
ATOM      7  C   UNL     1       4.854   4.138  16.515  0.00  0.00    +0.000 A 
ATOM      8  C   UNL     1       5.278   3.956  15.213  0.00  0.00    +0.000 A 
ATOM      9  C   UNL     1       6.625   4.230  14.927  0.00  0.00    +0.000 A 
ATOM     10  C   UNL     1       7.512   4.649  15.939  0.00  0.00    +0.000 A 
ATOM     11  C   UNL     1       7.056   4.849  17.240  0.00  0.00    +0.000 A 
ATOM     12  C   UNL     1       5.717   4.608  17.480  0.00  0.00    +0.000 A 
ATOM     13  C   UNL     1       4.945   4.823  18.691  0.00  0.00    +0.000 C 
ATOM     14  O   UNL     1       5.427   5.407  19.644  0.00  0.00    +0.000 OA
ENDBRANCH   3   4
BRANCH   3  16
ATOM     15  C   UNL     1       1.601   2.940  21.413  0.00  0.00    +0.000 C 
ATOM     16  C   UNL     1       2.847   3.504  20.732  0.00  0.00    +0.000 C 
ATOM     17  C   UNL     1       3.794   2.318  20.486  0.00  0.00    +0.000 C 
ENDBRANCH   3  16
ENDBRANCH   1   3
BRANCH   1  18
ATOM     18  O   UNL     1       1.846   6.445  18.545  0.00  0.00    +0.000 OA
BRANCH  18  19
ATOM     19  C   UNL     1       2.671   7.591  18.309  0.00  0.00    +0.000 C 
BRANCH  19  20
ATOM     20  C   UNL     1       1.903   8.911  18.408  0.00  0.00    +0.000 C 
ATOM     21  O   UNL     1       1.995   9.731  17.496  0.00  0.00    +0.000 OA
ATOM     22  N   UNL     1       1.183   9.074  19.586  0.00  0.00    +0.000 N 
ATOM     23  H   UNL     1       1.394   8.419  20.341  0.00  0.00    +0.000 HD
BRANCH  22  24
ATOM     24  C   UNL     1       0.411  10.215  19.915  0.00  0.00    +0.000 A 
ATOM     25  C   UNL     1      -0.870  10.439  19.370  0.00  0.00    +0.000 A 
ATOM     26  C   UNL     1      -1.585  11.609  19.628  0.00  0.00    +0.000 A 
ATOM     27  C   UNL     1      -0.996  12.546  20.449  0.00  0.00    +0.000 A 
ATOM     28  C   UNL     1       0.232  12.324  21.023  0.00  0.00    +0.000 A 
ATOM     29  C   UNL     1       0.951  11.161  20.801  0.00  0.00    +0.000 A 
ATOM     30  O   UNL     1       0.631  13.383  21.782  0.00  0.00    +0.000 OA
ATOM     31  C   UNL     1      -0.445  14.316  21.543  0.00  0.00    +0.000 C 
ATOM     32  O   UNL     1      -1.526  13.753  20.768  0.00  0.00    +0.000 OA
ENDBRANCH  22  24
ENDBRANCH  19  20
ENDBRANCH  18  19
ENDBRANCH   1  18
TORSDOF 7
ENDMDL
MODEL 4
REMARK VINA RESULT:      -8.3      2.091      2.701
REMARK  Name = 
REMARK  9 active torsions:
REMARK  status: ('A' for Active; 'I' for Inactive)
REMARK    1  A    between atoms: C_1  and  C_2
REMARK    2  A    between atoms: C_2  and  C_3
REMARK    3  A    between atoms: C_2  and  C_4
REMARK    4  A    between atoms: C_4  and  C_5
REMARK    5  A    between atoms: C_4  and  N_21
REMARK    6  A    between atoms: C_5  and  O_7
REMARK    7  A    between atoms: O_7  and  C_8
REMARK    8  A    between atoms: C_8  and  C_9
REMARK    9  A    between atoms: N_11  and  C_12
REMARK                            x       y       z     vdW  Elec       q    Type
REMARK                         _______ _______ _______ _____ _____    ______ ____
ROOT
ATOM      1  C   UNL     1       5.992   5.425  18.797  0.00  0.00    +0.000 C 
ATOM      2  O   UNL     1       6.625   5.008  19.758  0.00  0.00    +0.000 OA
ENDROOT
BRANCH   1   3
ATOM      3  C   UNL     1       4.577   4.993  18.387  0.00  0.00    +0.000 C 
BRANCH   3   4
ATOM      4  N   UNL     1       3.636   6.098  18.671  0.00  0.00    +0.000 N 
ATOM      5  C   UNL     1       2.893   6.193  19.826  0.00  0.00    +0.000 C 
ATOM      6  O   UNL     1       2.810   5.404  20.748  0.00  0.00    +0.000 OA
ATOM      7  C   UNL     1       2.139   7.448  19.755  0.00  0.00    +0.000 A 
ATOM      8  C   UNL     1       1.289   8.070  20.649  0.00  0.00    +0.000 A 
ATOM      9  C   UNL     1       0.695   9.276  20.245  0.00  0.00    +0.000 A 
ATOM     10  C   UNL     1       0.938   9.813  18.965  0.00  0.00    +0.000 A 
ATOM     11  C   UNL     1       1.819   9.180  18.088  0.00  0.00    +0.000 A 
ATOM     12  C   UNL     1       2.416   8.016  18.532  0.00  0.00    +0.000 A 
ATOM     13  C   UNL     1       3.436   7.204  17.893  0.00  0.00    +0.000 C 
ATOM     14  O   UNL     1       3.994   7.584  16.879  0.00  0.00    +0.000 OA
ENDBRANCH   3   4
BRANCH   3  16
ATOM     15  C   UNL     1       5.752   3.783  16.407  0.00  0.00    +0.000 C 
ATOM     16  C   UNL     1       4.469   4.412  16.947  0.00  0.00    +0.000 C 
ATOM     17  C   UNL     1       3.362   3.355  16.807  0.00  0.00    +0.000 C 
ENDBRANCH   3  16
ENDBRANCH   1   3
BRANCH   1  18
ATOM     18  O   UNL     1       6.498   6.368  17.946  0.00  0.00    +0.000 OA
BRANCH  18  19
ATOM     19  C   UNL     1       7.833   6.776  18.265  0.00  0.00    +0.000 C 
BRANCH  19  20
ATOM     20  C   UNL     1       8.029   8.293  18.191  0.00  0.00    +0.000 C 
ATOM     21  O   UNL     1       7.417   8.938  17.342  0.00  0.00    +0.000 OA
ATOM     22  N   UNL     1       8.948   8.802  19.101  0.00  0.00    +0.000 N 
ATOM     23  H   UNL     1       9.545   8.120  19.573  0.00  0.00    +0.000 HD
BRANCH  22  24
ATOM     24  C   UNL     1       9.310  10.167  19.211  0.00  0.00    +0.000 A 
ATOM     25  C   UNL     1       9.259  10.862  20.438  0.00  0.00    +0.000 A 
ATOM     26  C   UNL     1       9.530  12.228  20.521  0.00  0.00    +0.000 A 
ATOM     27  C   UNL     1       9.863  12.882  19.355  0.00  0.00    +0.000 A 
ATOM     28  C   UNL     1       9.960  12.211  18.160  0.00  0.00    +0.000 A 
ATOM     29  C   UNL     1       9.718  10.851  18.056  0.00  0.00    +0.000 A 
ATOM     30  O   UNL     1      10.284  13.051  17.137  0.00  0.00    +0.000 OA
ATOM     31  C   UNL     1      10.290  14.325  17.816  0.00  0.00    +0.000 C 
ATOM     32  O   UNL     1      10.111  14.211  19.245  0.00  0.00    +0.000 OA
ENDBRANCH  22  24
ENDBRANCH  19  20
ENDBRANCH  18  19
ENDBRANCH   1  18
TORSDOF 7
ENDMDL
MODEL 5
REMARK VINA RESULT:      -8.3      1.242      1.748
REMARK  Name = 
REMARK  9 active torsions:
REMARK  status: ('A' for Active; 'I' for Inactive)
REMARK    1  A    between atoms: C_1  and  C_2
REMARK    2  A    between atoms: C_2  and  C_3
REMARK    3  A    between atoms: C_2  and  C_4
REMARK    4  A    between atoms: C_4  and  C_5
REMARK    5  A    between atoms: C_4  and  N_21
REMARK    6  A    between atoms: C_5  and  O_7
REMARK    7  A    between atoms: O_7  and  C_8
REMARK    8  A    between atoms: C_8  and  C_9
REMARK    9  A    between atoms: N_11  and  C_12
REMARK                            x       y       z     vdW  Elec       q    Type
REMARK                         _______ _______ _______ _____ _____    ______ ____
ROOT
ATOM      1  C   UNL     1       6.961   4.810  17.593  0.00  0.00    +0.000 C 
ATOM      2  O   UNL     1       7.698   4.150  18.312  0.00  0.00    +0.000 OA
ENDROOT
BRANCH   1   3
ATOM      3  C   UNL     1       5.769   4.278  16.784  0.00  0.00    +0.000 C 
BRANCH   3   4
ATOM      4  N   UNL     1       4.596   4.162  17.677  0.00  0.00    +0.000 N 
ATOM      5  C   UNL     1       3.927   2.982  17.913  0.00  0.00    +0.000 C 
ATOM      6  O   UNL     1       4.106   1.889  17.411  0.00  0.00    +0.000 OA
ATOM      7  C   UNL     1       2.874   3.268  18.891  0.00  0.00    +0.000 A 
ATOM      8  C   UNL     1       1.950   2.458  19.523  0.00  0.00    +0.000 A 
ATOM      9  C   UNL     1       1.043   3.072  20.401  0.00  0.00    +0.000 A 
ATOM     10  C   UNL     1       1.061   4.467  20.606  0.00  0.00    +0.000 A 
ATOM     11  C   UNL     1       2.017   5.261  19.976  0.00  0.00    +0.000 A 
ATOM     12  C   UNL     1       2.920   4.621  19.149  0.00  0.00    +0.000 A 
ATOM     13  C   UNL     1       4.072   5.161  18.449  0.00  0.00    +0.000 C 
ATOM     14  O   UNL     1       4.449   6.300  18.654  0.00  0.00    +0.000 OA
ENDBRANCH   3   4
BRANCH   3  16
ATOM     15  C   UNL     1       5.228   6.540  15.619  0.00  0.00    +0.000 C 
ATOM     16  C   UNL     1       5.492   5.044  15.458  0.00  0.00    +0.000 C 
ATOM     17  C   UNL     1       6.629   4.902  14.433  0.00  0.00    +0.000 C 
ENDBRANCH   3  16
ENDBRANCH   1   3
BRANCH   1  18
ATOM     18  O   UNL     1       7.123   6.158  17.425  0.00  0.00    +0.000 OA
BRANCH  18  19
ATOM     19  C   UNL     1       7.986   6.760  18.396  0.00  0.00    +0.000 C 
BRANCH  19  20
ATOM     20  C   UNL     1       8.122   8.274  18.218  0.00  0.00    +0.000 C 
ATOM     21  O   UNL     1       7.518   8.829  17.302  0.00  0.00    +0.000 OA
ATOM     22  N   UNL     1       8.982   8.887  19.122  0.00  0.00    +0.000 N 
ATOM     23  H   UNL     1       9.587   8.269  19.664  0.00  0.00    +0.000 HD
BRANCH  22  24
ATOM     24  C   UNL     1       9.283  10.271  19.145  0.00  0.00    +0.000 A 
ATOM     25  C   UNL     1       9.560  11.000  17.970  0.00  0.00    +0.000 A 
ATOM     26  C   UNL     1       9.944  12.341  18.009  0.00  0.00    +0.000 A 
ATOM     27  C   UNL     1      10.038  12.939  19.247  0.00  0.00    +0.000 A 
ATOM     28  C   UNL     1       9.730  12.256  20.397  0.00  0.00    +0.000 A 
ATOM     29  C   UNL     1       9.323  10.931  20.383  0.00  0.00    +0.000 A 
ATOM     30  O   UNL     1       9.906  13.031  21.505  0.00  0.00    +0.000 OA
ATOM     31  C   UNL     1      10.439  14.237  20.917  0.00  0.00    +0.000 C 
ATOM     32  O   UNL     1      10.440  14.215  19.473  0.00  0.00    +0.000 OA
ENDBRANCH  22  24
ENDBRANCH  19  20
ENDBRANCH  18  19
ENDBRANCH   1  18
TORSDOF 7
ENDMDL
MODEL 6
REMARK VINA RESULT:      -8.3      5.162      7.635
REMARK  Name = 
REMARK  9 active torsions:
REMARK  status: ('A' for Active; 'I' for Inactive)
REMARK    1  A    between atoms: C_1  and  C_2
REMARK    2  A    between atoms: C_2  and  C_3
REMARK    3  A    between atoms: C_2  and  C_4
REMARK    4  A    between atoms: C_4  and  C_5
REMARK    5  A    between atoms: C_4  and  N_21
REMARK    6  A    between atoms: C_5  and  O_7
REMARK    7  A    between atoms: O_7  and  C_8
REMARK    8  A    between atoms: C_8  and  C_9
REMARK    9  A    between atoms: N_11  and  C_12
REMARK                            x       y       z     vdW  Elec       q    Type
REMARK                         _______ _______ _______ _____ _____    ______ ____
ROOT
ATOM      1  C   UNL     1       2.135   5.835  19.724  0.00  0.00    +0.000 C 
ATOM      2  O   UNL     1       2.077   6.375  20.820  0.00  0.00    +0.000 OA
ENDROOT
BRANCH   1   3
ATOM      3  C   UNL     1       2.543   4.380  19.451  0.00  0.00    +0.000 C 
BRANCH   3   4
ATOM      4  N   UNL     1       3.667   4.368  18.489  0.00  0.00    +0.000 N 
ATOM      5  C   UNL     1       3.552   3.952  17.182  0.00  0.00    +0.000 C 
ATOM      6  O   UNL     1       2.590   3.470  16.616  0.00  0.00    +0.000 OA
ATOM      7  C   UNL     1       4.858   4.149  16.547  0.00  0.00    +0.000 A 
ATOM      8  C   UNL     1       5.297   3.957  15.250  0.00  0.00    +0.000 A 
ATOM      9  C   UNL     1       6.649   4.220  14.980  0.00  0.00    +0.000 A 
ATOM     10  C   UNL     1       7.527   4.636  16.000  0.00  0.00    +0.000 A 
ATOM     11  C   UNL     1       7.057   4.846  17.296  0.00  0.00    +0.000 A 
ATOM     12  C   UNL     1       5.713   4.616  17.520  0.00  0.00    +0.000 A 
ATOM     13  C   UNL     1       4.928   4.842  18.721  0.00  0.00    +0.000 C 
ATOM     14  O   UNL     1       5.403   5.426  19.677  0.00  0.00    +0.000 OA
ENDBRANCH   3   4
BRANCH   3  16
ATOM     15  C   UNL     1       1.519   2.958  21.373  0.00  0.00    +0.000 C 
ATOM     16  C   UNL     1       2.783   3.523  20.728  0.00  0.00    +0.000 C 
ATOM     17  C   UNL     1       3.729   2.336  20.486  0.00  0.00    +0.000 C 
ENDBRANCH   3  16
ENDBRANCH   1   3
BRANCH   1  18
ATOM     18  O   UNL     1       1.824   6.496  18.568  0.00  0.00    +0.000 OA
BRANCH  18  19
ATOM     19  C   UNL     1       2.657   7.632  18.312  0.00  0.00    +0.000 C 
BRANCH  19  20
ATOM     20  C   UNL     1       1.905   8.962  18.421  0.00  0.00    +0.000 C 
ATOM     21  O   UNL     1       2.044   9.805  17.538  0.00  0.00    +0.000 OA
ATOM     22  N   UNL     1       1.142   9.102  19.574  0.00  0.00    +0.000 N 
ATOM     23  H   UNL     1       1.315   8.423  20.318  0.00  0.00    +0.000 HD
BRANCH  22  24
ATOM     24  C   UNL     1       0.375  10.245  19.907  0.00  0.00    +0.000 A 
ATOM     25  C   UNL     1       0.812  11.194  20.854  0.00  0.00    +0.000 A 
ATOM     26  C   UNL     1       0.012  12.269  21.242  0.00  0.00    +0.000 A 
ATOM     27  C   UNL     1      -1.231  12.379  20.658  0.00  0.00    +0.000 A 
ATOM     28  C   UNL     1      -1.655  11.488  19.702  0.00  0.00    +0.000 A 
ATOM     29  C   UNL     1      -0.869  10.427  19.283  0.00  0.00    +0.000 A 
ATOM     30  O   UNL     1      -2.916  11.774  19.272  0.00  0.00    +0.000 OA
ATOM     31  C   UNL     1      -3.256  12.884  20.129  0.00  0.00    +0.000 C 
ATOM     32  O   UNL     1      -2.154  13.330  20.949  0.00  0.00    +0.000 OA
ENDBRANCH  22  24
ENDBRANCH  19  20
ENDBRANCH  18  19
ENDBRANCH   1  18
TORSDOF 7
ENDMDL
MODEL 7
REMARK VINA RESULT:      -8.2      1.408      1.629
REMARK  Name = 
REMARK  9 active torsions:
REMARK  status: ('A' for Active; 'I' for Inactive)
REMARK    1  A    between atoms: C_1  and  C_2
REMARK    2  A    between atoms: C_2  and  C_3
REMARK    3  A    between atoms: C_2  and  C_4
REMARK    4  A    between atoms: C_4  and  C_5
REMARK    5  A    between atoms: C_4  and  N_21
REMARK    6  A    between atoms: C_5  and  O_7
REMARK    7  A    between atoms: O_7  and  C_8
REMARK    8  A    between atoms: C_8  and  C_9
REMARK    9  A    between atoms: N_11  and  C_12
REMARK                            x       y       z     vdW  Elec       q    Type
REMARK                         _______ _______ _______ _____ _____    ______ ____
ROOT
ATOM      1  C   UNL     1       7.179   5.207  18.039  0.00  0.00    +0.000 C 
ATOM      2  O   UNL     1       7.592   4.725  19.085  0.00  0.00    +0.000 OA
ENDROOT
BRANCH   1   3
ATOM      3  C   UNL     1       6.127   4.587  17.108  0.00  0.00    +0.000 C 
BRANCH   3   4
ATOM      4  N   UNL     1       4.872   4.389  17.865  0.00  0.00    +0.000 N 
ATOM      5  C   UNL     1       4.112   3.243  17.801  0.00  0.00    +0.000 C 
ATOM      6  O   UNL     1       4.267   2.262  17.100  0.00  0.00    +0.000 OA
ATOM      7  C   UNL     1       2.993   3.412  18.733  0.00  0.00    +0.000 A 
ATOM      8  C   UNL     1       1.966   2.568  19.111  0.00  0.00    +0.000 A 
ATOM      9  C   UNL     1       1.023   3.065  20.024  0.00  0.00    +0.000 A 
ATOM     10  C   UNL     1       1.109   4.384  20.512  0.00  0.00    +0.000 A 
ATOM     11  C   UNL     1       2.167   5.210  20.135  0.00  0.00    +0.000 A 
ATOM     12  C   UNL     1       3.100   4.677  19.265  0.00  0.00    +0.000 A 
ATOM     13  C   UNL     1       4.343   5.252  18.783  0.00  0.00    +0.000 C 
ATOM     14  O   UNL     1       4.771   6.294  19.246  0.00  0.00    +0.000 OA
ENDBRANCH   3   4
BRANCH   3  16
ATOM     15  C   UNL     1       5.513   4.437  14.585  0.00  0.00    +0.000 C 
ATOM     16  C   UNL     1       5.948   5.325  15.750  0.00  0.00    +0.000 C 
ATOM     17  C   UNL     1       4.942   6.485  15.825  0.00  0.00    +0.000 C 
ENDBRANCH   3  16
ENDBRANCH   1   3
BRANCH   1  18
ATOM     18  O   UNL     1       7.625   6.410  17.565  0.00  0.00    +0.000 OA
BRANCH  18  19
ATOM     19  C   UNL     1       8.085   7.298  18.590  0.00  0.00    +0.000 C 
BRANCH  19  20
ATOM     20  C   UNL     1       8.251   8.740  18.101  0.00  0.00    +0.000 C 
ATOM     21  O   UNL     1       7.649   9.107  17.093  0.00  0.00    +0.000 OA
ATOM     22  N   UNL     1       9.133   9.507  18.853  0.00  0.00    +0.000 N 
ATOM     23  H   UNL     1       9.731   9.000  19.508  0.00  0.00    +0.000 HD
BRANCH  22  24
ATOM     24  C   UNL     1       9.463  10.858  18.587  0.00  0.00    +0.000 A 
ATOM     25  C   UNL     1       8.539  11.761  18.022  0.00  0.00    +0.000 A 
ATOM     26  C   UNL     1       8.899  13.065  17.679  0.00  0.00    +0.000 A 
ATOM     27  C   UNL     1      10.200  13.449  17.922  0.00  0.00    +0.000 A 
ATOM     28  C   UNL     1      11.100  12.597  18.512  0.00  0.00    +0.000 A 
ATOM     29  C   UNL     1      10.761  11.306  18.883  0.00  0.00    +0.000 A 
ATOM     30  O   UNL     1      12.328  13.174  18.644  0.00  0.00    +0.000 OA
ATOM     31  C   UNL     1      12.109  14.443  17.992  0.00  0.00    +0.000 C 
ATOM     32  O   UNL     1      10.732  14.658  17.611  0.00  0.00    +0.000 OA
ENDBRANCH  22  24
ENDBRANCH  19  20
ENDBRANCH  18  19
ENDBRANCH   1  18
TORSDOF 7
ENDMDL
MODEL 8
REMARK VINA RESULT:      -8.2      1.073      2.068
REMARK  Name = 
REMARK  9 active torsions:
REMARK  status: ('A' for Active; 'I' for Inactive)
REMARK    1  A    between atoms: C_1  and  C_2
REMARK    2  A    between atoms: C_2  and  C_3
REMARK    3  A    between atoms: C_2  and  C_4
REMARK    4  A    between atoms: C_4  and  C_5
REMARK    5  A    between atoms: C_4  and  N_21
REMARK    6  A    between atoms: C_5  and  O_7
REMARK    7  A    between atoms: O_7  and  C_8
REMARK    8  A    between atoms: C_8  and  C_9
REMARK    9  A    between atoms: N_11  and  C_12
REMARK                            x       y       z     vdW  Elec       q    Type
REMARK                         _______ _______ _______ _____ _____    ______ ____
ROOT
ATOM      1  C   UNL     1       7.402   5.390  18.457  0.00  0.00    +0.000 C 
ATOM      2  O   UNL     1       8.130   5.029  19.372  0.00  0.00    +0.000 OA
ENDROOT
BRANCH   1   3
ATOM      3  C   UNL     1       6.374   4.519  17.719  0.00  0.00    +0.000 C 
BRANCH   3   4
ATOM      4  N   UNL     1       5.137   4.447  18.528  0.00  0.00    +0.000 N 
ATOM      5  C   UNL     1       4.189   5.444  18.567  0.00  0.00    +0.000 C 
ATOM      6  O   UNL     1       4.212   6.541  18.043  0.00  0.00    +0.000 OA
ATOM      7  C   UNL     1       3.098   4.972  19.424  0.00  0.00    +0.000 A 
ATOM      8  C   UNL     1       1.881   5.529  19.767  0.00  0.00    +0.000 A 
ATOM      9  C   UNL     1       1.066   4.809  20.655  0.00  0.00    +0.000 A 
ATOM     10  C   UNL     1       1.490   3.577  21.193  0.00  0.00    +0.000 A 
ATOM     11  C   UNL     1       2.711   3.022  20.814  0.00  0.00    +0.000 A 
ATOM     12  C   UNL     1       3.471   3.738  19.909  0.00  0.00    +0.000 A 
ATOM     13  C   UNL     1       4.719   3.372  19.262  0.00  0.00    +0.000 C 
ATOM     14  O   UNL     1       5.175   2.249  19.374  0.00  0.00    +0.000 OA
ENDBRANCH   3   4
BRANCH   3  16
ATOM     15  C   UNL     1       7.364   4.741  15.325  0.00  0.00    +0.000 C 
ATOM     16  C   UNL     1       6.145   4.908  16.230  0.00  0.00    +0.000 C 
ATOM     17  C   UNL     1       4.995   4.126  15.575  0.00  0.00    +0.000 C 
ENDBRANCH   3  16
ENDBRANCH   1   3
BRANCH   1  18
ATOM     18  O   UNL     1       7.421   6.667  17.971  0.00  0.00    +0.000 OA
BRANCH  18  19
ATOM     19  C   UNL     1       8.226   7.565  18.743  0.00  0.00    +0.000 C 
BRANCH  19  20
ATOM     20  C   UNL     1       8.347   8.954  18.110  0.00  0.00    +0.000 C 
ATOM     21  O   UNL     1       7.678   9.222  17.114  0.00  0.00    +0.000 OA
ATOM     22  N   UNL     1       9.270   9.792  18.726  0.00  0.00    +0.000 N 
ATOM     23  H   UNL     1       9.913   9.351  19.386  0.00  0.00    +0.000 HD
BRANCH  22  24
ATOM     24  C   UNL     1       9.570  11.113  18.313  0.00  0.00    +0.000 A 
ATOM     25  C   UNL     1      10.823  11.463  17.766  0.00  0.00    +0.000 A 
ATOM     26  C   UNL     1      11.142  12.783  17.446  0.00  0.00    +0.000 A 
ATOM     27  C   UNL     1      10.181  13.743  17.675  0.00  0.00    +0.000 A 
ATOM     28  C   UNL     1       8.942  13.413  18.165  0.00  0.00    +0.000 A 
ATOM     29  C   UNL     1       8.592  12.107  18.469  0.00  0.00    +0.000 A 
ATOM     30  O   UNL     1       8.156  14.514  18.329  0.00  0.00    +0.000 OA
ATOM     31  C   UNL     1       9.076  15.567  17.969  0.00  0.00    +0.000 C 
ATOM     32  O   UNL     1      10.337  15.074  17.466  0.00  0.00    +0.000 OA
ENDBRANCH  22  24
ENDBRANCH  19  20
ENDBRANCH  18  19
ENDBRANCH   1  18
TORSDOF 7
ENDMDL
MODEL 9
REMARK VINA RESULT:      -8.2      5.271      7.438
REMARK  Name = 
REMARK  9 active torsions:
REMARK  status: ('A' for Active; 'I' for Inactive)
REMARK    1  A    between atoms: C_1  and  C_2
REMARK    2  A    between atoms: C_2  and  C_3
REMARK    3  A    between atoms: C_2  and  C_4
REMARK    4  A    between atoms: C_4  and  C_5
REMARK    5  A    between atoms: C_4  and  N_21
REMARK    6  A    between atoms: C_5  and  O_7
REMARK    7  A    between atoms: O_7  and  C_8
REMARK    8  A    between atoms: C_8  and  C_9
REMARK    9  A    between atoms: N_11  and  C_12
REMARK                            x       y       z     vdW  Elec       q    Type
REMARK                         _______ _______ _______ _____ _____    ______ ____
ROOT
ATOM      1  C   UNL     1       2.186   5.420  19.904  0.00  0.00    +0.000 C 
ATOM      2  O   UNL     1       2.006   5.851  21.035  0.00  0.00    +0.000 OA
ENDROOT
BRANCH   1   3
ATOM      3  C   UNL     1       2.720   4.028  19.539  0.00  0.00    +0.000 C 
BRANCH   3   4
ATOM      4  N   UNL     1       3.762   4.171  18.498  0.00  0.00    +0.000 N 
ATOM      5  C   UNL     1       3.576   3.828  17.177  0.00  0.00    +0.000 C 
ATOM      6  O   UNL     1       2.613   3.304  16.653  0.00  0.00    +0.000 OA
ATOM      7  C   UNL     1       4.808   4.173  16.462  0.00  0.00    +0.000 A 
ATOM      8  C   UNL     1       5.156   4.100  15.127  0.00  0.00    +0.000 A 
ATOM      9  C   UNL     1       6.458   4.492  14.775  0.00  0.00    +0.000 A 
ATOM     10  C   UNL     1       7.379   4.916  15.754  0.00  0.00    +0.000 A 
ATOM     11  C   UNL     1       6.998   5.004  17.092  0.00  0.00    +0.000 A 
ATOM     12  C   UNL     1       5.698   4.649  17.400  0.00  0.00    +0.000 A 
ATOM     13  C   UNL     1       4.996   4.733  18.668  0.00  0.00    +0.000 C 
ATOM     14  O   UNL     1       5.498   5.294  19.624  0.00  0.00    +0.000 OA
ENDBRANCH   3   4
BRANCH   3  16
ATOM     15  C   UNL     1       1.993   2.524  21.532  0.00  0.00    +0.000 C 
ATOM     16  C   UNL     1       3.146   3.157  20.757  0.00  0.00    +0.000 C 
ATOM     17  C   UNL     1       4.104   2.017  20.375  0.00  0.00    +0.000 C 
ENDBRANCH   3  16
ENDBRANCH   1   3
BRANCH   1  18
ATOM     18  O   UNL     1       1.914   6.164  18.790  0.00  0.00    +0.000 OA
BRANCH  18  19
ATOM     19  C   UNL     1       2.531   7.456  18.795  0.00  0.00    +0.000 C 
BRANCH  19  20
ATOM     20  C   UNL     1       1.603   8.560  19.307  0.00  0.00    +0.000 C 
ATOM     21  O   UNL     1       1.014   9.275  18.498  0.00  0.00    +0.000 OA
ATOM     22  N   UNL     1       1.550   8.674  20.691  0.00  0.00    +0.000 N 
ATOM     23  H   UNL     1       2.269   8.174  21.216  0.00  0.00    +0.000 HD
BRANCH  22  24
ATOM     24  C   UNL     1       0.779   9.630  21.398  0.00  0.00    +0.000 A 
ATOM     25  C   UNL     1      -0.044   9.275  22.488  0.00  0.00    +0.000 A 
ATOM     26  C   UNL     1      -0.869  10.205  23.121  0.00  0.00    +0.000 A 
ATOM     27  C   UNL     1      -0.848  11.499  22.647  0.00  0.00    +0.000 A 
ATOM     28  C   UNL     1      -0.021  11.871  21.616  0.00  0.00    +0.000 A 
ATOM     29  C   UNL     1       0.825  10.971  20.986  0.00  0.00    +0.000 A 
ATOM     30  O   UNL     1      -0.172  13.187  21.299  0.00  0.00    +0.000 OA
ATOM     31  C   UNL     1      -1.245  13.565  22.189  0.00  0.00    +0.000 C 
ATOM     32  O   UNL     1      -1.616  12.516  23.111  0.00  0.00    +0.000 OA
ENDBRANCH  22  24
ENDBRANCH  19  20
ENDBRANCH  18  19
ENDBRANCH   1  18
TORSDOF 7
ENDMDL
