MODEL 1
REMARK VINA RESULT:      -7.8      0.000      0.000
REMARK  Name = 
REMARK  8 active torsions:
REMARK  status: ('A' for Active; 'I' for Inactive)
REMARK    1  A    between atoms: C_1  and  O_2
REMARK    2  A    between atoms: O_2  and  C_3
REMARK    3  A    between atoms: C_6  and  N_7
REMARK    4  A    between atoms: C_8  and  C_10
REMARK    5  A    between atoms: C_10  and  N_11
REMARK    6  A    between atoms: C_19  and  S_20
REMARK    7  A    between atoms: S_20  and  N_23
REMARK    8  A    between atoms: C_26  and  C_27
REMARK                            x       y       z     vdW  Elec       q    Type
REMARK                         _______ _______ _______ _____ _____    ______ ____
ROOT
ATOM      1  N   UNL     1       0.298  11.663  21.187  0.00  0.00    +0.000 N 
ATOM      2  C   UNL     1       1.077  12.845  21.219  0.00  0.00    +0.000 C 
ATOM      3  O   UNL     1       2.269  12.884  20.960  0.00  0.00    +0.000 OA
ATOM      4  C   UNL     1       0.257  14.088  21.487  0.00  0.00    +0.000 C 
ATOM      5  S   UNL     1      -0.929  14.257  20.045  0.00  0.00    +0.000 S 
ATOM      6  C   UNL     1      -1.690  12.347  20.037  0.00  0.00    +0.000 A 
ATOM      7  C   UNL     1      -3.081  12.483  19.812  0.00  0.00    +0.000 A 
ATOM      8  C   UNL     1      -3.971  12.661  20.868  0.00  0.00    +0.000 A 
ATOM      9  C   UNL     1      -3.475  12.604  22.168  0.00  0.00    +0.000 A 
ATOM     10  C   UNL     1      -2.084  12.112  22.357  0.00  0.00    +0.000 A 
ATOM     11  C   UNL     1      -1.190  11.820  21.221  0.00  0.00    +0.000 A 
ENDROOT
BRANCH   9  12
ATOM     12  S   UNL     1      -4.740  12.977  23.504  0.00  0.00    +0.000 S 
ATOM     13  O   UNL     1      -4.453  12.009  24.545  0.00  0.00    +0.000 OA
ATOM     14  O   UNL     1      -4.650  14.397  23.766  0.00  0.00    +0.000 OA
BRANCH  12  15
ATOM     15  N   UNL     1      -6.415  12.624  22.995  0.00  0.00    +0.000 NA
ATOM     16  C   UNL     1      -6.938  13.116  21.688  0.00  0.00    +0.000 C 
ATOM     17  C   UNL     1      -7.126  14.632  21.677  0.00  0.00    +0.000 C 
ATOM     18  C   UNL     1      -7.917  15.215  22.868  0.00  0.00    +0.000 C 
ATOM     19  C   UNL     1      -7.565  16.703  23.062  0.00  0.00    +0.000 C 
ATOM     20  C   UNL     1      -7.725  14.442  24.187  0.00  0.00    +0.000 C 
ATOM     21  C   UNL     1      -7.511  12.938  24.014  0.00  0.00    +0.000 C 
ENDBRANCH  12  15
ENDBRANCH   9  12
BRANCH   1  22
ATOM     22  C   UNL     1       1.059  10.518  20.528  0.00  0.00    +0.000 C 
BRANCH  22  24
ATOM     23  N   UNL     1       2.003   8.093  19.690  0.00  0.00    +0.000 N 
ATOM     24  C   UNL     1       1.094   8.830  20.462  0.00  0.00    +0.000 C 
ATOM     25  O   UNL     1       0.258   8.256  21.168  0.00  0.00    +0.000 OA
ATOM     26  H   UNL     1       2.722   8.606  19.209  0.00  0.00    +0.000 HD
BRANCH  23  30
ATOM     27  C   UNL     1       2.113   3.725  18.979  0.00  0.00    +0.000 A 
ATOM     28  C   UNL     1       2.094   4.242  20.285  0.00  0.00    +0.000 A 
ATOM     29  C   UNL     1       2.059   5.639  20.551  0.00  0.00    +0.000 A 
ATOM     30  C   UNL     1       2.076   6.605  19.534  0.00  0.00    +0.000 A 
ATOM     31  C   UNL     1       2.147   6.091  18.224  0.00  0.00    +0.000 A 
ATOM     32  C   UNL     1       2.154   4.680  17.950  0.00  0.00    +0.000 A 
BRANCH  27  34
ATOM     33  C   UNL     1       3.369   1.725  18.678  0.00  0.00    +0.000 C 
ATOM     34  O   UNL     1       2.117   2.372  18.873  0.00  0.00    +0.000 OA
ENDBRANCH  27  34
ENDBRANCH  23  30
ENDBRANCH  22  24
ENDBRANCH   1  22
TORSDOF 6
ENDMDL
MODEL 2
REMARK VINA RESULT:      -7.7      4.411      6.506
REMARK  Name = 
REMARK  8 active torsions:
REMARK  status: ('A' for Active; 'I' for Inactive)
REMARK    1  A    between atoms: C_1  and  O_2
REMARK    2  A    between atoms: O_2  and  C_3
REMARK    3  A    between atoms: C_6  and  N_7
REMARK    4  A    between atoms: C_8  and  C_10
REMARK    5  A    between atoms: C_10  and  N_11
REMARK    6  A    between atoms: C_19  and  S_20
REMARK    7  A    between atoms: S_20  and  N_23
REMARK    8  A    between atoms: C_26  and  C_27
REMARK                            x       y       z     vdW  Elec       q    Type
REMARK                         _______ _______ _______ _____ _____    ______ ____
ROOT
ATOM      1  N   UNL     1       0.118  11.266  18.900  0.00  0.00    +0.000 N 
ATOM      2  C   UNL     1      -1.195  10.916  18.500  0.00  0.00    +0.000 C 
ATOM      3  O   UNL     1      -1.532   9.789  18.175  0.00  0.00    +0.000 OA
ATOM      4  C   UNL     1      -2.180  12.057  18.635  0.00  0.00    +0.000 C 
ATOM      5  S   UNL     1      -2.259  12.471  20.461  0.00  0.00    +0.000 S 
ATOM      6  C   UNL     1      -0.244  12.630  20.838  0.00  0.00    +0.000 A 
ATOM      7  C   UNL     1      -0.093  13.755  21.683  0.00  0.00    +0.000 A 
ATOM      8  C   UNL     1       0.067  15.036  21.160  0.00  0.00    +0.000 A 
ATOM      9  C   UNL     1       0.175  15.178  19.779  0.00  0.00    +0.000 A 
ATOM     10  C   UNL     1       0.364  13.945  18.969  0.00  0.00    +0.000 A 
ATOM     11  C   UNL     1       0.303  12.596  19.561  0.00  0.00    +0.000 A 
ENDROOT
BRANCH   9  12
ATOM     12  S   UNL     1       0.266  16.956  19.181  0.00  0.00    +0.000 S 
ATOM     13  O   UNL     1      -0.370  16.926  17.879  0.00  0.00    +0.000 OA
ATOM     14  O   UNL     1      -0.268  17.773  20.250  0.00  0.00    +0.000 OA
BRANCH  12  15
ATOM     15  N   UNL     1       1.937  17.500  18.866  0.00  0.00    +0.000 NA
ATOM     16  C   UNL     1       2.845  16.714  17.981  0.00  0.00    +0.000 C 
ATOM     17  C   UNL     1       3.267  15.391  18.618  0.00  0.00    +0.000 C 
ATOM     18  C   UNL     1       3.813  15.488  20.058  0.00  0.00    +0.000 C 
ATOM     19  C   UNL     1       3.664  14.133  20.776  0.00  0.00    +0.000 C 
ATOM     20  C   UNL     1       3.175  16.612  20.897  0.00  0.00    +0.000 C 
ATOM     21  C   UNL     1       2.776  17.852  20.095  0.00  0.00    +0.000 C 
ENDBRANCH  12  15
ENDBRANCH   9  12
BRANCH   1  22
ATOM     22  C   UNL     1       0.972  10.025  19.139  0.00  0.00    +0.000 C 
BRANCH  22  24
ATOM     23  N   UNL     1       2.251   7.627  18.853  0.00  0.00    +0.000 N 
ATOM     24  C   UNL     1       1.842   8.847  18.298  0.00  0.00    +0.000 C 
ATOM     25  O   UNL     1       2.092   9.118  17.118  0.00  0.00    +0.000 OA
ATOM     26  H   UNL     1       1.939   7.416  19.786  0.00  0.00    +0.000 HD
BRANCH  23  30
ATOM     27  C   UNL     1       4.786   4.641  16.790  0.00  0.00    +0.000 A 
ATOM     28  C   UNL     1       3.529   4.285  17.308  0.00  0.00    +0.000 A 
ATOM     29  C   UNL     1       2.689   5.217  17.977  0.00  0.00    +0.000 A 
ATOM     30  C   UNL     1       3.063   6.551  18.200  0.00  0.00    +0.000 A 
ATOM     31  C   UNL     1       4.344   6.898  17.728  0.00  0.00    +0.000 A 
ATOM     32  C   UNL     1       5.185   5.966  17.027  0.00  0.00    +0.000 A 
BRANCH  27  34
ATOM     33  C   UNL     1       6.154   3.996  14.951  0.00  0.00    +0.000 C 
ATOM     34  O   UNL     1       5.468   3.657  16.151  0.00  0.00    +0.000 OA
ENDBRANCH  27  34
ENDBRANCH  23  30
ENDBRANCH  22  24
ENDBRANCH   1  22
TORSDOF 6
ENDMDL
MODEL 3
REMARK VINA RESULT:      -7.6      1.454      1.860
REMARK  Name = 
REMARK  8 active torsions:
REMARK  status: ('A' for Active; 'I' for Inactive)
REMARK    1  A    between atoms: C_1  and  O_2
REMARK    2  A    between atoms: O_2  and  C_3
REMARK    3  A    between atoms: C_6  and  N_7
REMARK    4  A    between atoms: C_8  and  C_10
REMARK    5  A    between atoms: C_10  and  N_11
REMARK    6  A    between atoms: C_19  and  S_20
REMARK    7  A    between atoms: S_20  and  N_23
REMARK    8  A    between atoms: C_26  and  C_27
REMARK                            x       y       z     vdW  Elec       q    Type
REMARK                         _______ _______ _______ _____ _____    ______ ____
ROOT
ATOM      1  N   UNL     1       0.160  11.453  21.094  0.00  0.00    +0.000 N 
ATOM      2  C   UNL     1       0.963  12.611  20.958  0.00  0.00    +0.000 C 
ATOM      3  O   UNL     1       2.169  12.631  21.147  0.00  0.00    +0.000 OA
ATOM      4  C   UNL     1       0.198  13.805  20.432  0.00  0.00    +0.000 C 
ATOM      5  S   UNL     1      -0.382  13.342  18.711  0.00  0.00    +0.000 S 
ATOM      6  C   UNL     1      -1.232  11.520  19.143  0.00  0.00    +0.000 A 
ATOM      7  C   UNL     1      -2.437  11.468  18.403  0.00  0.00    +0.000 A 
ATOM      8  C   UNL     1      -3.629  11.966  18.924  0.00  0.00    +0.000 A 
ATOM      9  C   UNL     1      -3.633  12.433  20.236  0.00  0.00    +0.000 A 
ATOM     10  C   UNL     1      -2.442  12.143  21.078  0.00  0.00    +0.000 A 
ATOM     11  C   UNL     1      -1.226  11.509  20.533  0.00  0.00    +0.000 A 
ENDROOT
BRANCH   9  12
ATOM     12  S   UNL     1      -5.259  13.192  20.790  0.00  0.00    +0.000 S 
ATOM     13  O   UNL     1      -4.991  14.616  20.827  0.00  0.00    +0.000 OA
ATOM     14  O   UNL     1      -6.279  12.650  19.919  0.00  0.00    +0.000 OA
BRANCH  12  15
ATOM     15  N   UNL     1      -5.692  12.761  22.468  0.00  0.00    +0.000 NA
ATOM     16  C   UNL     1      -7.119  12.693  22.897  0.00  0.00    +0.000 C 
ATOM     17  C   UNL     1      -7.769  14.075  22.957  0.00  0.00    +0.000 C 
ATOM     18  C   UNL     1      -6.984  15.148  23.741  0.00  0.00    +0.000 C 
ATOM     19  C   UNL     1      -7.398  16.557  23.273  0.00  0.00    +0.000 C 
ATOM     20  C   UNL     1      -5.453  14.986  23.666  0.00  0.00    +0.000 C 
ATOM     21  C   UNL     1      -4.974  13.537  23.572  0.00  0.00    +0.000 C 
ENDBRANCH  12  15
ENDBRANCH   9  12
BRANCH   1  22
ATOM     22  C   UNL     1       1.017  10.198  21.227  0.00  0.00    +0.000 C 
BRANCH  22  24
ATOM     23  N   UNL     1       2.039   7.838  20.303  0.00  0.00    +0.000 N 
ATOM     24  C   UNL     1       0.982   8.542  20.895  0.00  0.00    +0.000 C 
ATOM     25  O   UNL     1      -0.054   7.958  21.230  0.00  0.00    +0.000 OA
ATOM     26  H   UNL     1       2.894   8.341  20.137  0.00  0.00    +0.000 HD
BRANCH  23  30
ATOM     27  C   UNL     1       2.218   3.496  19.458  0.00  0.00    +0.000 A 
ATOM     28  C   UNL     1       2.363   4.437  18.425  0.00  0.00    +0.000 A 
ATOM     29  C   UNL     1       2.311   5.839  18.660  0.00  0.00    +0.000 A 
ATOM     30  C   UNL     1       2.077   6.387  19.930  0.00  0.00    +0.000 A 
ATOM     31  C   UNL     1       1.880   5.445  20.959  0.00  0.00    +0.000 A 
ATOM     32  C   UNL     1       1.960   4.028  20.731  0.00  0.00    +0.000 A 
BRANCH  27  34
ATOM     33  C   UNL     1       3.463   1.798  18.346  0.00  0.00    +0.000 C 
ATOM     34  O   UNL     1       2.319   2.192  19.094  0.00  0.00    +0.000 OA
ENDBRANCH  27  34
ENDBRANCH  23  30
ENDBRANCH  22  24
ENDBRANCH   1  22
TORSDOF 6
ENDMDL
MODEL 4
REMARK VINA RESULT:      -7.6      1.956      2.504
REMARK  Name = 
REMARK  8 active torsions:
REMARK  status: ('A' for Active; 'I' for Inactive)
REMARK    1  A    between atoms: C_1  and  O_2
REMARK    2  A    between atoms: O_2  and  C_3
REMARK    3  A    between atoms: C_6  and  N_7
REMARK    4  A    between atoms: C_8  and  C_10
REMARK    5  A    between atoms: C_10  and  N_11
REMARK    6  A    between atoms: C_19  and  S_20
REMARK    7  A    between atoms: S_20  and  N_23
REMARK    8  A    between atoms: C_26  and  C_27
REMARK                            x       y       z     vdW  Elec       q    Type
REMARK                         _______ _______ _______ _____ _____    ______ ____
ROOT
ATOM      1  N   UNL     1       0.175  11.515  20.913  0.00  0.00    +0.000 N 
ATOM      2  C   UNL     1       0.931  12.710  20.843  0.00  0.00    +0.000 C 
ATOM      3  O   UNL     1       2.128  12.774  21.075  0.00  0.00    +0.000 OA
ATOM      4  C   UNL     1       0.133  13.888  20.330  0.00  0.00    +0.000 C 
ATOM      5  S   UNL     1      -0.368  13.459  18.576  0.00  0.00    +0.000 S 
ATOM      6  C   UNL     1      -1.152  11.589  18.919  0.00  0.00    +0.000 A 
ATOM      7  C   UNL     1      -2.329  11.510  18.136  0.00  0.00    +0.000 A 
ATOM      8  C   UNL     1      -3.557  11.940  18.630  0.00  0.00    +0.000 A 
ATOM      9  C   UNL     1      -3.626  12.362  19.956  0.00  0.00    +0.000 A 
ATOM     10  C   UNL     1      -2.452  12.094  20.828  0.00  0.00    +0.000 A 
ATOM     11  C   UNL     1      -1.192  11.531  20.306  0.00  0.00    +0.000 A 
ENDROOT
BRANCH   9  12
ATOM     12  S   UNL     1      -5.301  13.032  20.477  0.00  0.00    +0.000 S 
ATOM     13  O   UNL     1      -6.124  12.889  19.292  0.00  0.00    +0.000 OA
ATOM     14  O   UNL     1      -5.646  12.354  21.708  0.00  0.00    +0.000 OA
BRANCH  12  15
ATOM     15  N   UNL     1      -5.275  14.785  20.813  0.00  0.00    +0.000 NA
ATOM     16  C   UNL     1      -3.985  15.519  20.958  0.00  0.00    +0.000 C 
ATOM     17  C   UNL     1      -3.248  15.141  22.242  0.00  0.00    +0.000 C 
ATOM     18  C   UNL     1      -4.089  15.197  23.535  0.00  0.00    +0.000 C 
ATOM     19  C   UNL     1      -3.466  14.290  24.614  0.00  0.00    +0.000 C 
ATOM     20  C   UNL     1      -5.576  14.847  23.333  0.00  0.00    +0.000 C 
ATOM     21  C   UNL     1      -6.145  15.263  21.976  0.00  0.00    +0.000 C 
ENDBRANCH  12  15
ENDBRANCH   9  12
BRANCH   1  22
ATOM     22  C   UNL     1       1.081  10.294  21.035  0.00  0.00    +0.000 C 
BRANCH  22  24
ATOM     23  N   UNL     1       1.734   7.641  20.947  0.00  0.00    +0.000 N 
ATOM     24  C   UNL     1       1.419   8.827  20.269  0.00  0.00    +0.000 C 
ATOM     25  O   UNL     1       1.353   8.848  19.035  0.00  0.00    +0.000 OA
ATOM     26  H   UNL     1       1.681   7.655  21.951  0.00  0.00    +0.000 HD
BRANCH  23  30
ATOM     27  C   UNL     1       2.685   3.601  19.407  0.00  0.00    +0.000 A 
ATOM     28  C   UNL     1       3.395   4.728  18.960  0.00  0.00    +0.000 A 
ATOM     29  C   UNL     1       3.117   6.041  19.433  0.00  0.00    +0.000 A 
ATOM     30  C   UNL     1       2.093   6.314  20.352  0.00  0.00    +0.000 A 
ATOM     31  C   UNL     1       1.344   5.193  20.762  0.00  0.00    +0.000 A 
ATOM     32  C   UNL     1       1.640   3.861  20.308  0.00  0.00    +0.000 A 
BRANCH  27  34
ATOM     33  C   UNL     1       2.719   2.115  17.547  0.00  0.00    +0.000 C 
ATOM     34  O   UNL     1       3.076   2.408  18.893  0.00  0.00    +0.000 OA
ENDBRANCH  27  34
ENDBRANCH  23  30
ENDBRANCH  22  24
ENDBRANCH   1  22
TORSDOF 6
ENDMDL
MODEL 5
REMARK VINA RESULT:      -7.6      3.829      5.475
REMARK  Name = 
REMARK  8 active torsions:
REMARK  status: ('A' for Active; 'I' for Inactive)
REMARK    1  A    between atoms: C_1  and  O_2
REMARK    2  A    between atoms: O_2  and  C_3
REMARK    3  A    between atoms: C_6  and  N_7
REMARK    4  A    between atoms: C_8  and  C_10
REMARK    5  A    between atoms: C_10  and  N_11
REMARK    6  A    between atoms: C_19  and  S_20
REMARK    7  A    between atoms: S_20  and  N_23
REMARK    8  A    between atoms: C_26  and  C_27
REMARK                            x       y       z     vdW  Elec       q    Type
REMARK                         _______ _______ _______ _____ _____    ______ ____
ROOT
ATOM      1  N   UNL     1       0.632  10.603  20.156  0.00  0.00    +0.000 N 
ATOM      2  C   UNL     1       0.156  10.753  18.831  0.00  0.00    +0.000 C 
ATOM      3  O   UNL     1       0.208   9.874  17.984  0.00  0.00    +0.000 OA
ATOM      4  C   UNL     1      -0.542  12.074  18.597  0.00  0.00    +0.000 C 
ATOM      5  S   UNL     1      -2.044  12.081  19.718  0.00  0.00    +0.000 S 
ATOM      6  C   UNL     1      -1.126  11.552  21.480  0.00  0.00    +0.000 A 
ATOM      7  C   UNL     1      -1.705  12.369  22.481  0.00  0.00    +0.000 A 
ATOM      8  C   UNL     1      -1.189  13.628  22.776  0.00  0.00    +0.000 A 
ATOM      9  C   UNL     1      -0.022  14.032  22.131  0.00  0.00    +0.000 A 
ATOM     10  C   UNL     1       0.734  13.008  21.362  0.00  0.00    +0.000 A 
ATOM     11  C   UNL     1       0.221  11.640  21.154  0.00  0.00    +0.000 A 
ENDROOT
BRANCH   9  12
ATOM     12  S   UNL     1       0.514  15.790  22.515  0.00  0.00    +0.000 S 
ATOM     13  O   UNL     1      -0.328  16.183  23.628  0.00  0.00    +0.000 OA
ATOM     14  O   UNL     1       1.955  15.757  22.650  0.00  0.00    +0.000 OA
BRANCH  12  15
ATOM     15  N   UNL     1       0.118  16.940  21.208  0.00  0.00    +0.000 NA
ATOM     16  C   UNL     1      -0.649  16.500  20.007  0.00  0.00    +0.000 C 
ATOM     17  C   UNL     1       0.168  15.573  19.108  0.00  0.00    +0.000 C 
ATOM     18  C   UNL     1       1.577  16.078  18.734  0.00  0.00    +0.000 C 
ATOM     19  C   UNL     1       2.481  14.893  18.345  0.00  0.00    +0.000 C 
ATOM     20  C   UNL     1       2.250  16.929  19.829  0.00  0.00    +0.000 C 
ATOM     21  C   UNL     1       1.281  17.770  20.662  0.00  0.00    +0.000 C 
ENDBRANCH  12  15
ENDBRANCH   9  12
BRANCH   1  22
ATOM     22  C   UNL     1       0.954   9.145  20.467  0.00  0.00    +0.000 C 
BRANCH  22  24
ATOM     23  N   UNL     1       2.470   7.827  18.614  0.00  0.00    +0.000 N 
ATOM     24  C   UNL     1       1.841   7.839  19.867  0.00  0.00    +0.000 C 
ATOM     25  O   UNL     1       1.926   6.866  20.623  0.00  0.00    +0.000 OA
ATOM     26  H   UNL     1       2.450   8.679  18.079  0.00  0.00    +0.000 HD
BRANCH  23  30
ATOM     27  C   UNL     1       4.839   4.685  16.587  0.00  0.00    +0.000 A 
ATOM     28  C   UNL     1       3.654   4.366  17.270  0.00  0.00    +0.000 A 
ATOM     29  C   UNL     1       2.868   5.349  17.932  0.00  0.00    +0.000 A 
ATOM     30  C   UNL     1       3.232   6.702  17.984  0.00  0.00    +0.000 A 
ATOM     31  C   UNL     1       4.448   7.018  17.344  0.00  0.00    +0.000 A 
ATOM     32  C   UNL     1       5.230   6.032  16.649  0.00  0.00    +0.000 A 
BRANCH  27  34
ATOM     33  C   UNL     1       6.084   3.900  14.715  0.00  0.00    +0.000 C 
ATOM     34  O   UNL     1       5.472   3.652  15.975  0.00  0.00    +0.000 OA
ENDBRANCH  27  34
ENDBRANCH  23  30
ENDBRANCH  22  24
ENDBRANCH   1  22
TORSDOF 6
ENDMDL
MODEL 6
REMARK VINA RESULT:      -7.5      1.913      2.297
REMARK  Name = 
REMARK  8 active torsions:
REMARK  status: ('A' for Active; 'I' for Inactive)
REMARK    1  A    between atoms: C_1  and  O_2
REMARK    2  A    between atoms: O_2  and  C_3
REMARK    3  A    between atoms: C_6  and  N_7
REMARK    4  A    between atoms: C_8  and  C_10
REMARK    5  A    between atoms: C_10  and  N_11
REMARK    6  A    between atoms: C_19  and  S_20
REMARK    7  A    between atoms: S_20  and  N_23
REMARK    8  A    between atoms: C_26  and  C_27
REMARK                            x       y       z     vdW  Elec       q    Type
REMARK                         _______ _______ _______ _____ _____    ______ ____
ROOT
ATOM      1  N   UNL     1       0.086  11.548  21.077  0.00  0.00    +0.000 N 
ATOM      2  C   UNL     1       0.881  12.712  20.944  0.00  0.00    +0.000 C 
ATOM      3  O   UNL     1       2.096  12.725  21.056  0.00  0.00    +0.000 OA
ATOM      4  C   UNL     1       0.085  13.928  20.523  0.00  0.00    +0.000 C 
ATOM      5  S   UNL     1      -0.604  13.543  18.823  0.00  0.00    +0.000 S 
ATOM      6  C   UNL     1      -1.427  11.702  19.224  0.00  0.00    +0.000 A 
ATOM      7  C   UNL     1      -2.678  11.682  18.561  0.00  0.00    +0.000 A 
ATOM      8  C   UNL     1      -3.833  12.155  19.179  0.00  0.00    +0.000 A 
ATOM      9  C   UNL     1      -3.752  12.561  20.509  0.00  0.00    +0.000 A 
ATOM     10  C   UNL     1      -2.510  12.234  21.258  0.00  0.00    +0.000 A 
ATOM     11  C   UNL     1      -1.333  11.628  20.608  0.00  0.00    +0.000 A 
ENDROOT
BRANCH   9  12
ATOM     12  S   UNL     1      -5.338  13.291  21.200  0.00  0.00    +0.000 S 
ATOM     13  O   UNL     1      -6.323  13.044  20.165  0.00  0.00    +0.000 OA
ATOM     14  O   UNL     1      -5.499  12.735  22.526  0.00  0.00    +0.000 OA
BRANCH  12  15
ATOM     15  N   UNL     1      -5.274  15.068  21.361  0.00  0.00    +0.000 NA
ATOM     16  C   UNL     1      -3.971  15.793  21.344  0.00  0.00    +0.000 C 
ATOM     17  C   UNL     1      -3.148  15.528  22.604  0.00  0.00    +0.000 C 
ATOM     18  C   UNL     1      -3.895  15.722  23.941  0.00  0.00    +0.000 C 
ATOM     19  C   UNL     1      -3.205  14.914  25.057  0.00  0.00    +0.000 C 
ATOM     20  C   UNL     1      -5.395  15.377  23.878  0.00  0.00    +0.000 C 
ATOM     21  C   UNL     1      -6.056  15.669  22.530  0.00  0.00    +0.000 C 
ENDBRANCH  12  15
ENDBRANCH   9  12
BRANCH   1  22
ATOM     22  C   UNL     1       0.948  10.290  21.097  0.00  0.00    +0.000 C 
BRANCH  22  24
ATOM     23  N   UNL     1       1.819   7.736  20.661  0.00  0.00    +0.000 N 
ATOM     24  C   UNL     1       1.335   8.947  20.147  0.00  0.00    +0.000 C 
ATOM     25  O   UNL     1       1.146   9.086  18.934  0.00  0.00    +0.000 OA
ATOM     26  H   UNL     1       1.864   7.643  21.661  0.00  0.00    +0.000 HD
BRANCH  23  30
ATOM     27  C   UNL     1       3.046   4.288  18.171  0.00  0.00    +0.000 A 
ATOM     28  C   UNL     1       2.381   4.093  19.393  0.00  0.00    +0.000 A 
ATOM     29  C   UNL     1       1.972   5.177  20.218  0.00  0.00    +0.000 A 
ATOM     30  C   UNL     1       2.232   6.517  19.894  0.00  0.00    +0.000 A 
ATOM     31  C   UNL     1       2.945   6.713  18.694  0.00  0.00    +0.000 A 
ATOM     32  C   UNL     1       3.335   5.622  17.844  0.00  0.00    +0.000 A 
BRANCH  27  34
ATOM     33  C   UNL     1       3.215   1.913  18.136  0.00  0.00    +0.000 C 
ATOM     34  O   UNL     1       3.351   3.165  17.473  0.00  0.00    +0.000 OA
ENDBRANCH  27  34
ENDBRANCH  23  30
ENDBRANCH  22  24
ENDBRANCH   1  22
TORSDOF 6
ENDMDL
MODEL 7
REMARK VINA RESULT:      -7.5      1.489      2.120
REMARK  Name = 
REMARK  8 active torsions:
REMARK  status: ('A' for Active; 'I' for Inactive)
REMARK    1  A    between atoms: C_1  and  O_2
REMARK    2  A    between atoms: O_2  and  C_3
REMARK    3  A    between atoms: C_6  and  N_7
REMARK    4  A    between atoms: C_8  and  C_10
REMARK    5  A    between atoms: C_10  and  N_11
REMARK    6  A    between atoms: C_19  and  S_20
REMARK    7  A    between atoms: S_20  and  N_23
REMARK    8  A    between atoms: C_26  and  C_27
REMARK                            x       y       z     vdW  Elec       q    Type
REMARK                         _______ _______ _______ _____ _____    ______ ____
ROOT
ATOM      1  N   UNL     1       0.192  11.710  21.170  0.00  0.00    +0.000 N 
ATOM      2  C   UNL     1       0.988  12.879  21.248  0.00  0.00    +0.000 C 
ATOM      3  O   UNL     1       2.180  12.910  20.987  0.00  0.00    +0.000 OA
ATOM      4  C   UNL     1       0.188  14.122  21.567  0.00  0.00    +0.000 C 
ATOM      5  S   UNL     1      -0.999  14.366  20.137  0.00  0.00    +0.000 S 
ATOM      6  C   UNL     1      -1.788  12.469  20.053  0.00  0.00    +0.000 A 
ATOM      7  C   UNL     1      -3.177  12.635  19.837  0.00  0.00    +0.000 A 
ATOM      8  C   UNL     1      -4.063  12.782  20.902  0.00  0.00    +0.000 A 
ATOM      9  C   UNL     1      -3.565  12.665  22.197  0.00  0.00    +0.000 A 
ATOM     10  C   UNL     1      -2.181  12.146  22.363  0.00  0.00    +0.000 A 
ATOM     11  C   UNL     1      -1.293  11.887  21.214  0.00  0.00    +0.000 A 
ENDROOT
BRANCH   9  12
ATOM     12  S   UNL     1      -4.822  13.003  23.551  0.00  0.00    +0.000 S 
ATOM     13  O   UNL     1      -6.095  13.020  22.856  0.00  0.00    +0.000 OA
ATOM     14  O   UNL     1      -4.561  12.040  24.599  0.00  0.00    +0.000 OA
BRANCH  12  15
ATOM     15  N   UNL     1      -4.661  14.633  24.260  0.00  0.00    +0.000 NA
ATOM     16  C   UNL     1      -5.676  15.691  23.987  0.00  0.00    +0.000 C 
ATOM     17  C   UNL     1      -5.623  16.183  22.542  0.00  0.00    +0.000 C 
ATOM     18  C   UNL     1      -4.225  16.583  22.025  0.00  0.00    +0.000 C 
ATOM     19  C   UNL     1      -4.184  16.505  20.486  0.00  0.00    +0.000 C 
ATOM     20  C   UNL     1      -3.071  15.763  22.634  0.00  0.00    +0.000 C 
ATOM     21  C   UNL     1      -3.305  15.318  24.079  0.00  0.00    +0.000 C 
ENDBRANCH  12  15
ENDBRANCH   9  12
BRANCH   1  22
ATOM     22  C   UNL     1       0.935  10.581  20.463  0.00  0.00    +0.000 C 
BRANCH  22  24
ATOM     23  N   UNL     1       1.947   8.181  19.634  0.00  0.00    +0.000 N 
ATOM     24  C   UNL     1       1.063   8.897  20.455  0.00  0.00    +0.000 C 
ATOM     25  O   UNL     1       0.325   8.306  21.251  0.00  0.00    +0.000 OA
ATOM     26  H   UNL     1       2.591   8.713  19.075  0.00  0.00    +0.000 HD
BRANCH  23  30
ATOM     27  C   UNL     1       2.434   3.782  19.580  0.00  0.00    +0.000 A 
ATOM     28  C   UNL     1       2.590   4.538  18.407  0.00  0.00    +0.000 A 
ATOM     29  C   UNL     1       2.441   5.953  18.387  0.00  0.00    +0.000 A 
ATOM     30  C   UNL     1       2.093   6.694  19.526  0.00  0.00    +0.000 A 
ATOM     31  C   UNL     1       1.885   5.933  20.693  0.00  0.00    +0.000 A 
ATOM     32  C   UNL     1       2.062   4.507  20.724  0.00  0.00    +0.000 A 
BRANCH  27  34
ATOM     33  C   UNL     1       3.083   1.952  18.201  0.00  0.00    +0.000 C 
ATOM     34  O   UNL     1       2.634   2.445  19.458  0.00  0.00    +0.000 OA
ENDBRANCH  27  34
ENDBRANCH  23  30
ENDBRANCH  22  24
ENDBRANCH   1  22
TORSDOF 6
ENDMDL
MODEL 8
REMARK VINA RESULT:      -7.5      2.516      2.924
REMARK  Name = 
REMARK  8 active torsions:
REMARK  status: ('A' for Active; 'I' for Inactive)
REMARK    1  A    between atoms: C_1  and  O_2
REMARK    2  A    between atoms: O_2  and  C_3
REMARK    3  A    between atoms: C_6  and  N_7
REMARK    4  A    between atoms: C_8  and  C_10
REMARK    5  A    between atoms: C_10  and  N_11
REMARK    6  A    between atoms: C_19  and  S_20
REMARK    7  A    between atoms: S_20  and  N_23
REMARK    8  A    between atoms: C_26  and  C_27
REMARK                            x       y       z     vdW  Elec       q    Type
REMARK                         _______ _______ _______ _____ _____    ______ ____
ROOT
ATOM      1  N   UNL     1       1.067  11.137  19.221  0.00  0.00    +0.000 N 
ATOM      2  C   UNL     1       1.820  12.240  18.752  0.00  0.00    +0.000 C 
ATOM      3  O   UNL     1       2.823  12.137  18.063  0.00  0.00    +0.000 OA
ATOM      4  C   UNL     1       1.189  13.574  19.084  0.00  0.00    +0.000 C 
ATOM      5  S   UNL     1      -0.455  13.617  18.185  0.00  0.00    +0.000 S 
ATOM      6  C   UNL     1      -1.198  11.800  18.797  0.00  0.00    +0.000 A 
ATOM      7  C   UNL     1      -2.566  12.017  19.089  0.00  0.00    +0.000 A 
ATOM      8  C   UNL     1      -2.980  12.430  20.352  0.00  0.00    +0.000 A 
ATOM      9  C   UNL     1      -2.025  12.533  21.360  0.00  0.00    +0.000 A 
ATOM     10  C   UNL     1      -0.678  11.961  21.099  0.00  0.00    +0.000 A 
ATOM     11  C   UNL     1      -0.292  11.422  19.781  0.00  0.00    +0.000 A 
ENDROOT
BRANCH   9  12
ATOM     12  S   UNL     1      -2.675  13.214  22.985  0.00  0.00    +0.000 S 
ATOM     13  O   UNL     1      -3.540  12.165  23.489  0.00  0.00    +0.000 OA
ATOM     14  O   UNL     1      -1.517  13.648  23.737  0.00  0.00    +0.000 OA
BRANCH  12  15
ATOM     15  N   UNL     1      -3.743  14.629  22.769  0.00  0.00    +0.000 NA
ATOM     16  C   UNL     1      -3.242  15.876  22.123  0.00  0.00    +0.000 C 
ATOM     17  C   UNL     1      -2.238  16.618  23.003  0.00  0.00    +0.000 C 
ATOM     18  C   UNL     1      -2.682  16.866  24.460  0.00  0.00    +0.000 C 
ATOM     19  C   UNL     1      -1.451  17.076  25.363  0.00  0.00    +0.000 C 
ATOM     20  C   UNL     1      -3.588  15.761  25.036  0.00  0.00    +0.000 C 
ATOM     21  C   UNL     1      -4.506  15.095  24.010  0.00  0.00    +0.000 C 
ENDBRANCH  12  15
ENDBRANCH   9  12
BRANCH   1  22
ATOM     22  C   UNL     1       1.495   9.843  18.537  0.00  0.00    +0.000 C 
BRANCH  22  24
ATOM     23  N   UNL     1       2.587   7.403  17.969  0.00  0.00    +0.000 N 
ATOM     24  C   UNL     1       1.995   8.270  18.897  0.00  0.00    +0.000 C 
ATOM     25  O   UNL     1       1.822   7.916  20.068  0.00  0.00    +0.000 OA
ATOM     26  H   UNL     1       2.792   7.773  17.056  0.00  0.00    +0.000 HD
BRANCH  23  30
ATOM     27  C   UNL     1       3.590   3.145  18.650  0.00  0.00    +0.000 A 
ATOM     28  C   UNL     1       4.554   4.151  18.832  0.00  0.00    +0.000 A 
ATOM     29  C   UNL     1       4.268   5.528  18.622  0.00  0.00    +0.000 A 
ATOM     30  C   UNL     1       3.015   5.984  18.186  0.00  0.00    +0.000 A 
ATOM     31  C   UNL     1       2.060   4.974  17.952  0.00  0.00    +0.000 A 
ATOM     32  C   UNL     1       2.337   3.583  18.190  0.00  0.00    +0.000 A 
BRANCH  27  34
ATOM     33  C   UNL     1       4.619   1.627  20.167  0.00  0.00    +0.000 C 
ATOM     34  O   UNL     1       3.993   1.877  18.914  0.00  0.00    +0.000 OA
ENDBRANCH  27  34
ENDBRANCH  23  30
ENDBRANCH  22  24
ENDBRANCH   1  22
TORSDOF 6
ENDMDL
MODEL 9
REMARK VINA RESULT:      -7.5      2.421      3.237
REMARK  Name = 
REMARK  8 active torsions:
REMARK  status: ('A' for Active; 'I' for Inactive)
REMARK    1  A    between atoms: C_1  and  O_2
REMARK    2  A    between atoms: O_2  and  C_3
REMARK    3  A    between atoms: C_6  and  N_7
REMARK    4  A    between atoms: C_8  and  C_10
REMARK    5  A    between atoms: C_10  and  N_11
REMARK    6  A    between atoms: C_19  and  S_20
REMARK    7  A    between atoms: S_20  and  N_23
REMARK    8  A    between atoms: C_26  and  C_27
REMARK                            x       y       z     vdW  Elec       q    Type
REMARK                         _______ _______ _______ _____ _____    ______ ____
ROOT
ATOM      1  N   UNL     1      -1.332  11.665  20.788  0.00  0.00    +0.000 N 
ATOM      2  C   UNL     1      -0.584  11.571  21.987  0.00  0.00    +0.000 C 
ATOM      3  O   UNL     1       0.521  11.058  22.062  0.00  0.00    +0.000 OA
ATOM      4  C   UNL     1      -1.237  12.283  23.150  0.00  0.00    +0.000 C 
ATOM      5  S   UNL     1      -1.299  14.098  22.689  0.00  0.00    +0.000 S 
ATOM      6  C   UNL     1      -2.139  13.922  20.820  0.00  0.00    +0.000 A 
ATOM      7  C   UNL     1      -3.091  14.964  20.722  0.00  0.00    +0.000 A 
ATOM      8  C   UNL     1      -4.404  14.789  21.152  0.00  0.00    +0.000 A 
ATOM      9  C   UNL     1      -4.791  13.526  21.595  0.00  0.00    +0.000 A 
ATOM     10  C   UNL     1      -3.862  12.391  21.349  0.00  0.00    +0.000 A 
ATOM     11  C   UNL     1      -2.513  12.584  20.785  0.00  0.00    +0.000 A 
ENDROOT
BRANCH   9  12
ATOM     12  S   UNL     1      -6.544  13.437  22.263  0.00  0.00    +0.000 S 
ATOM     13  O   UNL     1      -6.516  12.318  23.185  0.00  0.00    +0.000 OA
ATOM     14  O   UNL     1      -6.874  14.769  22.722  0.00  0.00    +0.000 OA
BRANCH  12  15
ATOM     15  N   UNL     1      -7.741  12.980  21.019  0.00  0.00    +0.000 NA
ATOM     16  C   UNL     1      -7.899  11.560  20.593  0.00  0.00    +0.000 C 
ATOM     17  C   UNL     1      -6.697  11.060  19.793  0.00  0.00    +0.000 C 
ATOM     18  C   UNL     1      -6.253  11.964  18.623  0.00  0.00    +0.000 C 
ATOM     19  C   UNL     1      -4.776  11.695  18.275  0.00  0.00    +0.000 C 
ATOM     20  C   UNL     1      -6.482  13.467  18.869  0.00  0.00    +0.000 C 
ATOM     21  C   UNL     1      -7.710  13.790  19.722  0.00  0.00    +0.000 C 
ENDBRANCH  12  15
ENDBRANCH   9  12
BRANCH   1  22
ATOM     22  C   UNL     1      -0.480  11.306  19.575  0.00  0.00    +0.000 C 
BRANCH  22  24
ATOM     23  N   UNL     1       1.352   9.278  19.541  0.00  0.00    +0.000 N 
ATOM     24  C   UNL     1       0.343  10.001  18.888  0.00  0.00    +0.000 C 
ATOM     25  O   UNL     1      -0.014   9.692  17.747  0.00  0.00    +0.000 OA
ATOM     26  H   UNL     1       1.538   9.509  20.502  0.00  0.00    +0.000 HD
BRANCH  23  30
ATOM     27  C   UNL     1       3.778   5.833  18.182  0.00  0.00    +0.000 A 
ATOM     28  C   UNL     1       3.687   7.001  17.407  0.00  0.00    +0.000 A 
ATOM     29  C   UNL     1       2.917   8.127  17.812  0.00  0.00    +0.000 A 
ATOM     30  C   UNL     1       2.165   8.144  18.996  0.00  0.00    +0.000 A 
ATOM     31  C   UNL     1       2.212   6.955  19.750  0.00  0.00    +0.000 A 
ATOM     32  C   UNL     1       3.011   5.826  19.358  0.00  0.00    +0.000 A 
BRANCH  27  34
ATOM     33  C   UNL     1       5.801   5.230  17.082  0.00  0.00    +0.000 C 
ATOM     34  O   UNL     1       4.571   4.850  17.688  0.00  0.00    +0.000 OA
ENDBRANCH  27  34
ENDBRANCH  23  30
ENDBRANCH  22  24
ENDBRANCH   1  22
TORSDOF 6
ENDMDL
