MODEL 1
REMARK VINA RESULT:      -8.9      0.000      0.000
REMARK  Name = 
REMARK  4 active torsions:
REMARK  status: ('A' for Active; 'I' for Inactive)
REMARK    1  A    between atoms: C_1  and  C_2
REMARK    2  A    between atoms: C_4  and  C_5
REMARK    3  A    between atoms: C_14  and  C_16
REMARK    4  A    between atoms: C_20  and  C_21
REMARK                            x       y       z     vdW  Elec       q    Type
REMARK                         _______ _______ _______ _____ _____    ______ ____
ROOT
ATOM      1  C   UNL     1       3.684   2.122  20.630  0.00  0.00    +0.000 C 
ATOM      2  C   UNL     1       3.844   3.366  19.806  0.00  0.00    +0.000 A 
ATOM      3  C   UNL     1       4.635   3.349  18.673  0.00  0.00    +0.000 A 
ATOM      4  C   UNL     1       4.717   4.523  17.953  0.00  0.00    +0.000 A 
ATOM      5  N   UNL     1       4.025   5.613  18.330  0.00  0.00    +0.000 NA
ATOM      6  C   UNL     1       3.265   5.553  19.424  0.00  0.00    +0.000 A 
ATOM      7  N   UNL     1       2.512   6.658  19.819  0.00  0.00    +0.000 N 
ATOM      8  C   UNL     1       2.268   7.736  18.999  0.00  0.00    +0.000 C 
ATOM      9  O   UNL     1       2.608   7.853  17.825  0.00  0.00    +0.000 OA
ATOM     10  N   UNL     1       3.170   4.468  20.209  0.00  0.00    +0.000 NA
ATOM     11  H   UNL     1       2.031   6.535  20.694  0.00  0.00    +0.000 HD
ENDROOT
BRANCH   4  12
ATOM     12  C   UNL     1       5.521   4.680  16.730  0.00  0.00    +0.000 A 
ATOM     13  C   UNL     1       5.159   4.055  15.526  0.00  0.00    +0.000 A 
ATOM     14  C   UNL     1       5.934   4.210  14.378  0.00  0.00    +0.000 A 
ATOM     15  C   UNL     1       7.065   5.002  14.455  0.00  0.00    +0.000 A 
ATOM     16  N   UNL     1       7.456   5.637  15.579  0.00  0.00    +0.000 NA
ATOM     17  C   UNL     1       6.674   5.467  16.675  0.00  0.00    +0.000 A 
ENDBRANCH   4  12
BRANCH   8  18
ATOM     18  C   UNL     1       1.456   8.845  19.568  0.00  0.00    +0.000 A 
ATOM     19  C   UNL     1       1.330  10.010  18.796  0.00  0.00    +0.000 A 
ATOM     20  C   UNL     1       0.687  11.134  19.306  0.00  0.00    +0.000 A 
ATOM     21  C   UNL     1       0.171  11.108  20.600  0.00  0.00    +0.000 A 
ATOM     22  C   UNL     1       0.288   9.954  21.394  0.00  0.00    +0.000 A 
ATOM     23  C   UNL     1       0.926   8.813  20.863  0.00  0.00    +0.000 A 
BRANCH  22  24
ATOM     24  C   UNL     1      -0.232   9.949  22.811  0.00  0.00    +0.000 C 
ATOM     25  F   UNL     1      -1.269   9.088  23.012  0.00  0.00    +0.000 F 
ATOM     26  F   UNL     1       0.726   9.597  23.712  0.00  0.00    +0.000 F 
ATOM     27  F   UNL     1      -0.684  11.172  23.203  0.00  0.00    +0.000 F 
ENDBRANCH  22  24
ENDBRANCH   8  18
TORSDOF 3
ENDMDL
MODEL 2
REMARK VINA RESULT:      -8.9      5.574      9.009
REMARK  Name = 
REMARK  4 active torsions:
REMARK  status: ('A' for Active; 'I' for Inactive)
REMARK    1  A    between atoms: C_1  and  C_2
REMARK    2  A    between atoms: C_4  and  C_5
REMARK    3  A    between atoms: C_14  and  C_16
REMARK    4  A    between atoms: C_20  and  C_21
REMARK                            x       y       z     vdW  Elec       q    Type
REMARK                         _______ _______ _______ _____ _____    ______ ____
ROOT
ATOM      1  C   UNL     1       3.176   2.670  20.552  0.00  0.00    +0.000 C 
ATOM      2  C   UNL     1       3.271   3.752  19.517  0.00  0.00    +0.000 A 
ATOM      3  C   UNL     1       2.720   4.996  19.764  0.00  0.00    +0.000 A 
ATOM      4  C   UNL     1       2.865   5.948  18.776  0.00  0.00    +0.000 A 
ATOM      5  N   UNL     1       3.545   5.674  17.648  0.00  0.00    +0.000 NA
ATOM      6  C   UNL     1       4.068   4.458  17.485  0.00  0.00    +0.000 A 
ATOM      7  N   UNL     1       4.804   4.157  16.340  0.00  0.00    +0.000 N 
ATOM      8  C   UNL     1       5.281   5.117  15.476  0.00  0.00    +0.000 C 
ATOM      9  O   UNL     1       5.189   6.333  15.613  0.00  0.00    +0.000 OA
ATOM     10  N   UNL     1       3.928   3.459  18.371  0.00  0.00    +0.000 NA
ATOM     11  H   UNL     1       5.092   3.195  16.278  0.00  0.00    +0.000 HD
ENDROOT
BRANCH   4  12
ATOM     12  C   UNL     1       2.332   7.317  18.873  0.00  0.00    +0.000 A 
ATOM     13  C   UNL     1       2.329   8.184  17.769  0.00  0.00    +0.000 A 
ATOM     14  C   UNL     1       1.825   9.480  17.880  0.00  0.00    +0.000 A 
ATOM     15  C   UNL     1       1.322   9.884  19.103  0.00  0.00    +0.000 A 
ATOM     16  N   UNL     1       1.288   9.092  20.194  0.00  0.00    +0.000 NA
ATOM     17  C   UNL     1       1.781   7.835  20.047  0.00  0.00    +0.000 A 
ENDBRANCH   4  12
BRANCH   8  18
ATOM     18  C   UNL     1       6.041   4.637  14.290  0.00  0.00    +0.000 A 
ATOM     19  C   UNL     1       7.175   5.373  13.915  0.00  0.00    +0.000 A 
ATOM     20  C   UNL     1       7.872   5.060  12.752  0.00  0.00    +0.000 A 
ATOM     21  C   UNL     1       7.433   4.012  11.944  0.00  0.00    +0.000 A 
ATOM     22  C   UNL     1       6.298   3.264  12.297  0.00  0.00    +0.000 A 
ATOM     23  C   UNL     1       5.607   3.576  13.487  0.00  0.00    +0.000 A 
BRANCH  22  24
ATOM     24  C   UNL     1       5.802   2.160  11.393  0.00  0.00    +0.000 C 
ATOM     25  F   UNL     1       4.561   2.388  10.880  0.00  0.00    +0.000 F 
ATOM     26  F   UNL     1       6.620   1.964  10.322  0.00  0.00    +0.000 F 
ATOM     27  F   UNL     1       5.726   0.960  12.032  0.00  0.00    +0.000 F 
ENDBRANCH  22  24
ENDBRANCH   8  18
TORSDOF 3
ENDMDL
MODEL 3
REMARK VINA RESULT:      -8.7      2.485      2.844
REMARK  Name = 
REMARK  4 active torsions:
REMARK  status: ('A' for Active; 'I' for Inactive)
REMARK    1  A    between atoms: C_1  and  C_2
REMARK    2  A    between atoms: C_4  and  C_5
REMARK    3  A    between atoms: C_14  and  C_16
REMARK    4  A    between atoms: C_20  and  C_21
REMARK                            x       y       z     vdW  Elec       q    Type
REMARK                         _______ _______ _______ _____ _____    ______ ____
ROOT
ATOM      1  C   UNL     1       2.189   3.618  21.480  0.00  0.00    +0.000 C 
ATOM      2  C   UNL     1       2.685   4.579  20.439  0.00  0.00    +0.000 A 
ATOM      3  C   UNL     1       3.698   4.203  19.577  0.00  0.00    +0.000 A 
ATOM      4  C   UNL     1       4.088   5.129  18.633  0.00  0.00    +0.000 A 
ATOM      5  N   UNL     1       3.475   6.324  18.545  0.00  0.00    +0.000 NA
ATOM      6  C   UNL     1       2.491   6.613  19.397  0.00  0.00    +0.000 A 
ATOM      7  N   UNL     1       1.819   7.831  19.308  0.00  0.00    +0.000 N 
ATOM      8  C   UNL     1       1.903   8.661  18.212  0.00  0.00    +0.000 C 
ATOM      9  O   UNL     1       2.505   8.432  17.168  0.00  0.00    +0.000 OA
ATOM     10  N   UNL     1       2.087   5.791  20.378  0.00  0.00    +0.000 NA
ATOM     11  H   UNL     1       1.145   7.982  20.040  0.00  0.00    +0.000 HD
ENDROOT
BRANCH   4  12
ATOM     12  C   UNL     1       5.155   4.895  17.646  0.00  0.00    +0.000 A 
ATOM     13  C   UNL     1       4.865   4.530  16.322  0.00  0.00    +0.000 A 
ATOM     14  C   UNL     1       5.888   4.307  15.401  0.00  0.00    +0.000 A 
ATOM     15  C   UNL     1       7.195   4.463  15.825  0.00  0.00    +0.000 A 
ATOM     16  N   UNL     1       7.534   4.823  17.080  0.00  0.00    +0.000 NA
ATOM     17  C   UNL     1       6.511   5.038  17.947  0.00  0.00    +0.000 A 
ENDBRANCH   4  12
BRANCH   8  18
ATOM     18  C   UNL     1       1.135   9.934  18.272  0.00  0.00    +0.000 A 
ATOM     19  C   UNL     1       1.851  11.100  18.580  0.00  0.00    +0.000 A 
ATOM     20  C   UNL     1       1.191  12.310  18.769  0.00  0.00    +0.000 A 
ATOM     21  C   UNL     1      -0.197  12.364  18.662  0.00  0.00    +0.000 A 
ATOM     22  C   UNL     1      -0.936  11.208  18.357  0.00  0.00    +0.000 A 
ATOM     23  C   UNL     1      -0.258   9.989  18.149  0.00  0.00    +0.000 A 
BRANCH  22  24
ATOM     24  C   UNL     1      -2.444  11.265  18.289  0.00  0.00    +0.000 C 
ATOM     25  F   UNL     1      -3.017  11.908  19.343  0.00  0.00    +0.000 F 
ATOM     26  F   UNL     1      -2.886  11.908  17.173  0.00  0.00    +0.000 F 
ATOM     27  F   UNL     1      -3.009  10.027  18.256  0.00  0.00    +0.000 F 
ENDBRANCH  22  24
ENDBRANCH   8  18
TORSDOF 3
ENDMDL
MODEL 4
REMARK VINA RESULT:      -8.7      5.599      9.039
REMARK  Name = 
REMARK  4 active torsions:
REMARK  status: ('A' for Active; 'I' for Inactive)
REMARK    1  A    between atoms: C_1  and  C_2
REMARK    2  A    between atoms: C_4  and  C_5
REMARK    3  A    between atoms: C_14  and  C_16
REMARK    4  A    between atoms: C_20  and  C_21
REMARK                            x       y       z     vdW  Elec       q    Type
REMARK                         _______ _______ _______ _____ _____    ______ ____
ROOT
ATOM      1  C   UNL     1       3.572   2.879  20.699  0.00  0.00    +0.000 C 
ATOM      2  C   UNL     1       3.567   3.905  19.604  0.00  0.00    +0.000 A 
ATOM      3  C   UNL     1       2.956   5.128  19.804  0.00  0.00    +0.000 A 
ATOM      4  C   UNL     1       3.010   6.029  18.761  0.00  0.00    +0.000 A 
ATOM      5  N   UNL     1       3.663   5.729  17.623  0.00  0.00    +0.000 NA
ATOM      6  C   UNL     1       4.247   4.537  17.505  0.00  0.00    +0.000 A 
ATOM      7  N   UNL     1       4.956   4.212  16.350  0.00  0.00    +0.000 N 
ATOM      8  C   UNL     1       5.345   5.146  15.417  0.00  0.00    +0.000 C 
ATOM      9  O   UNL     1       5.190   6.361  15.491  0.00  0.00    +0.000 OA
ATOM     10  N   UNL     1       4.197   3.584  18.450  0.00  0.00    +0.000 NA
ATOM     11  H   UNL     1       5.296   3.265  16.330  0.00  0.00    +0.000 HD
ENDROOT
BRANCH   4  12
ATOM     12  C   UNL     1       2.404   7.371  18.805  0.00  0.00    +0.000 A 
ATOM     13  C   UNL     1       1.746   7.843  19.950  0.00  0.00    +0.000 A 
ATOM     14  C   UNL     1       1.173   9.115  19.973  0.00  0.00    +0.000 A 
ATOM     15  C   UNL     1       1.279   9.899  18.839  0.00  0.00    +0.000 A 
ATOM     16  N   UNL     1       1.910   9.504  17.714  0.00  0.00    +0.000 NA
ATOM     17  C   UNL     1       2.460   8.263  17.732  0.00  0.00    +0.000 A 
ENDBRANCH   4  12
BRANCH   8  18
ATOM     18  C   UNL     1       6.086   4.643  14.229  0.00  0.00    +0.000 A 
ATOM     19  C   UNL     1       7.214   5.370  13.821  0.00  0.00    +0.000 A 
ATOM     20  C   UNL     1       7.893   5.034  12.653  0.00  0.00    +0.000 A 
ATOM     21  C   UNL     1       7.442   3.970  11.875  0.00  0.00    +0.000 A 
ATOM     22  C   UNL     1       6.313   3.228  12.261  0.00  0.00    +0.000 A 
ATOM     23  C   UNL     1       5.641   3.564  13.456  0.00  0.00    +0.000 A 
BRANCH  22  24
ATOM     24  C   UNL     1       5.804   2.105  11.388  0.00  0.00    +0.000 C 
ATOM     25  F   UNL     1       5.738   0.903  12.025  0.00  0.00    +0.000 F 
ATOM     26  F   UNL     1       4.550   2.347  10.915  0.00  0.00    +0.000 F 
ATOM     27  F   UNL     1       6.586   1.905  10.292  0.00  0.00    +0.000 F 
ENDBRANCH  22  24
ENDBRANCH   8  18
TORSDOF 3
ENDMDL
MODEL 5
REMARK VINA RESULT:      -8.6      2.000      2.584
REMARK  Name = 
REMARK  4 active torsions:
REMARK  status: ('A' for Active; 'I' for Inactive)
REMARK    1  A    between atoms: C_1  and  C_2
REMARK    2  A    between atoms: C_4  and  C_5
REMARK    3  A    between atoms: C_14  and  C_16
REMARK    4  A    between atoms: C_20  and  C_21
REMARK                            x       y       z     vdW  Elec       q    Type
REMARK                         _______ _______ _______ _____ _____    ______ ____
ROOT
ATOM      1  C   UNL     1       2.433   2.460  21.338  0.00  0.00    +0.000 C 
ATOM      2  C   UNL     1       2.654   3.751  20.605  0.00  0.00    +0.000 A 
ATOM      3  C   UNL     1       3.363   3.761  19.419  0.00  0.00    +0.000 A 
ATOM      4  C   UNL     1       3.507   4.980  18.790  0.00  0.00    +0.000 A 
ATOM      5  N   UNL     1       2.946   6.091  19.301  0.00  0.00    +0.000 NA
ATOM      6  C   UNL     1       2.258   6.005  20.440  0.00  0.00    +0.000 A 
ATOM      7  N   UNL     1       1.640   7.135  20.975  0.00  0.00    +0.000 N 
ATOM      8  C   UNL     1       1.444   8.296  20.262  0.00  0.00    +0.000 C 
ATOM      9  O   UNL     1       1.715   8.481  19.080  0.00  0.00    +0.000 OA
ATOM     10  N   UNL     1       2.114   4.870  21.142  0.00  0.00    +0.000 NA
ATOM     11  H   UNL     1       1.209   6.980  21.871  0.00  0.00    +0.000 HD
ENDROOT
BRANCH   4  12
ATOM     12  C   UNL     1       4.239   5.169  17.526  0.00  0.00    +0.000 A 
ATOM     13  C   UNL     1       4.604   4.081  16.718  0.00  0.00    +0.000 A 
ATOM     14  C   UNL     1       5.302   4.277  15.527  0.00  0.00    +0.000 A 
ATOM     15  C   UNL     1       5.617   5.573  15.160  0.00  0.00    +0.000 A 
ATOM     16  N   UNL     1       5.282   6.657  15.888  0.00  0.00    +0.000 NA
ATOM     17  C   UNL     1       4.598   6.428  17.039  0.00  0.00    +0.000 A 
ENDBRANCH   4  12
BRANCH   8  18
ATOM     18  C   UNL     1       0.780   9.419  20.976  0.00  0.00    +0.000 A 
ATOM     19  C   UNL     1       0.321   9.170  22.278  0.00  0.00    +0.000 A 
ATOM     20  C   UNL     1      -0.412  10.130  22.969  0.00  0.00    +0.000 A 
ATOM     21  C   UNL     1      -0.705  11.347  22.358  0.00  0.00    +0.000 A 
ATOM     22  C   UNL     1      -0.260  11.619  21.053  0.00  0.00    +0.000 A 
ATOM     23  C   UNL     1       0.499  10.648  20.366  0.00  0.00    +0.000 A 
BRANCH  22  24
ATOM     24  C   UNL     1      -0.621  12.923  20.381  0.00  0.00    +0.000 C 
ATOM     25  F   UNL     1      -1.958  13.083  20.178  0.00  0.00    +0.000 F 
ATOM     26  F   UNL     1      -0.220  14.004  21.105  0.00  0.00    +0.000 F 
ATOM     27  F   UNL     1      -0.040  13.054  19.158  0.00  0.00    +0.000 F 
ENDBRANCH  22  24
ENDBRANCH   8  18
TORSDOF 3
ENDMDL
MODEL 6
REMARK VINA RESULT:      -8.6      2.694      3.232
REMARK  Name = 
REMARK  4 active torsions:
REMARK  status: ('A' for Active; 'I' for Inactive)
REMARK    1  A    between atoms: C_1  and  C_2
REMARK    2  A    between atoms: C_4  and  C_5
REMARK    3  A    between atoms: C_14  and  C_16
REMARK    4  A    between atoms: C_20  and  C_21
REMARK                            x       y       z     vdW  Elec       q    Type
REMARK                         _______ _______ _______ _____ _____    ______ ____
ROOT
ATOM      1  C   UNL     1       2.220   3.756  21.201  0.00  0.00    +0.000 C 
ATOM      2  C   UNL     1       2.680   4.776  20.201  0.00  0.00    +0.000 A 
ATOM      3  C   UNL     1       3.638   4.440  19.262  0.00  0.00    +0.000 A 
ATOM      4  C   UNL     1       3.997   5.421  18.361  0.00  0.00    +0.000 A 
ATOM      5  N   UNL     1       3.406   6.630  18.385  0.00  0.00    +0.000 NA
ATOM      6  C   UNL     1       2.475   6.879  19.307  0.00  0.00    +0.000 A 
ATOM      7  N   UNL     1       1.825   8.112  19.335  0.00  0.00    +0.000 N 
ATOM      8  C   UNL     1       1.868   9.011  18.293  0.00  0.00    +0.000 C 
ATOM      9  O   UNL     1       2.410   8.841  17.205  0.00  0.00    +0.000 OA
ATOM     10  N   UNL     1       2.105   6.000  20.252  0.00  0.00    +0.000 NA
ATOM     11  H   UNL     1       1.194   8.225  20.110  0.00  0.00    +0.000 HD
ENDROOT
BRANCH   4  12
ATOM     12  C   UNL     1       5.005   5.234  17.304  0.00  0.00    +0.000 A 
ATOM     13  C   UNL     1       4.882   4.221  16.341  0.00  0.00    +0.000 A 
ATOM     14  C   UNL     1       5.849   4.055  15.350  0.00  0.00    +0.000 A 
ATOM     15  C   UNL     1       6.928   4.920  15.338  0.00  0.00    +0.000 A 
ATOM     16  N   UNL     1       7.092   5.919  16.228  0.00  0.00    +0.000 NA
ATOM     17  C   UNL     1       6.128   6.054  17.174  0.00  0.00    +0.000 A 
ENDBRANCH   4  12
BRANCH   8  18
ATOM     18  C   UNL     1       1.133  10.290  18.477  0.00  0.00    +0.000 A 
ATOM     19  C   UNL     1      -0.268  10.239  18.413  0.00  0.00    +0.000 A 
ATOM     20  C   UNL     1      -1.024  11.407  18.459  0.00  0.00    +0.000 A 
ATOM     21  C   UNL     1      -0.385  12.641  18.559  0.00  0.00    +0.000 A 
ATOM     22  C   UNL     1       1.017  12.717  18.622  0.00  0.00    +0.000 A 
ATOM     23  C   UNL     1       1.776  11.528  18.593  0.00  0.00    +0.000 A 
BRANCH  22  24
ATOM     24  C   UNL     1       1.704  14.061  18.684  0.00  0.00    +0.000 C 
ATOM     25  F   UNL     1       2.628  14.250  17.701  0.00  0.00    +0.000 F 
ATOM     26  F   UNL     1       0.826  15.095  18.575  0.00  0.00    +0.000 F 
ATOM     27  F   UNL     1       2.365  14.252  19.858  0.00  0.00    +0.000 F 
ENDBRANCH  22  24
ENDBRANCH   8  18
TORSDOF 3
ENDMDL
MODEL 7
REMARK VINA RESULT:      -8.5      5.136      8.587
REMARK  Name = 
REMARK  4 active torsions:
REMARK  status: ('A' for Active; 'I' for Inactive)
REMARK    1  A    between atoms: C_1  and  C_2
REMARK    2  A    between atoms: C_4  and  C_5
REMARK    3  A    between atoms: C_14  and  C_16
REMARK    4  A    between atoms: C_20  and  C_21
REMARK                            x       y       z     vdW  Elec       q    Type
REMARK                         _______ _______ _______ _____ _____    ______ ____
ROOT
ATOM      1  C   UNL     1       2.391   3.054  21.454  0.00  0.00    +0.000 C 
ATOM      2  C   UNL     1       2.567   4.130  20.423  0.00  0.00    +0.000 A 
ATOM      3  C   UNL     1       2.072   5.399  20.656  0.00  0.00    +0.000 A 
ATOM      4  C   UNL     1       2.289   6.342  19.673  0.00  0.00    +0.000 A 
ATOM      5  N   UNL     1       2.984   6.034  18.563  0.00  0.00    +0.000 NA
ATOM      6  C   UNL     1       3.450   4.794  18.412  0.00  0.00    +0.000 A 
ATOM      7  N   UNL     1       4.199   4.456  17.286  0.00  0.00    +0.000 N 
ATOM      8  C   UNL     1       4.746   5.391  16.436  0.00  0.00    +0.000 C 
ATOM      9  O   UNL     1       4.711   6.610  16.571  0.00  0.00    +0.000 OA
ATOM     10  N   UNL     1       3.238   3.804  19.294  0.00  0.00    +0.000 NA
ATOM     11  H   UNL     1       4.441   3.481  17.232  0.00  0.00    +0.000 HD
ENDROOT
BRANCH   4  12
ATOM     12  C   UNL     1       1.822   7.736  19.757  0.00  0.00    +0.000 A 
ATOM     13  C   UNL     1       1.814   8.577  18.633  0.00  0.00    +0.000 A 
ATOM     14  C   UNL     1       1.373   9.897  18.732  0.00  0.00    +0.000 A 
ATOM     15  C   UNL     1       0.937  10.350  19.963  0.00  0.00    +0.000 A 
ATOM     16  N   UNL     1       0.911   9.585  21.073  0.00  0.00    +0.000 NA
ATOM     17  C   UNL     1       1.341   8.305  20.938  0.00  0.00    +0.000 A 
ENDBRANCH   4  12
BRANCH   8  18
ATOM     18  C   UNL     1       5.511   4.874  15.270  0.00  0.00    +0.000 A 
ATOM     19  C   UNL     1       6.873   5.201  15.201  0.00  0.00    +0.000 A 
ATOM     20  C   UNL     1       7.632   4.856  14.086  0.00  0.00    +0.000 A 
ATOM     21  C   UNL     1       7.031   4.187  13.022  0.00  0.00    +0.000 A 
ATOM     22  C   UNL     1       5.667   3.852  13.066  0.00  0.00    +0.000 A 
ATOM     23  C   UNL     1       4.909   4.189  14.207  0.00  0.00    +0.000 A 
BRANCH  22  24
ATOM     24  C   UNL     1       5.012   3.168  11.889  0.00  0.00    +0.000 C 
ATOM     25  F   UNL     1       3.702   2.858  12.095  0.00  0.00    +0.000 F 
ATOM     26  F   UNL     1       5.043   3.935  10.764  0.00  0.00    +0.000 F 
ATOM     27  F   UNL     1       5.625   1.998  11.562  0.00  0.00    +0.000 F 
ENDBRANCH  22  24
ENDBRANCH   8  18
TORSDOF 3
ENDMDL
MODEL 8
REMARK VINA RESULT:      -8.5      2.220      2.893
REMARK  Name = 
REMARK  4 active torsions:
REMARK  status: ('A' for Active; 'I' for Inactive)
REMARK    1  A    between atoms: C_1  and  C_2
REMARK    2  A    between atoms: C_4  and  C_5
REMARK    3  A    between atoms: C_14  and  C_16
REMARK    4  A    between atoms: C_20  and  C_21
REMARK                            x       y       z     vdW  Elec       q    Type
REMARK                         _______ _______ _______ _____ _____    ______ ____
ROOT
ATOM      1  C   UNL     1       2.041   2.348  21.644  0.00  0.00    +0.000 C 
ATOM      2  C   UNL     1       2.549   3.530  20.871  0.00  0.00    +0.000 A 
ATOM      3  C   UNL     1       3.573   3.370  19.957  0.00  0.00    +0.000 A 
ATOM      4  C   UNL     1       3.972   4.496  19.266  0.00  0.00    +0.000 A 
ATOM      5  N   UNL     1       3.359   5.678  19.460  0.00  0.00    +0.000 NA
ATOM      6  C   UNL     1       2.364   5.756  20.345  0.00  0.00    +0.000 A 
ATOM      7  N   UNL     1       1.691   6.960  20.542  0.00  0.00    +0.000 N 
ATOM      8  C   UNL     1       1.787   8.028  19.678  0.00  0.00    +0.000 C 
ATOM      9  O   UNL     1       2.403   8.055  18.617  0.00  0.00    +0.000 OA
ATOM     10  N   UNL     1       1.949   4.723  21.095  0.00  0.00    +0.000 NA
ATOM     11  H   UNL     1       1.008   6.933  21.280  0.00  0.00    +0.000 HD
ENDROOT
BRANCH   4  12
ATOM     12  C   UNL     1       5.052   4.504  18.265  0.00  0.00    +0.000 A 
ATOM     13  C   UNL     1       6.322   5.026  18.557  0.00  0.00    +0.000 A 
ATOM     14  C   UNL     1       7.332   5.030  17.596  0.00  0.00    +0.000 A 
ATOM     15  C   UNL     1       7.050   4.499  16.350  0.00  0.00    +0.000 A 
ATOM     16  N   UNL     1       5.855   3.972  16.016  0.00  0.00    +0.000 NA
ATOM     17  C   UNL     1       4.898   3.980  16.980  0.00  0.00    +0.000 A 
ENDBRANCH   4  12
BRANCH   8  18
ATOM     18  C   UNL     1       1.017   9.251  20.031  0.00  0.00    +0.000 A 
ATOM     19  C   UNL     1       0.887   9.555  21.394  0.00  0.00    +0.000 A 
ATOM     20  C   UNL     1       0.087  10.614  21.813  0.00  0.00    +0.000 A 
ATOM     21  C   UNL     1      -0.603  11.374  20.870  0.00  0.00    +0.000 A 
ATOM     22  C   UNL     1      -0.491  11.086  19.499  0.00  0.00    +0.000 A 
ATOM     23  C   UNL     1       0.337  10.022  19.082  0.00  0.00    +0.000 A 
BRANCH  22  24
ATOM     24  C   UNL     1      -1.277  11.885  18.487  0.00  0.00    +0.000 C 
ATOM     25  F   UNL     1      -1.595  11.184  17.363  0.00  0.00    +0.000 F 
ATOM     26  F   UNL     1      -2.457  12.339  18.992  0.00  0.00    +0.000 F 
ATOM     27  F   UNL     1      -0.604  12.988  18.060  0.00  0.00    +0.000 F 
ENDBRANCH  22  24
ENDBRANCH   8  18
TORSDOF 3
ENDMDL
MODEL 9
REMARK VINA RESULT:      -8.5      1.299      1.645
REMARK  Name = 
REMARK  4 active torsions:
REMARK  status: ('A' for Active; 'I' for Inactive)
REMARK    1  A    between atoms: C_1  and  C_2
REMARK    2  A    between atoms: C_4  and  C_5
REMARK    3  A    between atoms: C_14  and  C_16
REMARK    4  A    between atoms: C_20  and  C_21
REMARK                            x       y       z     vdW  Elec       q    Type
REMARK                         _______ _______ _______ _____ _____    ______ ____
ROOT
ATOM      1  C   UNL     1       2.017   2.950  21.495  0.00  0.00    +0.000 C 
ATOM      2  C   UNL     1       2.492   4.116  20.677  0.00  0.00    +0.000 A 
ATOM      3  C   UNL     1       3.492   3.941  19.740  0.00  0.00    +0.000 A 
ATOM      4  C   UNL     1       3.863   5.052  19.011  0.00  0.00    +0.000 A 
ATOM      5  N   UNL     1       3.244   6.233  19.190  0.00  0.00    +0.000 NA
ATOM      6  C   UNL     1       2.273   6.325  20.099  0.00  0.00    +0.000 A 
ATOM      7  N   UNL     1       1.594   7.529  20.283  0.00  0.00    +0.000 N 
ATOM      8  C   UNL     1       1.656   8.575  19.390  0.00  0.00    +0.000 C 
ATOM      9  O   UNL     1       2.243   8.579  18.312  0.00  0.00    +0.000 OA
ATOM     10  N   UNL     1       1.888   5.309  20.887  0.00  0.00    +0.000 NA
ATOM     11  H   UNL     1       0.932   7.514  21.041  0.00  0.00    +0.000 HD
ENDROOT
BRANCH   4  12
ATOM     12  C   UNL     1       4.915   5.043  17.981  0.00  0.00    +0.000 A 
ATOM     13  C   UNL     1       4.670   5.498  16.676  0.00  0.00    +0.000 A 
ATOM     14  C   UNL     1       5.677   5.478  15.711  0.00  0.00    +0.000 A 
ATOM     15  C   UNL     1       6.924   5.005  16.077  0.00  0.00    +0.000 A 
ATOM     16  N   UNL     1       7.221   4.567  17.317  0.00  0.00    +0.000 NA
ATOM     17  C   UNL     1       6.218   4.607  18.231  0.00  0.00    +0.000 A 
ENDBRANCH   4  12
BRANCH   8  18
ATOM     18  C   UNL     1       0.885   9.799  19.732  0.00  0.00    +0.000 A 
ATOM     19  C   UNL     1       0.945  10.869  18.827  0.00  0.00    +0.000 A 
ATOM     20  C   UNL     1       0.348  12.090  19.128  0.00  0.00    +0.000 A 
ATOM     21  C   UNL     1      -0.308  12.256  20.346  0.00  0.00    +0.000 A 
ATOM     22  C   UNL     1      -0.379  11.200  21.270  0.00  0.00    +0.000 A 
ATOM     23  C   UNL     1       0.213   9.960  20.950  0.00  0.00    +0.000 A 
BRANCH  22  24
ATOM     24  C   UNL     1      -1.052  11.402  22.607  0.00  0.00    +0.000 C 
ATOM     25  F   UNL     1      -0.805  10.405  23.502  0.00  0.00    +0.000 F 
ATOM     26  F   UNL     1      -0.658  12.556  23.214  0.00  0.00    +0.000 F 
ATOM     27  F   UNL     1      -2.407  11.479  22.500  0.00  0.00    +0.000 F 
ENDBRANCH  22  24
ENDBRANCH   8  18
TORSDOF 3
ENDMDL
