MODEL 1
REMARK VINA RESULT:      -7.8      0.000      0.000
REMARK  Name = 
REMARK  8 active torsions:
REMARK  status: ('A' for Active; 'I' for Inactive)
REMARK    1  A    between atoms: C_2  and  C_3
REMARK    2  A    between atoms: C_3  and  C_4
REMARK    3  A    between atoms: C_4  and  C_5
REMARK    4  A    between atoms: C_5  and  N_6
REMARK    5  A    between atoms: C_8  and  C_9
REMARK    6  A    between atoms: C_9  and  C_11
REMARK    7  A    between atoms: C_18  and  C_19
REMARK    8  A    between atoms: C_18  and  C_20
REMARK                            x       y       z     vdW  Elec       q    Type
REMARK                         _______ _______ _______ _____ _____    ______ ____
ROOT
ATOM      1  N   UNL     1       6.037   5.422  15.549  0.00  0.00    +0.000 N 
ATOM      2  C   UNL     1       4.894   6.183  15.612  0.00  0.00    +0.000 A 
ATOM      3  C   UNL     1       4.647   6.526  16.932  0.00  0.00    +0.000 A 
ATOM      4  C   UNL     1       5.752   6.013  17.680  0.00  0.00    +0.000 A 
ATOM      5  C   UNL     1       6.115   6.085  19.040  0.00  0.00    +0.000 A 
ATOM      6  C   UNL     1       7.255   5.425  19.497  0.00  0.00    +0.000 A 
ATOM      7  C   UNL     1       8.037   4.687  18.620  0.00  0.00    +0.000 A 
ATOM      8  C   UNL     1       7.715   4.604  17.260  0.00  0.00    +0.000 A 
ATOM      9  C   UNL     1       6.573   5.289  16.808  0.00  0.00    +0.000 A 
ENDROOT
BRANCH   3  10
ATOM     10  C   UNL     1       3.534   7.328  17.486  0.00  0.00    +0.000 C 
ATOM     11  O   UNL     1       3.361   8.503  17.168  0.00  0.00    +0.000 OA
BRANCH  10  12
ATOM     12  C   UNL     1       2.520   6.691  18.376  0.00  0.00    +0.000 A 
ATOM     13  C   UNL     1       2.271   7.158  19.676  0.00  0.00    +0.000 A 
ATOM     14  C   UNL     1       1.817   6.276  20.660  0.00  0.00    +0.000 A 
ATOM     15  C   UNL     1       1.596   4.964  20.277  0.00  0.00    +0.000 A 
ATOM     16  C   UNL     1       1.515   4.617  18.919  0.00  0.00    +0.000 A 
ATOM     17  C   UNL     1       2.003   5.466  17.948  0.00  0.00    +0.000 A 
ATOM     18  C   UNL     1       1.371   3.136  18.789  0.00  0.00    +0.000 C 
ATOM     19  C   UNL     1       2.319   2.744  19.933  0.00  0.00    +0.000 C 
ATOM     20  C   UNL     1       3.818   3.040  19.559  0.00  0.00    +0.000 C 
ATOM     21  C   UNL     1       2.229   1.238  20.162  0.00  0.00    +0.000 C 
ATOM     22  C   UNL     1       1.856   3.695  21.085  0.00  0.00    +0.000 C 
ENDBRANCH  10  12
ENDBRANCH   3  10
BRANCH   1  23
ATOM     23  C   UNL     1       6.622   4.908  14.319  0.00  0.00    +0.000 C 
BRANCH  23  24
ATOM     24  C   UNL     1       5.749   3.845  13.653  0.00  0.00    +0.000 C 
BRANCH  24  25
ATOM     25  C   UNL     1       6.329   3.420  12.302  0.00  0.00    +0.000 C 
BRANCH  25  27
ATOM     26  C   UNL     1       4.092   3.125  11.189  0.00  0.00    +0.000 C 
ATOM     27  C   UNL     1       5.318   2.667  11.484  0.00  0.00    +0.000 C 
ENDBRANCH  25  27
ENDBRANCH  24  25
ENDBRANCH  23  24
ENDBRANCH   1  23
TORSDOF 6
ENDMDL
MODEL 2
REMARK VINA RESULT:      -7.2      3.887      6.903
REMARK  Name = 
REMARK  8 active torsions:
REMARK  status: ('A' for Active; 'I' for Inactive)
REMARK    1  A    between atoms: C_2  and  C_3
REMARK    2  A    between atoms: C_3  and  C_4
REMARK    3  A    between atoms: C_4  and  C_5
REMARK    4  A    between atoms: C_5  and  N_6
REMARK    5  A    between atoms: C_8  and  C_9
REMARK    6  A    between atoms: C_9  and  C_11
REMARK    7  A    between atoms: C_18  and  C_19
REMARK    8  A    between atoms: C_18  and  C_20
REMARK                            x       y       z     vdW  Elec       q    Type
REMARK                         _______ _______ _______ _____ _____    ______ ____
ROOT
ATOM      1  N   UNL     1       2.610   5.728  20.040  0.00  0.00    +0.000 N 
ATOM      2  C   UNL     1       1.878   6.871  19.824  0.00  0.00    +0.000 A 
ATOM      3  C   UNL     1       2.416   7.562  18.750  0.00  0.00    +0.000 A 
ATOM      4  C   UNL     1       3.471   6.738  18.247  0.00  0.00    +0.000 A 
ATOM      5  C   UNL     1       4.345   6.850  17.147  0.00  0.00    +0.000 A 
ATOM      6  C   UNL     1       5.332   5.888  16.935  0.00  0.00    +0.000 A 
ATOM      7  C   UNL     1       5.466   4.817  17.807  0.00  0.00    +0.000 A 
ATOM      8  C   UNL     1       4.608   4.665  18.902  0.00  0.00    +0.000 A 
ATOM      9  C   UNL     1       3.605   5.633  19.095  0.00  0.00    +0.000 A 
ENDROOT
BRANCH   3  10
ATOM     10  C   UNL     1       1.970   8.841  18.155  0.00  0.00    +0.000 C 
ATOM     11  O   UNL     1       2.480   9.294  17.132  0.00  0.00    +0.000 OA
BRANCH  10  12
ATOM     12  C   UNL     1       0.801   9.568  18.731  0.00  0.00    +0.000 A 
ATOM     13  C   UNL     1      -0.416   9.687  18.041  0.00  0.00    +0.000 A 
ATOM     14  C   UNL     1      -1.242  10.792  18.267  0.00  0.00    +0.000 A 
ATOM     15  C   UNL     1      -0.820  11.712  19.212  0.00  0.00    +0.000 A 
ATOM     16  C   UNL     1       0.202  11.390  20.121  0.00  0.00    +0.000 A 
ATOM     17  C   UNL     1       1.047  10.327  19.878  0.00  0.00    +0.000 A 
ATOM     18  C   UNL     1       0.524  12.586  20.954  0.00  0.00    +0.000 C 
ATOM     19  C   UNL     1       0.375  13.644  19.850  0.00  0.00    +0.000 C 
ATOM     20  C   UNL     1       1.550  13.549  18.807  0.00  0.00    +0.000 C 
ATOM     21  C   UNL     1       0.474  15.033  20.473  0.00  0.00    +0.000 C 
ATOM     22  C   UNL     1      -0.974  13.229  19.177  0.00  0.00    +0.000 C 
ENDBRANCH  10  12
ENDBRANCH   3  10
BRANCH   1  23
ATOM     23  C   UNL     1       2.318   4.739  21.067  0.00  0.00    +0.000 C 
BRANCH  23  24
ATOM     24  C   UNL     1       1.177   3.802  20.672  0.00  0.00    +0.000 C 
BRANCH  24  25
ATOM     25  C   UNL     1       1.714   2.469  20.145  0.00  0.00    +0.000 C 
BRANCH  25  27
ATOM     26  C   UNL     1       2.361   2.316  17.718  0.00  0.00    +0.000 C 
ATOM     27  C   UNL     1       1.425   2.302  18.680  0.00  0.00    +0.000 C 
ENDBRANCH  25  27
ENDBRANCH  24  25
ENDBRANCH  23  24
ENDBRANCH   1  23
TORSDOF 6
ENDMDL
MODEL 3
REMARK VINA RESULT:      -7.1      4.318      7.266
REMARK  Name = 
REMARK  8 active torsions:
REMARK  status: ('A' for Active; 'I' for Inactive)
REMARK    1  A    between atoms: C_2  and  C_3
REMARK    2  A    between atoms: C_3  and  C_4
REMARK    3  A    between atoms: C_4  and  C_5
REMARK    4  A    between atoms: C_5  and  N_6
REMARK    5  A    between atoms: C_8  and  C_9
REMARK    6  A    between atoms: C_9  and  C_11
REMARK    7  A    between atoms: C_18  and  C_19
REMARK    8  A    between atoms: C_18  and  C_20
REMARK                            x       y       z     vdW  Elec       q    Type
REMARK                         _______ _______ _______ _____ _____    ______ ____
ROOT
ATOM      1  N   UNL     1       2.273   5.676  20.530  0.00  0.00    +0.000 N 
ATOM      2  C   UNL     1       1.447   6.738  20.810  0.00  0.00    +0.000 A 
ATOM      3  C   UNL     1       1.697   7.761  19.908  0.00  0.00    +0.000 A 
ATOM      4  C   UNL     1       2.662   7.241  18.990  0.00  0.00    +0.000 A 
ATOM      5  C   UNL     1       3.266   7.760  17.827  0.00  0.00    +0.000 A 
ATOM      6  C   UNL     1       4.237   7.019  17.153  0.00  0.00    +0.000 A 
ATOM      7  C   UNL     1       4.619   5.771  17.622  0.00  0.00    +0.000 A 
ATOM      8  C   UNL     1       4.031   5.218  18.766  0.00  0.00    +0.000 A 
ATOM      9  C   UNL     1       3.041   5.967  19.427  0.00  0.00    +0.000 A 
ENDROOT
BRANCH   3  10
ATOM     10  C   UNL     1       1.059   9.093  19.820  0.00  0.00    +0.000 C 
ATOM     11  O   UNL     1       0.722   9.580  18.743  0.00  0.00    +0.000 OA
BRANCH  10  12
ATOM     12  C   UNL     1       0.709   9.840  21.063  0.00  0.00    +0.000 A 
ATOM     13  C   UNL     1       0.123   9.209  22.172  0.00  0.00    +0.000 A 
ATOM     14  C   UNL     1      -0.710   9.934  23.029  0.00  0.00    +0.000 A 
ATOM     15  C   UNL     1      -0.883  11.279  22.750  0.00  0.00    +0.000 A 
ATOM     16  C   UNL     1      -0.022  11.946  21.864  0.00  0.00    +0.000 A 
ATOM     17  C   UNL     1       0.769  11.234  20.986  0.00  0.00    +0.000 A 
ATOM     18  C   UNL     1      -0.491  13.349  21.671  0.00  0.00    +0.000 C 
ATOM     19  C   UNL     1      -2.000  13.056  21.670  0.00  0.00    +0.000 C 
ATOM     20  C   UNL     1      -2.433  12.299  20.360  0.00  0.00    +0.000 C 
ATOM     21  C   UNL     1      -2.765  14.375  21.670  0.00  0.00    +0.000 C 
ATOM     22  C   UNL     1      -2.152  12.112  22.908  0.00  0.00    +0.000 C 
ENDBRANCH  10  12
ENDBRANCH   3  10
BRANCH   1  23
ATOM     23  C   UNL     1       2.269   4.411  21.252  0.00  0.00    +0.000 C 
BRANCH  23  24
ATOM     24  C   UNL     1       1.149   3.478  20.793  0.00  0.00    +0.000 C 
BRANCH  24  25
ATOM     25  C   UNL     1       1.707   2.301  19.988  0.00  0.00    +0.000 C 
BRANCH  25  27
ATOM     26  C   UNL     1       2.461   2.269  17.588  0.00  0.00    +0.000 C 
ATOM     27  C   UNL     1       1.518   2.508  18.512  0.00  0.00    +0.000 C 
ENDBRANCH  25  27
ENDBRANCH  24  25
ENDBRANCH  23  24
ENDBRANCH   1  23
TORSDOF 6
ENDMDL
MODEL 4
REMARK VINA RESULT:      -7.0      3.275      5.507
REMARK  Name = 
REMARK  8 active torsions:
REMARK  status: ('A' for Active; 'I' for Inactive)
REMARK    1  A    between atoms: C_2  and  C_3
REMARK    2  A    between atoms: C_3  and  C_4
REMARK    3  A    between atoms: C_4  and  C_5
REMARK    4  A    between atoms: C_5  and  N_6
REMARK    5  A    between atoms: C_8  and  C_9
REMARK    6  A    between atoms: C_9  and  C_11
REMARK    7  A    between atoms: C_18  and  C_19
REMARK    8  A    between atoms: C_18  and  C_20
REMARK                            x       y       z     vdW  Elec       q    Type
REMARK                         _______ _______ _______ _____ _____    ______ ____
ROOT
ATOM      1  N   UNL     1       4.540   5.582  17.186  0.00  0.00    +0.000 N 
ATOM      2  C   UNL     1       4.177   6.780  17.753  0.00  0.00    +0.000 A 
ATOM      3  C   UNL     1       2.961   6.630  18.400  0.00  0.00    +0.000 A 
ATOM      4  C   UNL     1       2.629   5.244  18.284  0.00  0.00    +0.000 A 
ATOM      5  C   UNL     1       1.566   4.460  18.778  0.00  0.00    +0.000 A 
ATOM      6  C   UNL     1       1.480   3.108  18.447  0.00  0.00    +0.000 A 
ATOM      7  C   UNL     1       2.434   2.525  17.626  0.00  0.00    +0.000 A 
ATOM      8  C   UNL     1       3.511   3.269  17.128  0.00  0.00    +0.000 A 
ATOM      9  C   UNL     1       3.596   4.627  17.483  0.00  0.00    +0.000 A 
ENDROOT
BRANCH   3  10
ATOM     10  C   UNL     1       2.178   7.640  19.145  0.00  0.00    +0.000 C 
ATOM     11  O   UNL     1       1.993   7.552  20.358  0.00  0.00    +0.000 OA
BRANCH  10  12
ATOM     12  C   UNL     1       1.678   8.862  18.451  0.00  0.00    +0.000 A 
ATOM     13  C   UNL     1       2.524   9.936  18.130  0.00  0.00    +0.000 A 
ATOM     14  C   UNL     1       2.008  11.232  18.050  0.00  0.00    +0.000 A 
ATOM     15  C   UNL     1       0.647  11.383  18.258  0.00  0.00    +0.000 A 
ATOM     16  C   UNL     1      -0.211  10.272  18.225  0.00  0.00    +0.000 A 
ATOM     17  C   UNL     1       0.291   8.993  18.349  0.00  0.00    +0.000 A 
ATOM     18  C   UNL     1      -1.597  10.701  18.576  0.00  0.00    +0.000 C 
ATOM     19  C   UNL     1      -1.220  11.723  19.660  0.00  0.00    +0.000 C 
ATOM     20  C   UNL     1      -0.677  11.008  20.953  0.00  0.00    +0.000 C 
ATOM     21  C   UNL     1      -2.473  12.480  20.090  0.00  0.00    +0.000 C 
ATOM     22  C   UNL     1      -0.070  12.526  18.969  0.00  0.00    +0.000 C 
ENDBRANCH  10  12
ENDBRANCH   3  10
BRANCH   1  23
ATOM     23  C   UNL     1       5.776   5.354  16.451  0.00  0.00    +0.000 C 
BRANCH  23  24
ATOM     24  C   UNL     1       5.563   5.330  14.938  0.00  0.00    +0.000 C 
BRANCH  24  25
ATOM     25  C   UNL     1       6.061   4.017  14.330  0.00  0.00    +0.000 C 
BRANCH  25  27
ATOM     26  C   UNL     1       5.978   2.866  12.094  0.00  0.00    +0.000 C 
ATOM     27  C   UNL     1       5.583   3.851  12.916  0.00  0.00    +0.000 C 
ENDBRANCH  25  27
ENDBRANCH  24  25
ENDBRANCH  23  24
ENDBRANCH   1  23
TORSDOF 6
ENDMDL
MODEL 5
REMARK VINA RESULT:      -7.0      3.107      7.757
REMARK  Name = 
REMARK  8 active torsions:
REMARK  status: ('A' for Active; 'I' for Inactive)
REMARK    1  A    between atoms: C_2  and  C_3
REMARK    2  A    between atoms: C_3  and  C_4
REMARK    3  A    between atoms: C_4  and  C_5
REMARK    4  A    between atoms: C_5  and  N_6
REMARK    5  A    between atoms: C_8  and  C_9
REMARK    6  A    between atoms: C_9  and  C_11
REMARK    7  A    between atoms: C_18  and  C_19
REMARK    8  A    between atoms: C_18  and  C_20
REMARK                            x       y       z     vdW  Elec       q    Type
REMARK                         _______ _______ _______ _____ _____    ______ ____
ROOT
ATOM      1  N   UNL     1       1.334   7.943  21.035  0.00  0.00    +0.000 N 
ATOM      2  C   UNL     1       1.568   6.592  20.934  0.00  0.00    +0.000 A 
ATOM      3  C   UNL     1       1.972   6.294  19.643  0.00  0.00    +0.000 A 
ATOM      4  C   UNL     1       2.067   7.550  18.966  0.00  0.00    +0.000 A 
ATOM      5  C   UNL     1       2.480   7.920  17.670  0.00  0.00    +0.000 A 
ATOM      6  C   UNL     1       2.412   9.254  17.268  0.00  0.00    +0.000 A 
ATOM      7  C   UNL     1       1.933  10.225  18.135  0.00  0.00    +0.000 A 
ATOM      8  C   UNL     1       1.527   9.896  19.435  0.00  0.00    +0.000 A 
ATOM      9  C   UNL     1       1.617   8.550  19.834  0.00  0.00    +0.000 A 
ENDROOT
BRANCH   3  10
ATOM     10  C   UNL     1       2.329   4.979  19.065  0.00  0.00    +0.000 C 
ATOM     11  O   UNL     1       1.474   4.200  18.647  0.00  0.00    +0.000 OA
BRANCH  10  12
ATOM     12  C   UNL     1       3.762   4.607  18.877  0.00  0.00    +0.000 A 
ATOM     13  C   UNL     1       4.784   5.159  19.666  0.00  0.00    +0.000 A 
ATOM     14  C   UNL     1       6.075   5.288  19.145  0.00  0.00    +0.000 A 
ATOM     15  C   UNL     1       6.286   4.817  17.860  0.00  0.00    +0.000 A 
ATOM     16  C   UNL     1       5.353   3.967  17.245  0.00  0.00    +0.000 A 
ATOM     17  C   UNL     1       4.065   3.871  17.729  0.00  0.00    +0.000 A 
ATOM     18  C   UNL     1       5.778   3.693  15.840  0.00  0.00    +0.000 C 
ATOM     19  C   UNL     1       6.314   5.097  15.517  0.00  0.00    +0.000 C 
ATOM     20  C   UNL     1       5.143   6.140  15.391  0.00  0.00    +0.000 C 
ATOM     21  C   UNL     1       7.003   5.067  14.156  0.00  0.00    +0.000 C 
ATOM     22  C   UNL     1       7.182   5.415  16.779  0.00  0.00    +0.000 C 
ENDBRANCH  10  12
ENDBRANCH   3  10
BRANCH   1  23
ATOM     23  C   UNL     1       0.925   8.624  22.255  0.00  0.00    +0.000 C 
BRANCH  23  24
ATOM     24  C   UNL     1      -0.537   9.068  22.216  0.00  0.00    +0.000 C 
BRANCH  24  25
ATOM     25  C   UNL     1      -0.786  10.231  23.179  0.00  0.00    +0.000 C 
BRANCH  25  27
ATOM     26  C   UNL     1      -1.184  11.736  21.202  0.00  0.00    +0.000 C 
ATOM     27  C   UNL     1      -0.761  11.551  22.463  0.00  0.00    +0.000 C 
ENDBRANCH  25  27
ENDBRANCH  24  25
ENDBRANCH  23  24
ENDBRANCH   1  23
TORSDOF 6
ENDMDL
MODEL 6
REMARK VINA RESULT:      -6.9      3.259      6.128
REMARK  Name = 
REMARK  8 active torsions:
REMARK  status: ('A' for Active; 'I' for Inactive)
REMARK    1  A    between atoms: C_2  and  C_3
REMARK    2  A    between atoms: C_3  and  C_4
REMARK    3  A    between atoms: C_4  and  C_5
REMARK    4  A    between atoms: C_5  and  N_6
REMARK    5  A    between atoms: C_8  and  C_9
REMARK    6  A    between atoms: C_9  and  C_11
REMARK    7  A    between atoms: C_18  and  C_19
REMARK    8  A    between atoms: C_18  and  C_20
REMARK                            x       y       z     vdW  Elec       q    Type
REMARK                         _______ _______ _______ _____ _____    ______ ____
ROOT
ATOM      1  N   UNL     1       4.793   6.200  17.331  0.00  0.00    +0.000 N 
ATOM      2  C   UNL     1       4.221   7.430  17.554  0.00  0.00    +0.000 A 
ATOM      3  C   UNL     1       2.870   7.266  17.813  0.00  0.00    +0.000 A 
ATOM      4  C   UNL     1       2.647   5.853  17.831  0.00  0.00    +0.000 A 
ATOM      5  C   UNL     1       1.515   5.057  18.098  0.00  0.00    +0.000 A 
ATOM      6  C   UNL     1       1.593   3.669  17.985  0.00  0.00    +0.000 A 
ATOM      7  C   UNL     1       2.781   3.062  17.604  0.00  0.00    +0.000 A 
ATOM      8  C   UNL     1       3.929   3.820  17.344  0.00  0.00    +0.000 A 
ATOM      9  C   UNL     1       3.843   5.217  17.479  0.00  0.00    +0.000 A 
ENDROOT
BRANCH   3  10
ATOM     10  C   UNL     1       1.852   8.298  18.105  0.00  0.00    +0.000 C 
ATOM     11  O   UNL     1       1.014   8.638  17.271  0.00  0.00    +0.000 OA
BRANCH  10  12
ATOM     12  C   UNL     1       1.748   8.884  19.474  0.00  0.00    +0.000 A 
ATOM     13  C   UNL     1       1.474   8.094  20.602  0.00  0.00    +0.000 A 
ATOM     14  C   UNL     1       0.815   8.652  21.701  0.00  0.00    +0.000 A 
ATOM     15  C   UNL     1       0.495   9.997  21.628  0.00  0.00    +0.000 A 
ATOM     16  C   UNL     1       1.086  10.824  20.659  0.00  0.00    +0.000 A 
ATOM     17  C   UNL     1       1.698  10.277  19.550  0.00  0.00    +0.000 A 
ATOM     18  C   UNL     1       0.494  12.192  20.741  0.00  0.00    +0.000 C 
ATOM     19  C   UNL     1      -0.953  11.765  21.038  0.00  0.00    +0.000 C 
ATOM     20  C   UNL     1      -1.624  11.108  19.776  0.00  0.00    +0.000 C 
ATOM     21  C   UNL     1      -1.781  13.004  21.362  0.00  0.00    +0.000 C 
ATOM     22  C   UNL     1      -0.754  10.693  22.160  0.00  0.00    +0.000 C 
ENDBRANCH  10  12
ENDBRANCH   3  10
BRANCH   1  23
ATOM     23  C   UNL     1       6.206   5.980  17.059  0.00  0.00    +0.000 C 
BRANCH  23  24
ATOM     24  C   UNL     1       7.003   5.656  18.322  0.00  0.00    +0.000 C 
BRANCH  24  25
ATOM     25  C   UNL     1       8.016   6.761  18.635  0.00  0.00    +0.000 C 
BRANCH  25  27
ATOM     26  C   UNL     1       8.325   9.175  17.998  0.00  0.00    +0.000 C 
ATOM     27  C   UNL     1       7.807   7.961  17.756  0.00  0.00    +0.000 C 
ENDBRANCH  25  27
ENDBRANCH  24  25
ENDBRANCH  23  24
ENDBRANCH   1  23
TORSDOF 6
ENDMDL
MODEL 7
REMARK VINA RESULT:      -6.9      3.006      5.585
REMARK  Name = 
REMARK  8 active torsions:
REMARK  status: ('A' for Active; 'I' for Inactive)
REMARK    1  A    between atoms: C_2  and  C_3
REMARK    2  A    between atoms: C_3  and  C_4
REMARK    3  A    between atoms: C_4  and  C_5
REMARK    4  A    between atoms: C_5  and  N_6
REMARK    5  A    between atoms: C_8  and  C_9
REMARK    6  A    between atoms: C_9  and  C_11
REMARK    7  A    between atoms: C_18  and  C_19
REMARK    8  A    between atoms: C_18  and  C_20
REMARK                            x       y       z     vdW  Elec       q    Type
REMARK                         _______ _______ _______ _____ _____    ______ ____
ROOT
ATOM      1  N   UNL     1       4.994   5.283  18.754  0.00  0.00    +0.000 N 
ATOM      2  C   UNL     1       4.452   6.545  18.713  0.00  0.00    +0.000 A 
ATOM      3  C   UNL     1       3.105   6.455  18.401  0.00  0.00    +0.000 A 
ATOM      4  C   UNL     1       2.815   5.056  18.338  0.00  0.00    +0.000 A 
ATOM      5  C   UNL     1       1.628   4.324  18.128  0.00  0.00    +0.000 A 
ATOM      6  C   UNL     1       1.666   2.931  18.068  0.00  0.00    +0.000 A 
ATOM      7  C   UNL     1       2.870   2.255  18.209  0.00  0.00    +0.000 A 
ATOM      8  C   UNL     1       4.066   2.948  18.434  0.00  0.00    +0.000 A 
ATOM      9  C   UNL     1       4.012   4.352  18.509  0.00  0.00    +0.000 A 
ENDROOT
BRANCH   3  10
ATOM     10  C   UNL     1       2.117   7.544  18.243  0.00  0.00    +0.000 C 
ATOM     11  O   UNL     1       1.419   7.646  17.236  0.00  0.00    +0.000 OA
BRANCH  10  12
ATOM     12  C   UNL     1       1.865   8.496  19.364  0.00  0.00    +0.000 A 
ATOM     13  C   UNL     1       1.539   8.054  20.657  0.00  0.00    +0.000 A 
ATOM     14  C   UNL     1       0.759   8.858  21.493  0.00  0.00    +0.000 A 
ATOM     15  C   UNL     1       0.373  10.093  21.000  0.00  0.00    +0.000 A 
ATOM     16  C   UNL     1       0.998  10.641  19.869  0.00  0.00    +0.000 A 
ATOM     17  C   UNL     1       1.732   9.842  19.017  0.00  0.00    +0.000 A 
ATOM     18  C   UNL     1       0.327  11.923  19.499  0.00  0.00    +0.000 C 
ATOM     19  C   UNL     1      -1.113  11.491  19.816  0.00  0.00    +0.000 C 
ATOM     20  C   UNL     1      -1.638  10.441  18.767  0.00  0.00    +0.000 C 
ATOM     21  C   UNL     1      -2.034  12.702  19.700  0.00  0.00    +0.000 C 
ATOM     22  C   UNL     1      -0.953  10.815  21.217  0.00  0.00    +0.000 C 
ENDBRANCH  10  12
ENDBRANCH   3  10
BRANCH   1  23
ATOM     23  C   UNL     1       6.381   4.986  19.083  0.00  0.00    +0.000 C 
BRANCH  23  24
ATOM     24  C   UNL     1       7.353   5.452  17.999  0.00  0.00    +0.000 C 
BRANCH  24  25
ATOM     25  C   UNL     1       7.328   4.510  16.793  0.00  0.00    +0.000 C 
BRANCH  25  27
ATOM     26  C   UNL     1       5.494   4.494  15.071  0.00  0.00    +0.000 C 
ATOM     27  C   UNL     1       6.542   5.095  15.656  0.00  0.00    +0.000 C 
ENDBRANCH  25  27
ENDBRANCH  24  25
ENDBRANCH  23  24
ENDBRANCH   1  23
TORSDOF 6
ENDMDL
MODEL 8
REMARK VINA RESULT:      -6.9      2.477      4.514
REMARK  Name = 
REMARK  8 active torsions:
REMARK  status: ('A' for Active; 'I' for Inactive)
REMARK    1  A    between atoms: C_2  and  C_3
REMARK    2  A    between atoms: C_3  and  C_4
REMARK    3  A    between atoms: C_4  and  C_5
REMARK    4  A    between atoms: C_5  and  N_6
REMARK    5  A    between atoms: C_8  and  C_9
REMARK    6  A    between atoms: C_9  and  C_11
REMARK    7  A    between atoms: C_18  and  C_19
REMARK    8  A    between atoms: C_18  and  C_20
REMARK                            x       y       z     vdW  Elec       q    Type
REMARK                         _______ _______ _______ _____ _____    ______ ____
ROOT
ATOM      1  N   UNL     1       6.792   7.295  17.497  0.00  0.00    +0.000 N 
ATOM      2  C   UNL     1       5.624   7.832  17.985  0.00  0.00    +0.000 A 
ATOM      3  C   UNL     1       4.547   7.135  17.460  0.00  0.00    +0.000 A 
ATOM      4  C   UNL     1       5.112   6.073  16.687  0.00  0.00    +0.000 A 
ATOM      5  C   UNL     1       4.551   4.999  15.967  0.00  0.00    +0.000 A 
ATOM      6  C   UNL     1       5.374   4.131  15.251  0.00  0.00    +0.000 A 
ATOM      7  C   UNL     1       6.749   4.319  15.236  0.00  0.00    +0.000 A 
ATOM      8  C   UNL     1       7.342   5.367  15.951  0.00  0.00    +0.000 A 
ATOM      9  C   UNL     1       6.502   6.225  16.684  0.00  0.00    +0.000 A 
ENDROOT
BRANCH   3  10
ATOM     10  C   UNL     1       3.103   7.352  17.694  0.00  0.00    +0.000 C 
ATOM     11  O   UNL     1       2.495   8.289  17.178  0.00  0.00    +0.000 OA
BRANCH  10  12
ATOM     12  C   UNL     1       2.315   6.364  18.488  0.00  0.00    +0.000 A 
ATOM     13  C   UNL     1       2.092   6.525  19.865  0.00  0.00    +0.000 A 
ATOM     14  C   UNL     1       1.907   5.402  20.678  0.00  0.00    +0.000 A 
ATOM     15  C   UNL     1       1.918   4.165  20.056  0.00  0.00    +0.000 A 
ATOM     16  C   UNL     1       1.790   4.062  18.661  0.00  0.00    +0.000 A 
ATOM     17  C   UNL     1       2.015   5.157  17.853  0.00  0.00    +0.000 A 
ATOM     18  C   UNL     1       1.931   2.633  18.251  0.00  0.00    +0.000 C 
ATOM     19  C   UNL     1       3.033   2.247  19.251  0.00  0.00    +0.000 C 
ATOM     20  C   UNL     1       4.406   2.916  18.872  0.00  0.00    +0.000 C 
ATOM     21  C   UNL     1       3.262   0.741  19.184  0.00  0.00    +0.000 C 
ATOM     22  C   UNL     1       2.492   2.855  20.587  0.00  0.00    +0.000 C 
ENDBRANCH  10  12
ENDBRANCH   3  10
BRANCH   1  23
ATOM     23  C   UNL     1       8.127   7.752  17.856  0.00  0.00    +0.000 C 
BRANCH  23  24
ATOM     24  C   UNL     1       8.261   9.273  17.796  0.00  0.00    +0.000 C 
BRANCH  24  25
ATOM     25  C   UNL     1       9.107   9.799  18.959  0.00  0.00    +0.000 C 
BRANCH  25  27
ATOM     26  C   UNL     1      10.510  11.559  17.834  0.00  0.00    +0.000 C 
ATOM     27  C   UNL     1       9.559  11.210  18.714  0.00  0.00    +0.000 C 
ENDBRANCH  25  27
ENDBRANCH  24  25
ENDBRANCH  23  24
ENDBRANCH   1  23
TORSDOF 6
ENDMDL
MODEL 9
REMARK VINA RESULT:      -6.8      2.887      5.283
REMARK  Name = 
REMARK  8 active torsions:
REMARK  status: ('A' for Active; 'I' for Inactive)
REMARK    1  A    between atoms: C_2  and  C_3
REMARK    2  A    between atoms: C_3  and  C_4
REMARK    3  A    between atoms: C_4  and  C_5
REMARK    4  A    between atoms: C_5  and  N_6
REMARK    5  A    between atoms: C_8  and  C_9
REMARK    6  A    between atoms: C_9  and  C_11
REMARK    7  A    between atoms: C_18  and  C_19
REMARK    8  A    between atoms: C_18  and  C_20
REMARK                            x       y       z     vdW  Elec       q    Type
REMARK                         _______ _______ _______ _____ _____    ______ ____
ROOT
ATOM      1  N   UNL     1       5.118   5.103  18.373  0.00  0.00    +0.000 N 
ATOM      2  C   UNL     1       4.516   6.277  17.984  0.00  0.00    +0.000 A 
ATOM      3  C   UNL     1       3.196   6.273  18.405  0.00  0.00    +0.000 A 
ATOM      4  C   UNL     1       3.032   5.070  19.160  0.00  0.00    +0.000 A 
ATOM      5  C   UNL     1       1.956   4.527  19.891  0.00  0.00    +0.000 A 
ATOM      6  C   UNL     1       2.080   3.276  20.496  0.00  0.00    +0.000 A 
ATOM      7  C   UNL     1       3.259   2.554  20.378  0.00  0.00    +0.000 A 
ATOM      8  C   UNL     1       4.354   3.068  19.671  0.00  0.00    +0.000 A 
ATOM      9  C   UNL     1       4.222   4.338  19.081  0.00  0.00    +0.000 A 
ENDROOT
BRANCH   3  10
ATOM     10  C   UNL     1       2.161   7.314  18.215  0.00  0.00    +0.000 C 
ATOM     11  O   UNL     1       1.401   7.305  17.249  0.00  0.00    +0.000 OA
BRANCH  10  12
ATOM     12  C   UNL     1       1.944   8.355  19.262  0.00  0.00    +0.000 A 
ATOM     13  C   UNL     1       1.667   8.021  20.598  0.00  0.00    +0.000 A 
ATOM     14  C   UNL     1       0.912   8.888  21.392  0.00  0.00    +0.000 A 
ATOM     15  C   UNL     1       0.501  10.077  20.813  0.00  0.00    +0.000 A 
ATOM     16  C   UNL     1       1.082  10.532  19.618  0.00  0.00    +0.000 A 
ATOM     17  C   UNL     1       1.790   9.667  18.809  0.00  0.00    +0.000 A 
ATOM     18  C   UNL     1       0.391  11.776  19.168  0.00  0.00    +0.000 C 
ATOM     19  C   UNL     1      -1.035  11.368  19.570  0.00  0.00    +0.000 C 
ATOM     20  C   UNL     1      -1.590  10.233  18.632  0.00  0.00    +0.000 C 
ATOM     21  C   UNL     1      -1.966  12.562  19.388  0.00  0.00    +0.000 C 
ATOM     22  C   UNL     1      -0.821  10.810  21.016  0.00  0.00    +0.000 C 
ENDBRANCH  10  12
ENDBRANCH   3  10
BRANCH   1  23
ATOM     23  C   UNL     1       6.514   4.770  18.131  0.00  0.00    +0.000 C 
BRANCH  23  24
ATOM     24  C   UNL     1       6.926   4.990  16.676  0.00  0.00    +0.000 C 
BRANCH  24  25
ATOM     25  C   UNL     1       6.244   3.980  15.750  0.00  0.00    +0.000 C 
BRANCH  25  27
ATOM     26  C   UNL     1       5.873   3.741  13.273  0.00  0.00    +0.000 C 
ATOM     27  C   UNL     1       6.546   4.269  14.307  0.00  0.00    +0.000 C 
ENDBRANCH  25  27
ENDBRANCH  24  25
ENDBRANCH  23  24
ENDBRANCH   1  23
TORSDOF 6
ENDMDL
