MODEL 1
REMARK VINA RESULT:      -8.5      0.000      0.000
REMARK  Name = 
REMARK  10 active torsions:
REMARK  status: ('A' for Active; 'I' for Inactive)
REMARK    1  A    between atoms: C_1  and  C_2
REMARK    2  A    between atoms: C_2  and  O_3
REMARK    3  A    between atoms: O_3  and  C_4
REMARK    4  A    between atoms: C_4  and  C_5
REMARK    5  A    between atoms: C_5  and  C_6
REMARK    6  A    between atoms: C_6  and  O_7
REMARK    7  A    between atoms: O_7  and  C_8
REMARK    8  A    between atoms: C_11  and  O_12
REMARK    9  A    between atoms: O_12  and  C_13
REMARK   10  A    between atoms: C_16  and  C_17
REMARK                            x       y       z     vdW  Elec       q    Type
REMARK                         _______ _______ _______ _____ _____    ______ ____
ROOT
ATOM      1  C   UNL     1       3.689   5.070  18.637  0.00  0.00    +0.000 C 
ATOM      2  C   UNL     1       4.896   4.274  19.136  0.00  0.00    +0.000 C 
ATOM      3  O   UNL     1       5.889   4.789  19.649  0.00  0.00    +0.000 OA
ATOM      4  N   UNL     1       4.857   2.916  18.976  0.00  0.00    +0.000 N 
ATOM      5  C   UNL     1       3.788   2.177  18.578  0.00  0.00    +0.000 C 
ATOM      6  O   UNL     1       3.777   0.956  18.695  0.00  0.00    +0.000 OA
ATOM      7  N   UNL     1       2.718   2.855  18.092  0.00  0.00    +0.000 N 
ATOM      8  C   UNL     1       2.538   4.211  18.085  0.00  0.00    +0.000 C 
ATOM      9  O   UNL     1       1.490   4.682  17.646  0.00  0.00    +0.000 OA
ATOM     10  H   UNL     1       5.643   2.404  19.358  0.00  0.00    +0.000 HD
ATOM     11  H   UNL     1       1.920   2.303  17.806  0.00  0.00    +0.000 HD
ENDROOT
BRANCH   1  12
ATOM     12  C   UNL     1       4.192   5.928  17.443  0.00  0.00    +0.000 C 
BRANCH  12  13
ATOM     13  C   UNL     1       4.952   5.088  16.411  0.00  0.00    +0.000 C 
BRANCH  13  14
ATOM     14  O   UNL     1       6.191   5.698  16.067  0.00  0.00    +0.000 OA
BRANCH  14  16
ATOM     15  C   UNL     1       6.026   4.010  14.367  0.00  0.00    +0.000 C 
ATOM     16  C   UNL     1       6.960   4.820  15.239  0.00  0.00    +0.000 C 
ENDBRANCH  14  16
ENDBRANCH  13  14
ENDBRANCH  12  13
ENDBRANCH   1  12
BRANCH   1  17
ATOM     17  O   UNL     1       3.272   5.970  19.682  0.00  0.00    +0.000 OA
BRANCH  17  18
ATOM     18  C   UNL     1       2.613   7.111  19.297  0.00  0.00    +0.000 A 
ATOM     19  C   UNL     1       2.749   7.732  18.053  0.00  0.00    +0.000 A 
ATOM     20  C   UNL     1       2.151   8.968  17.807  0.00  0.00    +0.000 A 
ATOM     21  C   UNL     1       1.332   9.542  18.771  0.00  0.00    +0.000 A 
ATOM     22  C   UNL     1       1.159   8.910  20.006  0.00  0.00    +0.000 A 
ATOM     23  C   UNL     1       1.779   7.683  20.257  0.00  0.00    +0.000 A 
BRANCH  21  24
ATOM     24  O   UNL     1       0.764  10.748  18.441  0.00  0.00    +0.000 OA
BRANCH  24  25
ATOM     25  C   UNL     1      -0.608  10.851  18.414  0.00  0.00    +0.000 A 
ATOM     26  C   UNL     1      -1.266   9.954  17.570  0.00  0.00    +0.000 A 
ATOM     27  C   UNL     1      -2.654  10.006  17.441  0.00  0.00    +0.000 A 
ATOM     28  C   UNL     1      -3.386  10.954  18.162  0.00  0.00    +0.000 A 
ATOM     29  C   UNL     1      -2.732  11.825  19.038  0.00  0.00    +0.000 A 
ATOM     30  C   UNL     1      -1.347  11.752  19.186  0.00  0.00    +0.000 A 
BRANCH  28  31
ATOM     31  C   UNL     1      -4.806  11.038  18.005  0.00  0.00    +0.000 C 
ATOM     32  N   UNL     1      -5.959  11.100  17.872  0.00  0.00    +0.000 NA
ENDBRANCH  28  31
ENDBRANCH  24  25
ENDBRANCH  21  24
ENDBRANCH  17  18
ENDBRANCH   1  17
TORSDOF 9
ENDMDL
MODEL 2
REMARK VINA RESULT:      -8.5      0.805      1.366
REMARK  Name = 
REMARK  10 active torsions:
REMARK  status: ('A' for Active; 'I' for Inactive)
REMARK    1  A    between atoms: C_1  and  C_2
REMARK    2  A    between atoms: C_2  and  O_3
REMARK    3  A    between atoms: O_3  and  C_4
REMARK    4  A    between atoms: C_4  and  C_5
REMARK    5  A    between atoms: C_5  and  C_6
REMARK    6  A    between atoms: C_6  and  O_7
REMARK    7  A    between atoms: O_7  and  C_8
REMARK    8  A    between atoms: C_11  and  O_12
REMARK    9  A    between atoms: O_12  and  C_13
REMARK   10  A    between atoms: C_16  and  C_17
REMARK                            x       y       z     vdW  Elec       q    Type
REMARK                         _______ _______ _______ _____ _____    ______ ____
ROOT
ATOM      1  C   UNL     1       3.667   5.110  18.719  0.00  0.00    +0.000 C 
ATOM      2  C   UNL     1       4.857   4.304  19.242  0.00  0.00    +0.000 C 
ATOM      3  O   UNL     1       5.821   4.805  19.820  0.00  0.00    +0.000 OA
ATOM      4  N   UNL     1       4.838   2.952  19.027  0.00  0.00    +0.000 N 
ATOM      5  C   UNL     1       3.795   2.222  18.552  0.00  0.00    +0.000 C 
ATOM      6  O   UNL     1       3.790   0.997  18.620  0.00  0.00    +0.000 OA
ATOM      7  N   UNL     1       2.742   2.911  18.043  0.00  0.00    +0.000 N 
ATOM      8  C   UNL     1       2.551   4.265  18.080  0.00  0.00    +0.000 C 
ATOM      9  O   UNL     1       1.520   4.745  17.611  0.00  0.00    +0.000 OA
ATOM     10  H   UNL     1       5.609   2.432  19.426  0.00  0.00    +0.000 HD
ATOM     11  H   UNL     1       1.964   2.365  17.699  0.00  0.00    +0.000 HD
ENDROOT
BRANCH   1  12
ATOM     12  C   UNL     1       4.217   6.018  17.584  0.00  0.00    +0.000 C 
BRANCH  12  13
ATOM     13  C   UNL     1       4.996   5.218  16.533  0.00  0.00    +0.000 C 
BRANCH  13  14
ATOM     14  O   UNL     1       6.381   5.539  16.568  0.00  0.00    +0.000 OA
BRANCH  14  16
ATOM     15  C   UNL     1       7.741   7.027  17.873  0.00  0.00    +0.000 C 
ATOM     16  C   UNL     1       6.560   6.910  16.936  0.00  0.00    +0.000 C 
ENDBRANCH  14  16
ENDBRANCH  13  14
ENDBRANCH  12  13
ENDBRANCH   1  12
BRANCH   1  17
ATOM     17  O   UNL     1       3.194   5.965  19.777  0.00  0.00    +0.000 OA
BRANCH  17  18
ATOM     18  C   UNL     1       2.522   7.103  19.407  0.00  0.00    +0.000 A 
ATOM     19  C   UNL     1       2.646   7.738  18.169  0.00  0.00    +0.000 A 
ATOM     20  C   UNL     1       2.034   8.970  17.938  0.00  0.00    +0.000 A 
ATOM     21  C   UNL     1       1.213   9.526  18.911  0.00  0.00    +0.000 A 
ATOM     22  C   UNL     1       1.052   8.880  20.140  0.00  0.00    +0.000 A 
ATOM     23  C   UNL     1       1.687   7.657  20.376  0.00  0.00    +0.000 A 
BRANCH  21  24
ATOM     24  O   UNL     1       0.631  10.729  18.596  0.00  0.00    +0.000 OA
BRANCH  24  25
ATOM     25  C   UNL     1      -0.725  10.772  18.367  0.00  0.00    +0.000 A 
ATOM     26  C   UNL     1      -1.425  11.759  19.063  0.00  0.00    +0.000 A 
ATOM     27  C   UNL     1      -2.811  11.858  18.930  0.00  0.00    +0.000 A 
ATOM     28  C   UNL     1      -3.496  10.969  18.096  0.00  0.00    +0.000 A 
ATOM     29  C   UNL     1      -2.790  10.008  17.367  0.00  0.00    +0.000 A 
ATOM     30  C   UNL     1      -1.402   9.930  17.480  0.00  0.00    +0.000 A 
BRANCH  28  31
ATOM     31  C   UNL     1      -4.921  11.040  17.985  0.00  0.00    +0.000 C 
ATOM     32  N   UNL     1      -6.079  11.096  17.903  0.00  0.00    +0.000 NA
ENDBRANCH  28  31
ENDBRANCH  24  25
ENDBRANCH  21  24
ENDBRANCH  17  18
ENDBRANCH   1  17
TORSDOF 9
ENDMDL
MODEL 3
REMARK VINA RESULT:      -8.4      2.210      2.787
REMARK  Name = 
REMARK  10 active torsions:
REMARK  status: ('A' for Active; 'I' for Inactive)
REMARK    1  A    between atoms: C_1  and  C_2
REMARK    2  A    between atoms: C_2  and  O_3
REMARK    3  A    between atoms: O_3  and  C_4
REMARK    4  A    between atoms: C_4  and  C_5
REMARK    5  A    between atoms: C_5  and  C_6
REMARK    6  A    between atoms: C_6  and  O_7
REMARK    7  A    between atoms: O_7  and  C_8
REMARK    8  A    between atoms: C_11  and  O_12
REMARK    9  A    between atoms: O_12  and  C_13
REMARK   10  A    between atoms: C_16  and  C_17
REMARK                            x       y       z     vdW  Elec       q    Type
REMARK                         _______ _______ _______ _____ _____    ______ ____
ROOT
ATOM      1  C   UNL     1       3.397   4.416  18.106  0.00  0.00    +0.000 C 
ATOM      2  C   UNL     1       4.149   3.828  19.301  0.00  0.00    +0.000 C 
ATOM      3  O   UNL     1       5.355   3.980  19.491  0.00  0.00    +0.000 OA
ATOM      4  N   UNL     1       3.423   3.078  20.187  0.00  0.00    +0.000 N 
ATOM      5  C   UNL     1       2.072   2.940  20.216  0.00  0.00    +0.000 C 
ATOM      6  O   UNL     1       1.501   2.447  21.183  0.00  0.00    +0.000 OA
ATOM      7  N   UNL     1       1.382   3.416  19.148  0.00  0.00    +0.000 N 
ATOM      8  C   UNL     1       1.882   4.145  18.105  0.00  0.00    +0.000 C 
ATOM      9  O   UNL     1       1.121   4.545  17.224  0.00  0.00    +0.000 OA
ATOM     10  H   UNL     1       3.929   2.742  20.997  0.00  0.00    +0.000 HD
ATOM     11  H   UNL     1       0.375   3.320  19.177  0.00  0.00    +0.000 HD
ENDROOT
BRANCH   1  12
ATOM     12  C   UNL     1       3.958   3.706  16.843  0.00  0.00    +0.000 C 
BRANCH  12  13
ATOM     13  C   UNL     1       5.003   4.562  16.118  0.00  0.00    +0.000 C 
BRANCH  13  14
ATOM     14  O   UNL     1       6.070   3.759  15.626  0.00  0.00    +0.000 OA
BRANCH  14  16
ATOM     15  C   UNL     1       6.049   3.683  13.227  0.00  0.00    +0.000 C 
ATOM     16  C   UNL     1       6.632   4.351  14.451  0.00  0.00    +0.000 C 
ENDBRANCH  14  16
ENDBRANCH  13  14
ENDBRANCH  12  13
ENDBRANCH   1  12
BRANCH   1  17
ATOM     17  O   UNL     1       3.721   5.815  18.006  0.00  0.00    +0.000 OA
BRANCH  17  18
ATOM     18  C   UNL     1       2.938   6.690  18.716  0.00  0.00    +0.000 A 
ATOM     19  C   UNL     1       2.568   6.528  20.054  0.00  0.00    +0.000 A 
ATOM     20  C   UNL     1       1.651   7.394  20.647  0.00  0.00    +0.000 A 
ATOM     21  C   UNL     1       1.173   8.487  19.935  0.00  0.00    +0.000 A 
ATOM     22  C   UNL     1       1.567   8.681  18.608  0.00  0.00    +0.000 A 
ATOM     23  C   UNL     1       2.468   7.796  18.009  0.00  0.00    +0.000 A 
BRANCH  21  24
ATOM     24  O   UNL     1       0.292   9.304  20.600  0.00  0.00    +0.000 OA
BRANCH  24  25
ATOM     25  C   UNL     1       0.233  10.636  20.260  0.00  0.00    +0.000 A 
ATOM     26  C   UNL     1      -0.854  11.011  19.468  0.00  0.00    +0.000 A 
ATOM     27  C   UNL     1      -0.981  12.332  19.036  0.00  0.00    +0.000 A 
ATOM     28  C   UNL     1      -0.020  13.280  19.401  0.00  0.00    +0.000 A 
ATOM     29  C   UNL     1       1.046  12.913  20.227  0.00  0.00    +0.000 A 
ATOM     30  C   UNL     1       1.155  11.599  20.681  0.00  0.00    +0.000 A 
BRANCH  28  31
ATOM     31  C   UNL     1      -0.123  14.626  18.930  0.00  0.00    +0.000 C 
ATOM     32  N   UNL     1      -0.210  15.719  18.539  0.00  0.00    +0.000 NA
ENDBRANCH  28  31
ENDBRANCH  24  25
ENDBRANCH  21  24
ENDBRANCH  17  18
ENDBRANCH   1  17
TORSDOF 9
ENDMDL
MODEL 4
REMARK VINA RESULT:      -8.4      0.409      1.038
REMARK  Name = 
REMARK  10 active torsions:
REMARK  status: ('A' for Active; 'I' for Inactive)
REMARK    1  A    between atoms: C_1  and  C_2
REMARK    2  A    between atoms: C_2  and  O_3
REMARK    3  A    between atoms: O_3  and  C_4
REMARK    4  A    between atoms: C_4  and  C_5
REMARK    5  A    between atoms: C_5  and  C_6
REMARK    6  A    between atoms: C_6  and  O_7
REMARK    7  A    between atoms: O_7  and  C_8
REMARK    8  A    between atoms: C_11  and  O_12
REMARK    9  A    between atoms: O_12  and  C_13
REMARK   10  A    between atoms: C_16  and  C_17
REMARK                            x       y       z     vdW  Elec       q    Type
REMARK                         _______ _______ _______ _____ _____    ______ ____
ROOT
ATOM      1  C   UNL     1       3.710   5.181  18.639  0.00  0.00    +0.000 C 
ATOM      2  C   UNL     1       4.921   4.389  19.138  0.00  0.00    +0.000 C 
ATOM      3  O   UNL     1       5.903   4.906  19.671  0.00  0.00    +0.000 OA
ATOM      4  N   UNL     1       4.899   3.033  18.954  0.00  0.00    +0.000 N 
ATOM      5  C   UNL     1       3.842   2.290  18.532  0.00  0.00    +0.000 C 
ATOM      6  O   UNL     1       3.843   1.067  18.628  0.00  0.00    +0.000 OA
ATOM      7  N   UNL     1       2.770   2.965  18.045  0.00  0.00    +0.000 N 
ATOM      8  C   UNL     1       2.576   4.319  18.059  0.00  0.00    +0.000 C 
ATOM      9  O   UNL     1       1.527   4.785  17.616  0.00  0.00    +0.000 OA
ATOM     10  H   UNL     1       5.685   2.524  19.338  0.00  0.00    +0.000 HD
ATOM     11  H   UNL     1       1.982   2.409  17.741  0.00  0.00    +0.000 HD
ENDROOT
BRANCH   1  12
ATOM     12  C   UNL     1       4.217   6.064  17.466  0.00  0.00    +0.000 C 
BRANCH  12  13
ATOM     13  C   UNL     1       5.343   5.384  16.678  0.00  0.00    +0.000 C 
BRANCH  13  14
ATOM     14  O   UNL     1       4.836   4.338  15.858  0.00  0.00    +0.000 OA
BRANCH  14  16
ATOM     15  C   UNL     1       6.986   4.808  14.899  0.00  0.00    +0.000 C 
ATOM     16  C   UNL     1       5.609   4.232  14.659  0.00  0.00    +0.000 C 
ENDBRANCH  14  16
ENDBRANCH  13  14
ENDBRANCH  12  13
ENDBRANCH   1  12
BRANCH   1  17
ATOM     17  O   UNL     1       3.272   6.058  19.694  0.00  0.00    +0.000 OA
BRANCH  17  18
ATOM     18  C   UNL     1       2.576   7.181  19.323  0.00  0.00    +0.000 A 
ATOM     19  C   UNL     1       2.699   7.828  18.091  0.00  0.00    +0.000 A 
ATOM     20  C   UNL     1       2.059   9.045  17.860  0.00  0.00    +0.000 A 
ATOM     21  C   UNL     1       1.214   9.574  18.827  0.00  0.00    +0.000 A 
ATOM     22  C   UNL     1       1.054   8.916  20.050  0.00  0.00    +0.000 A 
ATOM     23  C   UNL     1       1.716   7.708  20.285  0.00  0.00    +0.000 A 
BRANCH  21  24
ATOM     24  O   UNL     1       0.605  10.764  18.513  0.00  0.00    +0.000 OA
BRANCH  24  25
ATOM     25  C   UNL     1      -0.757  10.784  18.319  0.00  0.00    +0.000 A 
ATOM     26  C   UNL     1      -1.454  11.765  19.025  0.00  0.00    +0.000 A 
ATOM     27  C   UNL     1      -2.845  11.842  18.927  0.00  0.00    +0.000 A 
ATOM     28  C   UNL     1      -3.537  10.936  18.118  0.00  0.00    +0.000 A 
ATOM     29  C   UNL     1      -2.835   9.980  17.379  0.00  0.00    +0.000 A 
ATOM     30  C   UNL     1      -1.444   9.925  17.456  0.00  0.00    +0.000 A 
BRANCH  28  31
ATOM     31  C   UNL     1      -4.965  10.984  18.044  0.00  0.00    +0.000 C 
ATOM     32  N   UNL     1      -6.125  11.019  17.977  0.00  0.00    +0.000 NA
ENDBRANCH  28  31
ENDBRANCH  24  25
ENDBRANCH  21  24
ENDBRANCH  17  18
ENDBRANCH   1  17
TORSDOF 9
ENDMDL
MODEL 5
REMARK VINA RESULT:      -8.3      1.462      1.798
REMARK  Name = 
REMARK  10 active torsions:
REMARK  status: ('A' for Active; 'I' for Inactive)
REMARK    1  A    between atoms: C_1  and  C_2
REMARK    2  A    between atoms: C_2  and  O_3
REMARK    3  A    between atoms: O_3  and  C_4
REMARK    4  A    between atoms: C_4  and  C_5
REMARK    5  A    between atoms: C_5  and  C_6
REMARK    6  A    between atoms: C_6  and  O_7
REMARK    7  A    between atoms: O_7  and  C_8
REMARK    8  A    between atoms: C_11  and  O_12
REMARK    9  A    between atoms: O_12  and  C_13
REMARK   10  A    between atoms: C_16  and  C_17
REMARK                            x       y       z     vdW  Elec       q    Type
REMARK                         _______ _______ _______ _____ _____    ______ ____
ROOT
ATOM      1  C   UNL     1       3.397   4.348  18.200  0.00  0.00    +0.000 C 
ATOM      2  C   UNL     1       4.027   3.730  19.450  0.00  0.00    +0.000 C 
ATOM      3  O   UNL     1       5.236   3.733  19.679  0.00  0.00    +0.000 OA
ATOM      4  N   UNL     1       3.181   3.129  20.343  0.00  0.00    +0.000 N 
ATOM      5  C   UNL     1       1.823   3.170  20.326  0.00  0.00    +0.000 C 
ATOM      6  O   UNL     1       1.162   2.807  21.294  0.00  0.00    +0.000 OA
ATOM      7  N   UNL     1       1.235   3.674  19.212  0.00  0.00    +0.000 N 
ATOM      8  C   UNL     1       1.860   4.277  18.155  0.00  0.00    +0.000 C 
ATOM      9  O   UNL     1       1.187   4.726  17.228  0.00  0.00    +0.000 OA
ATOM     10  H   UNL     1       3.612   2.773  21.187  0.00  0.00    +0.000 HD
ATOM     11  H   UNL     1       0.225   3.713  19.207  0.00  0.00    +0.000 HD
ENDROOT
BRANCH   1  12
ATOM     12  C   UNL     1       3.898   3.506  16.995  0.00  0.00    +0.000 C 
BRANCH  12  13
ATOM     13  C   UNL     1       5.152   4.110  16.352  0.00  0.00    +0.000 C 
BRANCH  13  14
ATOM     14  O   UNL     1       5.054   4.102  14.933  0.00  0.00    +0.000 OA
BRANCH  14  16
ATOM     15  C   UNL     1       6.252   3.656  12.900  0.00  0.00    +0.000 C 
ATOM     16  C   UNL     1       6.360   4.077  14.349  0.00  0.00    +0.000 C 
ENDBRANCH  14  16
ENDBRANCH  13  14
ENDBRANCH  12  13
ENDBRANCH   1  12
BRANCH   1  17
ATOM     17  O   UNL     1       3.906   5.685  18.046  0.00  0.00    +0.000 OA
BRANCH  17  18
ATOM     18  C   UNL     1       3.076   6.716  18.413  0.00  0.00    +0.000 A 
ATOM     19  C   UNL     1       2.718   7.786  17.589  0.00  0.00    +0.000 A 
ATOM     20  C   UNL     1       1.988   8.860  18.097  0.00  0.00    +0.000 A 
ATOM     21  C   UNL     1       1.527   8.823  19.408  0.00  0.00    +0.000 A 
ATOM     22  C   UNL     1       1.848   7.738  20.229  0.00  0.00    +0.000 A 
ATOM     23  C   UNL     1       2.600   6.675  19.722  0.00  0.00    +0.000 A 
BRANCH  21  24
ATOM     24  O   UNL     1       0.797   9.909  19.823  0.00  0.00    +0.000 OA
BRANCH  24  25
ATOM     25  C   UNL     1      -0.330  10.262  19.116  0.00  0.00    +0.000 A 
ATOM     26  C   UNL     1      -1.104  11.277  19.680  0.00  0.00    +0.000 A 
ATOM     27  C   UNL     1      -2.289  11.679  19.061  0.00  0.00    +0.000 A 
ATOM     28  C   UNL     1      -2.697  11.066  17.873  0.00  0.00    +0.000 A 
ATOM     29  C   UNL     1      -1.901  10.078  17.286  0.00  0.00    +0.000 A 
ATOM     30  C   UNL     1      -0.703   9.698  17.892  0.00  0.00    +0.000 A 
BRANCH  28  31
ATOM     31  C   UNL     1      -3.929  11.445  17.254  0.00  0.00    +0.000 C 
ATOM     32  N   UNL     1      -4.934  11.757  16.758  0.00  0.00    +0.000 NA
ENDBRANCH  28  31
ENDBRANCH  24  25
ENDBRANCH  21  24
ENDBRANCH  17  18
ENDBRANCH   1  17
TORSDOF 9
ENDMDL
MODEL 6
REMARK VINA RESULT:      -8.3      2.530      3.216
REMARK  Name = 
REMARK  10 active torsions:
REMARK  status: ('A' for Active; 'I' for Inactive)
REMARK    1  A    between atoms: C_1  and  C_2
REMARK    2  A    between atoms: C_2  and  O_3
REMARK    3  A    between atoms: O_3  and  C_4
REMARK    4  A    between atoms: C_4  and  C_5
REMARK    5  A    between atoms: C_5  and  C_6
REMARK    6  A    between atoms: C_6  and  O_7
REMARK    7  A    between atoms: O_7  and  C_8
REMARK    8  A    between atoms: C_11  and  O_12
REMARK    9  A    between atoms: O_12  and  C_13
REMARK   10  A    between atoms: C_16  and  C_17
REMARK                            x       y       z     vdW  Elec       q    Type
REMARK                         _______ _______ _______ _____ _____    ______ ____
ROOT
ATOM      1  C   UNL     1       3.332   4.403  18.224  0.00  0.00    +0.000 C 
ATOM      2  C   UNL     1       3.989   3.861  19.496  0.00  0.00    +0.000 C 
ATOM      3  O   UNL     1       5.191   3.958  19.738  0.00  0.00    +0.000 OA
ATOM      4  N   UNL     1       3.178   3.219  20.392  0.00  0.00    +0.000 N 
ATOM      5  C   UNL     1       1.820   3.160  20.358  0.00  0.00    +0.000 C 
ATOM      6  O   UNL     1       1.174   2.771  21.326  0.00  0.00    +0.000 OA
ATOM      7  N   UNL     1       1.213   3.595  19.226  0.00  0.00    +0.000 N 
ATOM      8  C   UNL     1       1.806   4.218  18.162  0.00  0.00    +0.000 C 
ATOM      9  O   UNL     1       1.115   4.596  17.218  0.00  0.00    +0.000 OA
ATOM     10  H   UNL     1       3.622   2.914  21.249  0.00  0.00    +0.000 HD
ATOM     11  H   UNL     1       0.202   3.559  19.208  0.00  0.00    +0.000 HD
ENDROOT
BRANCH   1  12
ATOM     12  C   UNL     1       3.911   3.573  17.045  0.00  0.00    +0.000 C 
BRANCH  12  13
ATOM     13  C   UNL     1       4.833   4.410  16.150  0.00  0.00    +0.000 C 
BRANCH  13  14
ATOM     14  O   UNL     1       6.201   4.166  16.456  0.00  0.00    +0.000 OA
BRANCH  14  16
ATOM     15  C   UNL     1       7.281   5.914  17.699  0.00  0.00    +0.000 C 
ATOM     16  C   UNL     1       6.959   5.373  16.324  0.00  0.00    +0.000 C 
ENDBRANCH  14  16
ENDBRANCH  13  14
ENDBRANCH  12  13
ENDBRANCH   1  12
BRANCH   1  17
ATOM     17  O   UNL     1       3.745   5.770  18.045  0.00  0.00    +0.000 OA
BRANCH  17  18
ATOM     18  C   UNL     1       2.966   6.739  18.628  0.00  0.00    +0.000 A 
ATOM     19  C   UNL     1       2.531   6.725  19.955  0.00  0.00    +0.000 A 
ATOM     20  C   UNL     1       1.623   7.677  20.416  0.00  0.00    +0.000 A 
ATOM     21  C   UNL     1       1.220   8.709  19.577  0.00  0.00    +0.000 A 
ATOM     22  C   UNL     1       1.679   8.755  18.257  0.00  0.00    +0.000 A 
ATOM     23  C   UNL     1       2.571   7.784  17.793  0.00  0.00    +0.000 A 
BRANCH  21  24
ATOM     24  O   UNL     1       0.342   9.618  20.114  0.00  0.00    +0.000 OA
BRANCH  24  25
ATOM     25  C   UNL     1       0.552  10.959  19.889  0.00  0.00    +0.000 A 
ATOM     26  C   UNL     1      -0.262  11.544  18.917  0.00  0.00    +0.000 A 
ATOM     27  C   UNL     1      -0.098  12.890  18.587  0.00  0.00    +0.000 A 
ATOM     28  C   UNL     1       0.879  13.653  19.233  0.00  0.00    +0.000 A 
ATOM     29  C   UNL     1       1.666  13.078  20.234  0.00  0.00    +0.000 A 
ATOM     30  C   UNL     1       1.481  11.740  20.583  0.00  0.00    +0.000 A 
BRANCH  28  31
ATOM     31  C   UNL     1       1.078  15.022  18.871  0.00  0.00    +0.000 C 
ATOM     32  N   UNL     1       1.248  16.135  18.580  0.00  0.00    +0.000 NA
ENDBRANCH  28  31
ENDBRANCH  24  25
ENDBRANCH  21  24
ENDBRANCH  17  18
ENDBRANCH   1  17
TORSDOF 9
ENDMDL
MODEL 7
REMARK VINA RESULT:      -8.3      1.436      1.781
REMARK  Name = 
REMARK  10 active torsions:
REMARK  status: ('A' for Active; 'I' for Inactive)
REMARK    1  A    between atoms: C_1  and  C_2
REMARK    2  A    between atoms: C_2  and  O_3
REMARK    3  A    between atoms: O_3  and  C_4
REMARK    4  A    between atoms: C_4  and  C_5
REMARK    5  A    between atoms: C_5  and  C_6
REMARK    6  A    between atoms: C_6  and  O_7
REMARK    7  A    between atoms: O_7  and  C_8
REMARK    8  A    between atoms: C_11  and  O_12
REMARK    9  A    between atoms: O_12  and  C_13
REMARK   10  A    between atoms: C_16  and  C_17
REMARK                            x       y       z     vdW  Elec       q    Type
REMARK                         _______ _______ _______ _____ _____    ______ ____
ROOT
ATOM      1  C   UNL     1       3.309   4.375  18.101  0.00  0.00    +0.000 C 
ATOM      2  C   UNL     1       3.978   3.957  19.412  0.00  0.00    +0.000 C 
ATOM      3  O   UNL     1       5.186   4.058  19.625  0.00  0.00    +0.000 OA
ATOM      4  N   UNL     1       3.172   3.426  20.382  0.00  0.00    +0.000 N 
ATOM      5  C   UNL     1       1.814   3.387  20.375  0.00  0.00    +0.000 C 
ATOM      6  O   UNL     1       1.179   3.111  21.387  0.00  0.00    +0.000 OA
ATOM      7  N   UNL     1       1.194   3.712  19.212  0.00  0.00    +0.000 N 
ATOM      8  C   UNL     1       1.780   4.211  18.081  0.00  0.00    +0.000 C 
ATOM      9  O   UNL     1       1.078   4.501  17.113  0.00  0.00    +0.000 OA
ATOM     10  H   UNL     1       3.626   3.204  21.259  0.00  0.00    +0.000 HD
ATOM     11  H   UNL     1       0.184   3.692  19.213  0.00  0.00    +0.000 HD
ENDROOT
BRANCH   1  12
ATOM     12  C   UNL     1       3.855   3.418  17.006  0.00  0.00    +0.000 C 
BRANCH  12  13
ATOM     13  C   UNL     1       4.773   4.142  16.014  0.00  0.00    +0.000 C 
BRANCH  13  14
ATOM     14  O   UNL     1       6.129   4.093  16.441  0.00  0.00    +0.000 OA
BRANCH  14  16
ATOM     15  C   UNL     1       6.208   4.305  14.050  0.00  0.00    +0.000 C 
ATOM     16  C   UNL     1       7.004   4.339  15.336  0.00  0.00    +0.000 C 
ENDBRANCH  14  16
ENDBRANCH  13  14
ENDBRANCH  12  13
ENDBRANCH   1  12
BRANCH   1  17
ATOM     17  O   UNL     1       3.740   5.710  17.774  0.00  0.00    +0.000 OA
BRANCH  17  18
ATOM     18  C   UNL     1       3.077   6.746  18.384  0.00  0.00    +0.000 A 
ATOM     19  C   UNL     1       2.624   6.738  19.706  0.00  0.00    +0.000 A 
ATOM     20  C   UNL     1       1.834   7.780  20.192  0.00  0.00    +0.000 A 
ATOM     21  C   UNL     1       1.575   8.883  19.388  0.00  0.00    +0.000 A 
ATOM     22  C   UNL     1       2.056   8.918  18.076  0.00  0.00    +0.000 A 
ATOM     23  C   UNL     1       2.828   7.861  17.585  0.00  0.00    +0.000 A 
BRANCH  21  24
ATOM     24  O   UNL     1       0.808   9.874  19.950  0.00  0.00    +0.000 OA
BRANCH  24  25
ATOM     25  C   UNL     1      -0.346  10.265  19.311  0.00  0.00    +0.000 A 
ATOM     26  C   UNL     1      -0.620   9.615  18.106  0.00  0.00    +0.000 A 
ATOM     27  C   UNL     1      -1.746   9.970  17.361  0.00  0.00    +0.000 A 
ATOM     28  C   UNL     1      -2.600  10.974  17.826  0.00  0.00    +0.000 A 
ATOM     29  C   UNL     1      -2.348  11.596  19.052  0.00  0.00    +0.000 A 
ATOM     30  C   UNL     1      -1.238  11.219  19.808  0.00  0.00    +0.000 A 
BRANCH  28  31
ATOM     31  C   UNL     1      -3.734  11.370  17.048  0.00  0.00    +0.000 C 
ATOM     32  N   UNL     1      -4.651  11.694  16.411  0.00  0.00    +0.000 NA
ENDBRANCH  28  31
ENDBRANCH  24  25
ENDBRANCH  21  24
ENDBRANCH  17  18
ENDBRANCH   1  17
TORSDOF 9
ENDMDL
MODEL 8
REMARK VINA RESULT:      -8.2      2.253      3.386
REMARK  Name = 
REMARK  10 active torsions:
REMARK  status: ('A' for Active; 'I' for Inactive)
REMARK    1  A    between atoms: C_1  and  C_2
REMARK    2  A    between atoms: C_2  and  O_3
REMARK    3  A    between atoms: O_3  and  C_4
REMARK    4  A    between atoms: C_4  and  C_5
REMARK    5  A    between atoms: C_5  and  C_6
REMARK    6  A    between atoms: C_6  and  O_7
REMARK    7  A    between atoms: O_7  and  C_8
REMARK    8  A    between atoms: C_11  and  O_12
REMARK    9  A    between atoms: O_12  and  C_13
REMARK   10  A    between atoms: C_16  and  C_17
REMARK                            x       y       z     vdW  Elec       q    Type
REMARK                         _______ _______ _______ _____ _____    ______ ____
ROOT
ATOM      1  C   UNL     1       4.642   4.946  17.210  0.00  0.00    +0.000 C 
ATOM      2  C   UNL     1       5.599   6.139  17.243  0.00  0.00    +0.000 C 
ATOM      3  O   UNL     1       5.536   7.087  16.462  0.00  0.00    +0.000 OA
ATOM      4  N   UNL     1       6.587   6.120  18.191  0.00  0.00    +0.000 N 
ATOM      5  C   UNL     1       6.706   5.240  19.219  0.00  0.00    +0.000 C 
ATOM      6  O   UNL     1       7.479   5.445  20.149  0.00  0.00    +0.000 OA
ATOM      7  N   UNL     1       5.897   4.150  19.194  0.00  0.00    +0.000 N 
ATOM      8  C   UNL     1       4.874   3.906  18.319  0.00  0.00    +0.000 C 
ATOM      9  O   UNL     1       4.197   2.887  18.447  0.00  0.00    +0.000 OA
ATOM     10  H   UNL     1       7.177   6.941  18.228  0.00  0.00    +0.000 HD
ATOM     11  H   UNL     1       5.981   3.502  19.966  0.00  0.00    +0.000 HD
ENDROOT
BRANCH   1  12
ATOM     12  C   UNL     1       4.908   4.207  15.869  0.00  0.00    +0.000 C 
BRANCH  12  13
ATOM     13  C   UNL     1       6.398   3.915  15.659  0.00  0.00    +0.000 C 
BRANCH  13  14
ATOM     14  O   UNL     1       6.823   4.328  14.366  0.00  0.00    +0.000 OA
BRANCH  14  16
ATOM     15  C   UNL     1       6.758   3.668  12.058  0.00  0.00    +0.000 C 
ATOM     16  C   UNL     1       5.994   3.737  13.361  0.00  0.00    +0.000 C 
ENDBRANCH  14  16
ENDBRANCH  13  14
ENDBRANCH  12  13
ENDBRANCH   1  12
BRANCH   1  17
ATOM     17  O   UNL     1       3.292   5.446  17.177  0.00  0.00    +0.000 OA
BRANCH  17  18
ATOM     18  C   UNL     1       2.838   6.092  18.300  0.00  0.00    +0.000 A 
ATOM     19  C   UNL     1       2.483   5.464  19.496  0.00  0.00    +0.000 A 
ATOM     20  C   UNL     1       1.894   6.189  20.531  0.00  0.00    +0.000 A 
ATOM     21  C   UNL     1       1.748   7.566  20.414  0.00  0.00    +0.000 A 
ATOM     22  C   UNL     1       2.136   8.210  19.236  0.00  0.00    +0.000 A 
ATOM     23  C   UNL     1       2.703   7.476  18.191  0.00  0.00    +0.000 A 
BRANCH  21  24
ATOM     24  O   UNL     1       1.181   8.207  21.488  0.00  0.00    +0.000 OA
BRANCH  24  25
ATOM     25  C   UNL     1       0.402   9.319  21.262  0.00  0.00    +0.000 A 
ATOM     26  C   UNL     1       0.028  10.036  22.400  0.00  0.00    +0.000 A 
ATOM     27  C   UNL     1      -0.797  11.156  22.280  0.00  0.00    +0.000 A 
ATOM     28  C   UNL     1      -1.244  11.560  21.019  0.00  0.00    +0.000 A 
ATOM     29  C   UNL     1      -0.836  10.866  19.876  0.00  0.00    +0.000 A 
ATOM     30  C   UNL     1       0.011   9.765  19.996  0.00  0.00    +0.000 A 
BRANCH  28  31
ATOM     31  C   UNL     1      -2.121  12.683  20.893  0.00  0.00    +0.000 C 
ATOM     32  N   UNL     1      -2.830  13.599  20.783  0.00  0.00    +0.000 NA
ENDBRANCH  28  31
ENDBRANCH  24  25
ENDBRANCH  21  24
ENDBRANCH  17  18
ENDBRANCH   1  17
TORSDOF 9
ENDMDL
MODEL 9
REMARK VINA RESULT:      -8.1      1.569      3.670
REMARK  Name = 
REMARK  10 active torsions:
REMARK  status: ('A' for Active; 'I' for Inactive)
REMARK    1  A    between atoms: C_1  and  C_2
REMARK    2  A    between atoms: C_2  and  O_3
REMARK    3  A    between atoms: O_3  and  C_4
REMARK    4  A    between atoms: C_4  and  C_5
REMARK    5  A    between atoms: C_5  and  C_6
REMARK    6  A    between atoms: C_6  and  O_7
REMARK    7  A    between atoms: O_7  and  C_8
REMARK    8  A    between atoms: C_11  and  O_12
REMARK    9  A    between atoms: O_12  and  C_13
REMARK   10  A    between atoms: C_16  and  C_17
REMARK                            x       y       z     vdW  Elec       q    Type
REMARK                         _______ _______ _______ _____ _____    ______ ____
ROOT
ATOM      1  C   UNL     1       4.291   4.510  18.693  0.00  0.00    +0.000 C 
ATOM      2  C   UNL     1       3.708   4.298  17.295  0.00  0.00    +0.000 C 
ATOM      3  O   UNL     1       2.650   3.708  17.078  0.00  0.00    +0.000 OA
ATOM      4  N   UNL     1       4.429   4.783  16.238  0.00  0.00    +0.000 N 
ATOM      5  C   UNL     1       5.524   5.586  16.304  0.00  0.00    +0.000 C 
ATOM      6  O   UNL     1       5.955   6.161  15.310  0.00  0.00    +0.000 OA
ATOM      7  N   UNL     1       6.088   5.759  17.527  0.00  0.00    +0.000 N 
ATOM      8  C   UNL     1       5.595   5.326  18.727  0.00  0.00    +0.000 C 
ATOM      9  O   UNL     1       6.200   5.596  19.764  0.00  0.00    +0.000 OA
ATOM     10  H   UNL     1       4.001   4.678  15.327  0.00  0.00    +0.000 HD
ATOM     11  H   UNL     1       6.896   6.364  17.575  0.00  0.00    +0.000 HD
ENDROOT
BRANCH   1  12
ATOM     12  C   UNL     1       4.655   3.100  19.235  0.00  0.00    +0.000 C 
BRANCH  12  13
ATOM     13  C   UNL     1       3.675   2.628  20.315  0.00  0.00    +0.000 C 
BRANCH  13  14
ATOM     14  O   UNL     1       2.600   1.891  19.745  0.00  0.00    +0.000 OA
BRANCH  14  16
ATOM     15  C   UNL     1       1.328   2.798  21.569  0.00  0.00    +0.000 C 
ATOM     16  C   UNL     1       1.350   2.497  20.087  0.00  0.00    +0.000 C 
ENDBRANCH  14  16
ENDBRANCH  13  14
ENDBRANCH  12  13
ENDBRANCH   1  12
BRANCH   1  17
ATOM     17  O   UNL     1       3.261   5.055  19.539  0.00  0.00    +0.000 OA
BRANCH  17  18
ATOM     18  C   UNL     1       2.785   6.302  19.219  0.00  0.00    +0.000 A 
ATOM     19  C   UNL     1       3.011   6.958  18.007  0.00  0.00    +0.000 A 
ATOM     20  C   UNL     1       2.610   8.282  17.830  0.00  0.00    +0.000 A 
ATOM     21  C   UNL     1       1.892   8.926  18.830  0.00  0.00    +0.000 A 
ATOM     22  C   UNL     1       1.627   8.265  20.033  0.00  0.00    +0.000 A 
ATOM     23  C   UNL     1       2.052   6.946  20.216  0.00  0.00    +0.000 A 
BRANCH  21  24
ATOM     24  O   UNL     1       1.516  10.220  18.567  0.00  0.00    +0.000 OA
BRANCH  24  25
ATOM     25  C   UNL     1       0.176  10.515  18.467  0.00  0.00    +0.000 A 
ATOM     26  C   UNL     1      -0.262  11.603  19.225  0.00  0.00    +0.000 A 
ATOM     27  C   UNL     1      -1.612  11.957  19.223  0.00  0.00    +0.000 A 
ATOM     28  C   UNL     1      -2.524  11.224  18.459  0.00  0.00    +0.000 A 
ATOM     29  C   UNL     1      -2.079  10.161  17.668  0.00  0.00    +0.000 A 
ATOM     30  C   UNL     1      -0.725   9.827  17.650  0.00  0.00    +0.000 A 
BRANCH  28  31
ATOM     31  C   UNL     1      -3.915  11.558  18.483  0.00  0.00    +0.000 C 
ATOM     32  N   UNL     1      -5.048  11.821  18.501  0.00  0.00    +0.000 NA
ENDBRANCH  28  31
ENDBRANCH  24  25
ENDBRANCH  21  24
ENDBRANCH  17  18
ENDBRANCH   1  17
TORSDOF 9
ENDMDL
