MODEL 1
REMARK VINA RESULT:      -8.3      0.000      0.000
REMARK  Name = 
REMARK  9 active torsions:
REMARK  status: ('A' for Active; 'I' for Inactive)
REMARK    1  A    between atoms: C_1  and  O_2
REMARK    2  A    between atoms: O_2  and  C_3
REMARK    3  A    between atoms: C_8  and  N_9
REMARK    4  A    between atoms: N_12  and  C_13
REMARK    5  A    between atoms: C_13  and  C_14
REMARK    6  A    between atoms: C_14  and  C_15
REMARK    7  A    between atoms: C_15  and  C_16
REMARK    8  A    between atoms: C_16  and  N_17
REMARK    9  A    between atoms: C_18  and  C_20
REMARK                            x       y       z     vdW  Elec       q    Type
REMARK                         _______ _______ _______ _____ _____    ______ ____
ROOT
ATOM      1  C   UNL     1       2.020   2.469  19.927  0.00  0.00    +0.000 C 
ENDROOT
BRANCH   1   5
ATOM      2  N   UNL     1       4.475   3.567  17.543  0.00  0.00    +0.000 N 
ATOM      3  C   UNL     1       3.571   2.443  17.264  0.00  0.00    +0.000 C 
ATOM      4  C   UNL     1       3.645   1.416  18.419  0.00  0.00    +0.000 C 
ATOM      5  N   UNL     1       3.400   1.981  19.771  0.00  0.00    +0.000 NA
ATOM      6  C   UNL     1       4.378   3.083  19.973  0.00  0.00    +0.000 C 
ATOM      7  C   UNL     1       4.358   4.175  18.878  0.00  0.00    +0.000 C 
BRANCH   2  13
ATOM      8  C   UNL     1       7.081   5.632  15.879  0.00  0.00    +0.000 A 
ATOM      9  C   UNL     1       7.102   5.073  14.609  0.00  0.00    +0.000 A 
ATOM     10  C   UNL     1       6.236   4.026  14.324  0.00  0.00    +0.000 A 
ATOM     11  F   UNL     1       6.257   3.474  13.100  0.00  0.00    +0.000 F 
ATOM     12  C   UNL     1       5.356   3.531  15.278  0.00  0.00    +0.000 A 
ATOM     13  C   UNL     1       5.307   4.075  16.567  0.00  0.00    +0.000 A 
ATOM     14  C   UNL     1       6.185   5.137  16.834  0.00  0.00    +0.000 A 
BRANCH   8  16
ATOM     15  C   UNL     1       7.392   7.409  17.422  0.00  0.00    +0.000 C 
ATOM     16  O   UNL     1       7.883   6.647  16.326  0.00  0.00    +0.000 OA
ENDBRANCH   8  16
ENDBRANCH   2  13
ENDBRANCH   1   5
BRANCH   1  17
ATOM     17  C   UNL     1       1.879   3.554  21.004  0.00  0.00    +0.000 C 
BRANCH  17  18
ATOM     18  C   UNL     1       1.126   4.799  20.533  0.00  0.00    +0.000 C 
BRANCH  18  19
ATOM     19  C   UNL     1       2.018   6.034  20.546  0.00  0.00    +0.000 C 
BRANCH  19  20
ATOM     20  N   UNL     1       1.354   7.164  21.148  0.00  0.00    +0.000 N 
ATOM     21  C   UNL     1       1.314   8.386  20.517  0.00  0.00    +0.000 C 
ATOM     22  O   UNL     1       1.815   8.609  19.422  0.00  0.00    +0.000 OA
ATOM     23  H   UNL     1       0.755   6.978  21.940  0.00  0.00    +0.000 HD
BRANCH  21  24
ATOM     24  C   UNL     1       0.586   9.466  21.234  0.00  0.00    +0.000 A 
ATOM     25  C   UNL     1      -0.170   9.171  22.411  0.00  0.00    +0.000 A 
ATOM     26  C   UNL     1      -0.868  10.150  23.142  0.00  0.00    +0.000 A 
ATOM     27  C   UNL     1      -0.752  11.452  22.625  0.00  0.00    +0.000 A 
ATOM     28  N   UNL     1      -1.285  12.592  23.079  0.00  0.00    +0.000 NA
ATOM     29  O   UNL     1      -0.854  13.581  22.211  0.00  0.00    +0.000 OA
ATOM     30  N   UNL     1      -0.051  13.072  21.204  0.00  0.00    +0.000 NA
ATOM     31  C   UNL     1       0.031  11.756  21.433  0.00  0.00    +0.000 A 
ATOM     32  C   UNL     1       0.721  10.770  20.712  0.00  0.00    +0.000 A 
ENDBRANCH  21  24
ENDBRANCH  19  20
ENDBRANCH  18  19
ENDBRANCH  17  18
ENDBRANCH   1  17
TORSDOF 8
ENDMDL
MODEL 2
REMARK VINA RESULT:      -8.3      0.981      1.493
REMARK  Name = 
REMARK  9 active torsions:
REMARK  status: ('A' for Active; 'I' for Inactive)
REMARK    1  A    between atoms: C_1  and  O_2
REMARK    2  A    between atoms: O_2  and  C_3
REMARK    3  A    between atoms: C_8  and  N_9
REMARK    4  A    between atoms: N_12  and  C_13
REMARK    5  A    between atoms: C_13  and  C_14
REMARK    6  A    between atoms: C_14  and  C_15
REMARK    7  A    between atoms: C_15  and  C_16
REMARK    8  A    between atoms: C_16  and  N_17
REMARK    9  A    between atoms: C_18  and  C_20
REMARK                            x       y       z     vdW  Elec       q    Type
REMARK                         _______ _______ _______ _____ _____    ______ ____
ROOT
ATOM      1  C   UNL     1       1.751   2.422  20.015  0.00  0.00    +0.000 C 
ENDROOT
BRANCH   1   5
ATOM      2  N   UNL     1       4.244   3.604  17.711  0.00  0.00    +0.000 N 
ATOM      3  C   UNL     1       2.891   3.236  17.271  0.00  0.00    +0.000 C 
ATOM      4  C   UNL     1       2.547   1.814  17.775  0.00  0.00    +0.000 C 
ATOM      5  N   UNL     1       2.709   1.617  19.238  0.00  0.00    +0.000 NA
ATOM      6  C   UNL     1       4.109   1.981  19.581  0.00  0.00    +0.000 C 
ATOM      7  C   UNL     1       4.536   3.400  19.140  0.00  0.00    +0.000 C 
BRANCH   2  13
ATOM      8  C   UNL     1       7.054   5.692  16.460  0.00  0.00    +0.000 A 
ATOM      9  C   UNL     1       7.065   5.356  15.113  0.00  0.00    +0.000 A 
ATOM     10  C   UNL     1       6.125   4.449  14.642  0.00  0.00    +0.000 A 
ATOM     11  F   UNL     1       6.135   4.113  13.342  0.00  0.00    +0.000 F 
ATOM     12  C   UNL     1       5.181   3.876  15.486  0.00  0.00    +0.000 A 
ATOM     13  C   UNL     1       5.141   4.197  16.848  0.00  0.00    +0.000 A 
ATOM     14  C   UNL     1       6.095   5.121  17.305  0.00  0.00    +0.000 A 
BRANCH   8  16
ATOM     15  C   UNL     1       7.405   7.812  17.469  0.00  0.00    +0.000 C 
ATOM     16  O   UNL     1       7.923   6.545  17.085  0.00  0.00    +0.000 OA
ENDBRANCH   8  16
ENDBRANCH   2  13
ENDBRANCH   1   5
BRANCH   1  17
ATOM     17  C   UNL     1       2.314   2.897  21.363  0.00  0.00    +0.000 C 
BRANCH  17  18
ATOM     18  C   UNL     1       2.350   4.418  21.516  0.00  0.00    +0.000 C 
BRANCH  18  19
ATOM     19  C   UNL     1       1.627   5.116  20.370  0.00  0.00    +0.000 C 
BRANCH  19  20
ATOM     20  N   UNL     1       1.208   6.447  20.737  0.00  0.00    +0.000 N 
ATOM     21  C   UNL     1       1.722   7.555  20.104  0.00  0.00    +0.000 C 
ATOM     22  O   UNL     1       2.545   7.508  19.199  0.00  0.00    +0.000 OA
ATOM     23  H   UNL     1       0.389   6.527  21.324  0.00  0.00    +0.000 HD
BRANCH  21  24
ATOM     24  C   UNL     1       1.198   8.869  20.564  0.00  0.00    +0.000 A 
ATOM     25  C   UNL     1       1.211   9.998  19.688  0.00  0.00    +0.000 A 
ATOM     26  C   UNL     1       0.717  11.263  20.058  0.00  0.00    +0.000 A 
ATOM     27  C   UNL     1       0.196  11.323  21.362  0.00  0.00    +0.000 A 
ATOM     28  N   UNL     1      -0.344  12.362  22.009  0.00  0.00    +0.000 NA
ATOM     29  O   UNL     1      -0.703  11.883  23.257  0.00  0.00    +0.000 OA
ATOM     30  N   UNL     1      -0.389  10.543  23.407  0.00  0.00    +0.000 NA
ATOM     31  C   UNL     1       0.169  10.168  22.250  0.00  0.00    +0.000 A 
ATOM     32  C   UNL     1       0.666   8.912  21.870  0.00  0.00    +0.000 A 
ENDBRANCH  21  24
ENDBRANCH  19  20
ENDBRANCH  18  19
ENDBRANCH  17  18
ENDBRANCH   1  17
TORSDOF 8
ENDMDL
MODEL 3
REMARK VINA RESULT:      -8.1      1.780      2.552
REMARK  Name = 
REMARK  9 active torsions:
REMARK  status: ('A' for Active; 'I' for Inactive)
REMARK    1  A    between atoms: C_1  and  O_2
REMARK    2  A    between atoms: O_2  and  C_3
REMARK    3  A    between atoms: C_8  and  N_9
REMARK    4  A    between atoms: N_12  and  C_13
REMARK    5  A    between atoms: C_13  and  C_14
REMARK    6  A    between atoms: C_14  and  C_15
REMARK    7  A    between atoms: C_15  and  C_16
REMARK    8  A    between atoms: C_16  and  N_17
REMARK    9  A    between atoms: C_18  and  C_20
REMARK                            x       y       z     vdW  Elec       q    Type
REMARK                         _______ _______ _______ _____ _____    ______ ____
ROOT
ATOM      1  C   UNL     1       1.725   2.147  19.975  0.00  0.00    +0.000 C 
ENDROOT
BRANCH   1   5
ATOM      2  N   UNL     1       4.473   3.873  18.430  0.00  0.00    +0.000 N 
ATOM      3  C   UNL     1       3.148   3.802  17.800  0.00  0.00    +0.000 C 
ATOM      4  C   UNL     1       2.685   2.328  17.724  0.00  0.00    +0.000 C 
ATOM      5  N   UNL     1       2.704   1.603  19.019  0.00  0.00    +0.000 NA
ATOM      6  C   UNL     1       4.085   1.701  19.561  0.00  0.00    +0.000 C 
ATOM      7  C   UNL     1       4.625   3.144  19.699  0.00  0.00    +0.000 C 
BRANCH   2  13
ATOM      8  C   UNL     1       6.599   5.662  15.959  0.00  0.00    +0.000 A 
ATOM      9  C   UNL     1       7.459   6.361  16.795  0.00  0.00    +0.000 A 
ATOM     10  C   UNL     1       7.325   6.212  18.169  0.00  0.00    +0.000 A 
ATOM     11  F   UNL     1       8.148   6.892  18.983  0.00  0.00    +0.000 F 
ATOM     12  C   UNL     1       6.354   5.384  18.719  0.00  0.00    +0.000 A 
ATOM     13  C   UNL     1       5.474   4.663  17.904  0.00  0.00    +0.000 A 
ATOM     14  C   UNL     1       5.629   4.820  16.517  0.00  0.00    +0.000 A 
BRANCH   8  16
ATOM     15  C   UNL     1       6.873   4.508  13.903  0.00  0.00    +0.000 C 
ATOM     16  O   UNL     1       6.582   5.717  14.591  0.00  0.00    +0.000 OA
ENDBRANCH   8  16
ENDBRANCH   2  13
ENDBRANCH   1   5
BRANCH   1  17
ATOM     17  C   UNL     1       2.360   2.607  21.296  0.00  0.00    +0.000 C 
BRANCH  17  18
ATOM     18  C   UNL     1       2.141   4.089  21.604  0.00  0.00    +0.000 C 
BRANCH  18  19
ATOM     19  C   UNL     1       1.514   4.822  20.425  0.00  0.00    +0.000 C 
BRANCH  19  20
ATOM     20  N   UNL     1       1.148   6.174  20.772  0.00  0.00    +0.000 N 
ATOM     21  C   UNL     1       1.708   7.251  20.126  0.00  0.00    +0.000 C 
ATOM     22  O   UNL     1       2.532   7.158  19.224  0.00  0.00    +0.000 OA
ATOM     23  H   UNL     1       0.332   6.295  21.354  0.00  0.00    +0.000 HD
BRANCH  21  24
ATOM     24  C   UNL     1       1.238   8.591  20.565  0.00  0.00    +0.000 A 
ATOM     25  C   UNL     1       1.317   9.711  19.680  0.00  0.00    +0.000 A 
ATOM     26  C   UNL     1       0.876  11.001  20.031  0.00  0.00    +0.000 A 
ATOM     27  C   UNL     1       0.335  11.096  21.325  0.00  0.00    +0.000 A 
ATOM     28  N   UNL     1      -0.167  12.164  21.954  0.00  0.00    +0.000 NA
ATOM     29  O   UNL     1      -0.569  11.713  23.200  0.00  0.00    +0.000 OA
ATOM     30  N   UNL     1      -0.319  10.362  23.366  0.00  0.00    +0.000 NA
ATOM     31  C   UNL     1       0.240   9.951  22.223  0.00  0.00    +0.000 A 
ATOM     32  C   UNL     1       0.686   8.671  21.862  0.00  0.00    +0.000 A 
ENDBRANCH  21  24
ENDBRANCH  19  20
ENDBRANCH  18  19
ENDBRANCH  17  18
ENDBRANCH   1  17
TORSDOF 8
ENDMDL
MODEL 4
REMARK VINA RESULT:      -7.9      3.609      4.492
REMARK  Name = 
REMARK  9 active torsions:
REMARK  status: ('A' for Active; 'I' for Inactive)
REMARK    1  A    between atoms: C_1  and  O_2
REMARK    2  A    between atoms: O_2  and  C_3
REMARK    3  A    between atoms: C_8  and  N_9
REMARK    4  A    between atoms: N_12  and  C_13
REMARK    5  A    between atoms: C_13  and  C_14
REMARK    6  A    between atoms: C_14  and  C_15
REMARK    7  A    between atoms: C_15  and  C_16
REMARK    8  A    between atoms: C_16  and  N_17
REMARK    9  A    between atoms: C_18  and  C_20
REMARK                            x       y       z     vdW  Elec       q    Type
REMARK                         _______ _______ _______ _____ _____    ______ ____
ROOT
ATOM      1  C   UNL     1       3.161   5.526  18.673  0.00  0.00    +0.000 C 
ENDROOT
BRANCH   1   5
ATOM      2  N   UNL     1       5.232   4.874  15.809  0.00  0.00    +0.000 N 
ATOM      3  C   UNL     1       4.627   3.789  16.593  0.00  0.00    +0.000 C 
ATOM      4  C   UNL     1       4.969   3.973  18.090  0.00  0.00    +0.000 C 
ATOM      5  N   UNL     1       4.616   5.302  18.650  0.00  0.00    +0.000 NA
ATOM      6  C   UNL     1       5.298   6.328  17.817  0.00  0.00    +0.000 C 
ATOM      7  C   UNL     1       4.992   6.240  16.303  0.00  0.00    +0.000 C 
BRANCH   2  13
ATOM      8  C   UNL     1       6.015   3.482  12.452  0.00  0.00    +0.000 A 
ATOM      9  C   UNL     1       7.191   4.152  12.147  0.00  0.00    +0.000 A 
ATOM     10  C   UNL     1       7.712   5.046  13.072  0.00  0.00    +0.000 A 
ATOM     11  F   UNL     1       8.845   5.704  12.779  0.00  0.00    +0.000 F 
ATOM     12  C   UNL     1       7.083   5.281  14.288  0.00  0.00    +0.000 A 
ATOM     13  C   UNL     1       5.898   4.619  14.629  0.00  0.00    +0.000 A 
ATOM     14  C   UNL     1       5.390   3.714  13.683  0.00  0.00    +0.000 A 
BRANCH   8  16
ATOM     15  C   UNL     1       4.081   2.988  11.166  0.00  0.00    +0.000 C 
ATOM     16  O   UNL     1       5.360   2.592  11.644  0.00  0.00    +0.000 OA
ENDBRANCH   8  16
ENDBRANCH   2  13
ENDBRANCH   1   5
BRANCH   1  17
ATOM     17  C   UNL     1       2.772   6.918  19.193  0.00  0.00    +0.000 C 
BRANCH  17  18
ATOM     18  C   UNL     1       2.180   7.834  18.121  0.00  0.00    +0.000 C 
BRANCH  18  19
ATOM     19  C   UNL     1       1.739   9.171  18.705  0.00  0.00    +0.000 C 
BRANCH  19  20
ATOM     20  N   UNL     1       0.354   9.449  18.410  0.00  0.00    +0.000 N 
ATOM     21  C   UNL     1      -0.137  10.733  18.443  0.00  0.00    +0.000 C 
ATOM     22  O   UNL     1       0.539  11.720  18.708  0.00  0.00    +0.000 OA
ATOM     23  H   UNL     1      -0.186   8.706  17.988  0.00  0.00    +0.000 HD
BRANCH  21  24
ATOM     24  C   UNL     1      -1.577  10.890  18.106  0.00  0.00    +0.000 A 
ATOM     25  C   UNL     1      -2.119  10.262  16.941  0.00  0.00    +0.000 A 
ATOM     26  C   UNL     1      -3.474  10.361  16.576  0.00  0.00    +0.000 A 
ATOM     27  C   UNL     1      -4.260  11.119  17.461  0.00  0.00    +0.000 A 
ATOM     28  N   UNL     1      -5.566  11.400  17.402  0.00  0.00    +0.000 NA
ATOM     29  O   UNL     1      -5.836  12.172  18.519  0.00  0.00    +0.000 OA
ATOM     30  N   UNL     1      -4.704  12.386  19.286  0.00  0.00    +0.000 NA
ATOM     31  C   UNL     1      -3.711  11.746  18.657  0.00  0.00    +0.000 A 
ATOM     32  C   UNL     1      -2.357  11.643  19.009  0.00  0.00    +0.000 A 
ENDBRANCH  21  24
ENDBRANCH  19  20
ENDBRANCH  18  19
ENDBRANCH  17  18
ENDBRANCH   1  17
TORSDOF 8
ENDMDL
MODEL 5
REMARK VINA RESULT:      -7.9      1.440      1.992
REMARK  Name = 
REMARK  9 active torsions:
REMARK  status: ('A' for Active; 'I' for Inactive)
REMARK    1  A    between atoms: C_1  and  O_2
REMARK    2  A    between atoms: O_2  and  C_3
REMARK    3  A    between atoms: C_8  and  N_9
REMARK    4  A    between atoms: N_12  and  C_13
REMARK    5  A    between atoms: C_13  and  C_14
REMARK    6  A    between atoms: C_14  and  C_15
REMARK    7  A    between atoms: C_15  and  C_16
REMARK    8  A    between atoms: C_16  and  N_17
REMARK    9  A    between atoms: C_18  and  C_20
REMARK                            x       y       z     vdW  Elec       q    Type
REMARK                         _______ _______ _______ _____ _____    ______ ____
ROOT
ATOM      1  C   UNL     1       1.585   2.338  19.475  0.00  0.00    +0.000 C 
ENDROOT
BRANCH   1   5
ATOM      2  N   UNL     1       4.491   3.895  18.043  0.00  0.00    +0.000 N 
ATOM      3  C   UNL     1       3.475   3.234  17.212  0.00  0.00    +0.000 C 
ATOM      4  C   UNL     1       3.228   1.799  17.734  0.00  0.00    +0.000 C 
ATOM      5  N   UNL     1       2.884   1.712  19.176  0.00  0.00    +0.000 NA
ATOM      6  C   UNL     1       3.979   2.374  19.932  0.00  0.00    +0.000 C 
ATOM      7  C   UNL     1       4.280   3.827  19.498  0.00  0.00    +0.000 C 
BRANCH   2  13
ATOM      8  C   UNL     1       6.886   5.200  15.516  0.00  0.00    +0.000 A 
ATOM      9  C   UNL     1       7.562   6.163  16.253  0.00  0.00    +0.000 A 
ATOM     10  C   UNL     1       7.217   6.350  17.585  0.00  0.00    +0.000 A 
ATOM     11  F   UNL     1       7.861   7.286  18.301  0.00  0.00    +0.000 F 
ATOM     12  C   UNL     1       6.217   5.599  18.189  0.00  0.00    +0.000 A 
ATOM     13  C   UNL     1       5.519   4.618  17.476  0.00  0.00    +0.000 A 
ATOM     14  C   UNL     1       5.886   4.438  16.132  0.00  0.00    +0.000 A 
BRANCH   8  16
ATOM     15  C   UNL     1       6.246   3.912  13.628  0.00  0.00    +0.000 C 
ATOM     16  O   UNL     1       7.086   4.909  14.194  0.00  0.00    +0.000 OA
ENDBRANCH   8  16
ENDBRANCH   2  13
ENDBRANCH   1   5
BRANCH   1  17
ATOM     17  C   UNL     1       1.609   3.202  20.744  0.00  0.00    +0.000 C 
BRANCH  17  18
ATOM     18  C   UNL     1       0.872   4.535  20.598  0.00  0.00    +0.000 C 
BRANCH  18  19
ATOM     19  C   UNL     1       1.836   5.715  20.609  0.00  0.00    +0.000 C 
BRANCH  19  20
ATOM     20  N   UNL     1       1.225   6.896  21.168  0.00  0.00    +0.000 N 
ATOM     21  C   UNL     1       1.359   8.123  20.560  0.00  0.00    +0.000 C 
ATOM     22  O   UNL     1       1.981   8.310  19.522  0.00  0.00    +0.000 OA
ATOM     23  H   UNL     1       0.538   6.759  21.896  0.00  0.00    +0.000 HD
BRANCH  21  24
ATOM     24  C   UNL     1       0.669   9.259  21.226  0.00  0.00    +0.000 A 
ATOM     25  C   UNL     1      -0.051   9.054  22.444  0.00  0.00    +0.000 A 
ATOM     26  C   UNL     1      -0.712  10.090  23.129  0.00  0.00    +0.000 A 
ATOM     27  C   UNL     1      -0.597  11.353  22.522  0.00  0.00    +0.000 A 
ATOM     28  N   UNL     1      -1.100  12.528  22.915  0.00  0.00    +0.000 NA
ATOM     29  O   UNL     1      -0.686  13.451  21.969  0.00  0.00    +0.000 OA
ATOM     30  N   UNL     1       0.076  12.864  20.974  0.00  0.00    +0.000 NA
ATOM     31  C   UNL     1       0.149  11.565  21.288  0.00  0.00    +0.000 A 
ATOM     32  C   UNL     1       0.803  10.523  20.613  0.00  0.00    +0.000 A 
ENDBRANCH  21  24
ENDBRANCH  19  20
ENDBRANCH  18  19
ENDBRANCH  17  18
ENDBRANCH   1  17
TORSDOF 8
ENDMDL
MODEL 6
REMARK VINA RESULT:      -7.8      6.701     10.400
REMARK  Name = 
REMARK  9 active torsions:
REMARK  status: ('A' for Active; 'I' for Inactive)
REMARK    1  A    between atoms: C_1  and  O_2
REMARK    2  A    between atoms: O_2  and  C_3
REMARK    3  A    between atoms: C_8  and  N_9
REMARK    4  A    between atoms: N_12  and  C_13
REMARK    5  A    between atoms: C_13  and  C_14
REMARK    6  A    between atoms: C_14  and  C_15
REMARK    7  A    between atoms: C_15  and  C_16
REMARK    8  A    between atoms: C_16  and  N_17
REMARK    9  A    between atoms: C_18  and  C_20
REMARK                            x       y       z     vdW  Elec       q    Type
REMARK                         _______ _______ _______ _____ _____    ______ ____
ROOT
ATOM      1  C   UNL     1       9.265  10.340  19.436  0.00  0.00    +0.000 C 
ENDROOT
BRANCH   1   5
ATOM      2  N   UNL     1       9.489  13.854  18.714  0.00  0.00    +0.000 N 
ATOM      3  C   UNL     1       9.378  12.847  17.649  0.00  0.00    +0.000 C 
ATOM      4  C   UNL     1      10.467  11.765  17.840  0.00  0.00    +0.000 C 
ATOM      5  N   UNL     1      10.482  11.128  19.182  0.00  0.00    +0.000 NA
ATOM      6  C   UNL     1      10.629  12.216  20.185  0.00  0.00    +0.000 C 
ATOM      7  C   UNL     1       9.565  13.334  20.089  0.00  0.00    +0.000 C 
BRANCH   2  13
ATOM      8  C   UNL     1       8.231  17.350  18.571  0.00  0.00    +0.000 A 
ATOM      9  C   UNL     1       9.297  17.998  17.963  0.00  0.00    +0.000 A 
ATOM     10  C   UNL     1      10.412  17.255  17.597  0.00  0.00    +0.000 A 
ATOM     11  F   UNL     1      11.450  17.877  17.016  0.00  0.00    +0.000 F 
ATOM     12  C   UNL     1      10.480  15.887  17.826  0.00  0.00    +0.000 A 
ATOM     13  C   UNL     1       9.421  15.202  18.434  0.00  0.00    +0.000 A 
ATOM     14  C   UNL     1       8.300  15.968  18.791  0.00  0.00    +0.000 A 
BRANCH   8  16
ATOM     15  C   UNL     1       5.924  17.107  19.073  0.00  0.00    +0.000 C 
ATOM     16  O   UNL     1       7.076  17.937  19.013  0.00  0.00    +0.000 OA
ENDBRANCH   8  16
ENDBRANCH   2  13
ENDBRANCH   1   5
BRANCH   1  17
ATOM     17  C   UNL     1       8.760   9.589  18.195  0.00  0.00    +0.000 C 
BRANCH  17  18
ATOM     18  C   UNL     1       8.279   8.167  18.487  0.00  0.00    +0.000 C 
BRANCH  18  19
ATOM     19  C   UNL     1       7.535   7.570  17.298  0.00  0.00    +0.000 C 
BRANCH  19  20
ATOM     20  N   UNL     1       6.323   6.903  17.709  0.00  0.00    +0.000 N 
ATOM     21  C   UNL     1       5.884   5.767  17.070  0.00  0.00    +0.000 C 
ATOM     22  O   UNL     1       6.469   5.237  16.134  0.00  0.00    +0.000 OA
ATOM     23  H   UNL     1       5.925   7.177  18.596  0.00  0.00    +0.000 HD
BRANCH  21  24
ATOM     24  C   UNL     1       4.630   5.166  17.598  0.00  0.00    +0.000 A 
ATOM     25  C   UNL     1       4.049   4.028  16.957  0.00  0.00    +0.000 A 
ATOM     26  C   UNL     1       2.873   3.406  17.415  0.00  0.00    +0.000 A 
ATOM     27  C   UNL     1       2.320   3.989  18.569  0.00  0.00    +0.000 A 
ATOM     28  N   UNL     1       1.223   3.640  19.249  0.00  0.00    +0.000 NA
ATOM     29  O   UNL     1       1.133   4.533  20.304  0.00  0.00    +0.000 OA
ATOM     30  N   UNL     1       2.169   5.450  20.294  0.00  0.00    +0.000 NA
ATOM     31  C   UNL     1       2.921   5.140  19.232  0.00  0.00    +0.000 A 
ATOM     32  C   UNL     1       4.093   5.753  18.763  0.00  0.00    +0.000 A 
ENDBRANCH  21  24
ENDBRANCH  19  20
ENDBRANCH  18  19
ENDBRANCH  17  18
ENDBRANCH   1  17
TORSDOF 8
ENDMDL
MODEL 7
REMARK VINA RESULT:      -7.7      6.834     10.482
REMARK  Name = 
REMARK  9 active torsions:
REMARK  status: ('A' for Active; 'I' for Inactive)
REMARK    1  A    between atoms: C_1  and  O_2
REMARK    2  A    between atoms: O_2  and  C_3
REMARK    3  A    between atoms: C_8  and  N_9
REMARK    4  A    between atoms: N_12  and  C_13
REMARK    5  A    between atoms: C_13  and  C_14
REMARK    6  A    between atoms: C_14  and  C_15
REMARK    7  A    between atoms: C_15  and  C_16
REMARK    8  A    between atoms: C_16  and  N_17
REMARK    9  A    between atoms: C_18  and  C_20
REMARK                            x       y       z     vdW  Elec       q    Type
REMARK                         _______ _______ _______ _____ _____    ______ ____
ROOT
ATOM      1  C   UNL     1       8.939  10.119  19.220  0.00  0.00    +0.000 C 
ENDROOT
BRANCH   1   5
ATOM      2  N   UNL     1       9.007  13.695  18.862  0.00  0.00    +0.000 N 
ATOM      3  C   UNL     1       9.062  12.797  17.700  0.00  0.00    +0.000 C 
ATOM      4  C   UNL     1      10.194  11.760  17.896  0.00  0.00    +0.000 C 
ATOM      5  N   UNL     1      10.122  10.994  19.166  0.00  0.00    +0.000 NA
ATOM      6  C   UNL     1      10.104  11.981  20.278  0.00  0.00    +0.000 C 
ATOM      7  C   UNL     1       8.985  13.044  20.182  0.00  0.00    +0.000 C 
BRANCH   2  13
ATOM      8  C   UNL     1       9.785  17.206  17.918  0.00  0.00    +0.000 A 
ATOM      9  C   UNL     1       8.610  17.852  18.278  0.00  0.00    +0.000 A 
ATOM     10  C   UNL     1       7.584  17.108  18.844  0.00  0.00    +0.000 A 
ATOM     11  F   UNL     1       6.441  17.724  19.186  0.00  0.00    +0.000 F 
ATOM     12  C   UNL     1       7.708  15.740  19.054  0.00  0.00    +0.000 A 
ATOM     13  C   UNL     1       8.881  15.059  18.706  0.00  0.00    +0.000 A 
ATOM     14  C   UNL     1       9.911  15.829  18.142  0.00  0.00    +0.000 A 
BRANCH   8  16
ATOM     15  C   UNL     1      12.122  17.123  17.506  0.00  0.00    +0.000 C 
ATOM     16  O   UNL     1      10.877  17.786  17.330  0.00  0.00    +0.000 OA
ENDBRANCH   8  16
ENDBRANCH   2  13
ENDBRANCH   1   5
BRANCH   1  17
ATOM     17  C   UNL     1       8.894   9.091  18.081  0.00  0.00    +0.000 C 
BRANCH  17  18
ATOM     18  C   UNL     1       7.520   8.448  17.883  0.00  0.00    +0.000 C 
BRANCH  18  19
ATOM     19  C   UNL     1       7.632   6.949  17.633  0.00  0.00    +0.000 C 
BRANCH  19  20
ATOM     20  N   UNL     1       6.338   6.311  17.633  0.00  0.00    +0.000 N 
ATOM     21  C   UNL     1       5.931   5.525  18.685  0.00  0.00    +0.000 C 
ATOM     22  O   UNL     1       6.607   5.312  19.684  0.00  0.00    +0.000 OA
ATOM     23  H   UNL     1       5.671   6.621  16.939  0.00  0.00    +0.000 HD
BRANCH  21  24
ATOM     24  C   UNL     1       4.569   4.937  18.572  0.00  0.00    +0.000 A 
ATOM     25  C   UNL     1       3.466   5.744  18.154  0.00  0.00    +0.000 A 
ATOM     26  C   UNL     1       2.158   5.244  18.014  0.00  0.00    +0.000 A 
ATOM     27  C   UNL     1       2.026   3.876  18.307  0.00  0.00    +0.000 A 
ATOM     28  N   UNL     1       0.933   3.106  18.270  0.00  0.00    +0.000 NA
ATOM     29  O   UNL     1       1.352   1.839  18.640  0.00  0.00    +0.000 OA
ATOM     30  N   UNL     1       2.708   1.802  18.915  0.00  0.00    +0.000 NA
ATOM     31  C   UNL     1       3.154   3.049  18.718  0.00  0.00    +0.000 A 
ATOM     32  C   UNL     1       4.453   3.560  18.857  0.00  0.00    +0.000 A 
ENDBRANCH  21  24
ENDBRANCH  19  20
ENDBRANCH  18  19
ENDBRANCH  17  18
ENDBRANCH   1  17
TORSDOF 8
ENDMDL
MODEL 8
REMARK VINA RESULT:      -7.6      3.212      9.054
REMARK  Name = 
REMARK  9 active torsions:
REMARK  status: ('A' for Active; 'I' for Inactive)
REMARK    1  A    between atoms: C_1  and  O_2
REMARK    2  A    between atoms: O_2  and  C_3
REMARK    3  A    between atoms: C_8  and  N_9
REMARK    4  A    between atoms: N_12  and  C_13
REMARK    5  A    between atoms: C_13  and  C_14
REMARK    6  A    between atoms: C_14  and  C_15
REMARK    7  A    between atoms: C_15  and  C_16
REMARK    8  A    between atoms: C_16  and  N_17
REMARK    9  A    between atoms: C_18  and  C_20
REMARK                            x       y       z     vdW  Elec       q    Type
REMARK                         _______ _______ _______ _____ _____    ______ ____
ROOT
ATOM      1  C   UNL     1       1.447   5.875  19.495  0.00  0.00    +0.000 C 
ENDROOT
BRANCH   1   5
ATOM      2  N   UNL     1       0.994   9.431  19.242  0.00  0.00    +0.000 N 
ATOM      3  C   UNL     1       1.482   8.628  18.112  0.00  0.00    +0.000 C 
ATOM      4  C   UNL     1       2.690   7.774  18.563  0.00  0.00    +0.000 C 
ATOM      5  N   UNL     1       2.442   6.927  19.758  0.00  0.00    +0.000 NA
ATOM      6  C   UNL     1       1.987   7.827  20.851  0.00  0.00    +0.000 C 
ATOM      7  C   UNL     1       0.762   8.704  20.500  0.00  0.00    +0.000 C 
BRANCH   2  13
ATOM      8  C   UNL     1      -0.895  12.632  19.377  0.00  0.00    +0.000 A 
ATOM      9  C   UNL     1       0.046  13.524  18.880  0.00  0.00    +0.000 A 
ATOM     10  C   UNL     1       1.288  13.041  18.494  0.00  0.00    +0.000 A 
ATOM     11  F   UNL     1       2.205  13.899  18.020  0.00  0.00    +0.000 F 
ATOM     12  C   UNL     1       1.607  11.692  18.595  0.00  0.00    +0.000 A 
ATOM     13  C   UNL     1       0.681  10.766  19.088  0.00  0.00    +0.000 A 
ATOM     14  C   UNL     1      -0.573  11.271  19.467  0.00  0.00    +0.000 A 
BRANCH   8  16
ATOM     15  C   UNL     1      -2.231  13.899  20.875  0.00  0.00    +0.000 C 
ATOM     16  O   UNL     1      -2.150  12.947  19.822  0.00  0.00    +0.000 OA
ENDBRANCH   8  16
ENDBRANCH   2  13
ENDBRANCH   1   5
BRANCH   1  17
ATOM     17  C   UNL     1       1.412   4.790  20.582  0.00  0.00    +0.000 C 
BRANCH  17  18
ATOM     18  C   UNL     1       0.908   3.434  20.086  0.00  0.00    +0.000 C 
BRANCH  18  19
ATOM     19  C   UNL     1       2.059   2.481  19.789  0.00  0.00    +0.000 C 
BRANCH  19  20
ATOM     20  N   UNL     1       3.166   3.162  19.163  0.00  0.00    +0.000 N 
ATOM     21  C   UNL     1       3.171   3.422  17.813  0.00  0.00    +0.000 C 
ATOM     22  O   UNL     1       2.262   3.115  17.052  0.00  0.00    +0.000 OA
ATOM     23  H   UNL     1       3.833   3.613  19.773  0.00  0.00    +0.000 HD
BRANCH  21  24
ATOM     24  C   UNL     1       4.363   4.143  17.292  0.00  0.00    +0.000 A 
ATOM     25  C   UNL     1       5.033   5.111  18.102  0.00  0.00    +0.000 A 
ATOM     26  C   UNL     1       6.172   5.817  17.673  0.00  0.00    +0.000 A 
ATOM     27  C   UNL     1       6.609   5.481  16.380  0.00  0.00    +0.000 A 
ATOM     28  N   UNL     1       7.648   5.960  15.688  0.00  0.00    +0.000 NA
ATOM     29  O   UNL     1       7.636   5.289  14.476  0.00  0.00    +0.000 OA
ATOM     30  N   UNL     1       6.590   4.387  14.395  0.00  0.00    +0.000 NA
ATOM     31  C   UNL     1       5.935   4.482  15.559  0.00  0.00    +0.000 A 
ATOM     32  C   UNL     1       4.798   3.788  15.997  0.00  0.00    +0.000 A 
ENDBRANCH  21  24
ENDBRANCH  19  20
ENDBRANCH  18  19
ENDBRANCH  17  18
ENDBRANCH   1  17
TORSDOF 8
ENDMDL
MODEL 9
REMARK VINA RESULT:      -7.6      1.801      2.338
REMARK  Name = 
REMARK  9 active torsions:
REMARK  status: ('A' for Active; 'I' for Inactive)
REMARK    1  A    between atoms: C_1  and  O_2
REMARK    2  A    between atoms: O_2  and  C_3
REMARK    3  A    between atoms: C_8  and  N_9
REMARK    4  A    between atoms: N_12  and  C_13
REMARK    5  A    between atoms: C_13  and  C_14
REMARK    6  A    between atoms: C_14  and  C_15
REMARK    7  A    between atoms: C_15  and  C_16
REMARK    8  A    between atoms: C_16  and  N_17
REMARK    9  A    between atoms: C_18  and  C_20
REMARK                            x       y       z     vdW  Elec       q    Type
REMARK                         _______ _______ _______ _____ _____    ______ ____
ROOT
ATOM      1  C   UNL     1       1.143   2.399  19.368  0.00  0.00    +0.000 C 
ENDROOT
BRANCH   1   5
ATOM      2  N   UNL     1       4.228   3.849  18.230  0.00  0.00    +0.000 N 
ATOM      3  C   UNL     1       2.925   4.300  17.723  0.00  0.00    +0.000 C 
ATOM      4  C   UNL     1       2.112   3.084  17.220  0.00  0.00    +0.000 C 
ATOM      5  N   UNL     1       1.955   1.988  18.211  0.00  0.00    +0.000 NA
ATOM      6  C   UNL     1       3.319   1.579  18.638  0.00  0.00    +0.000 C 
ATOM      7  C   UNL     1       4.199   2.728  19.183  0.00  0.00    +0.000 C 
BRANCH   2  13
ATOM      8  C   UNL     1       6.952   5.363  16.201  0.00  0.00    +0.000 A 
ATOM      9  C   UNL     1       7.727   5.959  17.187  0.00  0.00    +0.000 A 
ATOM     10  C   UNL     1       7.336   5.833  18.513  0.00  0.00    +0.000 A 
ATOM     11  F   UNL     1       8.076   6.414  19.471  0.00  0.00    +0.000 F 
ATOM     12  C   UNL     1       6.193   5.128  18.870  0.00  0.00    +0.000 A 
ATOM     13  C   UNL     1       5.392   4.512  17.901  0.00  0.00    +0.000 A 
ATOM     14  C   UNL     1       5.807   4.645  16.566  0.00  0.00    +0.000 A 
BRANCH   8  16
ATOM     15  C   UNL     1       6.541   4.424  14.060  0.00  0.00    +0.000 C 
ATOM     16  O   UNL     1       7.183   5.414  14.853  0.00  0.00    +0.000 OA
ENDBRANCH   8  16
ENDBRANCH   2  13
ENDBRANCH   1   5
BRANCH   1  17
ATOM     17  C   UNL     1       1.033   3.924  19.520  0.00  0.00    +0.000 C 
BRANCH  17  18
ATOM     18  C   UNL     1       1.397   4.434  20.915  0.00  0.00    +0.000 C 
BRANCH  18  19
ATOM     19  C   UNL     1       2.198   5.728  20.849  0.00  0.00    +0.000 C 
BRANCH  19  20
ATOM     20  N   UNL     1       1.406   6.866  21.249  0.00  0.00    +0.000 N 
ATOM     21  C   UNL     1       1.396   8.024  20.507  0.00  0.00    +0.000 C 
ATOM     22  O   UNL     1       2.033   8.181  19.473  0.00  0.00    +0.000 OA
ATOM     23  H   UNL     1       0.713   6.714  21.968  0.00  0.00    +0.000 HD
BRANCH  21  24
ATOM     24  C   UNL     1       0.527   9.117  21.017  0.00  0.00    +0.000 A 
ATOM     25  C   UNL     1       0.319   9.280  22.422  0.00  0.00    +0.000 A 
ATOM     26  C   UNL     1      -0.480  10.302  22.967  0.00  0.00    +0.000 A 
ATOM     27  C   UNL     1      -1.050  11.163  22.013  0.00  0.00    +0.000 A 
ATOM     28  N   UNL     1      -1.847  12.221  22.200  0.00  0.00    +0.000 NA
ATOM     29  O   UNL     1      -2.115  12.718  20.935  0.00  0.00    +0.000 OA
ATOM     30  N   UNL     1      -1.493  11.977  19.946  0.00  0.00    +0.000 NA
ATOM     31  C   UNL     1      -0.826  11.007  20.581  0.00  0.00    +0.000 A 
ATOM     32  C   UNL     1      -0.029   9.982  20.050  0.00  0.00    +0.000 A 
ENDBRANCH  21  24
ENDBRANCH  19  20
ENDBRANCH  18  19
ENDBRANCH  17  18
ENDBRANCH   1  17
TORSDOF 8
ENDMDL
