MODEL 1
REMARK VINA RESULT:      -7.3      0.000      0.000
REMARK  Name = 
REMARK  13 active torsions:
REMARK  status: ('A' for Active; 'I' for Inactive)
REMARK    1  A    between atoms: C_1  and  C_2
REMARK    2  A    between atoms: C_2  and  O_3
REMARK    3  A    between atoms: O_3  and  C_4
REMARK    4  A    between atoms: C_7  and  C_8
REMARK    5  A    between atoms: N_10  and  C_11
REMARK    6  A    between atoms: C_11  and  C_12
REMARK    7  A    between atoms: C_12  and  O_14
REMARK    8  A    between atoms: O_14  and  C_15
REMARK    9  A    between atoms: C_15  and  C_16
REMARK   10  A    between atoms: N_18  and  C_19
REMARK   11  A    between atoms: C_24  and  O_25
REMARK   12  A    between atoms: O_25  and  C_26
REMARK   13  A    between atoms: C_26  and  C_27
REMARK                            x       y       z     vdW  Elec       q    Type
REMARK                         _______ _______ _______ _____ _____    ______ ____
ROOT
ATOM      1  C   UNL     1       1.320   2.514  19.578  0.00  0.00    +0.000 C 
ATOM      2  O   UNL     1       0.293   2.251  18.959  0.00  0.00    +0.000 OA
ENDROOT
BRANCH   1   3
ATOM      3  C   UNL     1       1.403   3.498  20.734  0.00  0.00    +0.000 C 
BRANCH   3   6
ATOM      4  C   UNL     1       2.192   5.734  20.106  0.00  0.00    +0.000 C 
ATOM      5  O   UNL     1       3.360   5.397  20.264  0.00  0.00    +0.000 OA
ATOM      6  N   UNL     1       1.142   4.864  20.311  0.00  0.00    +0.000 N 
ATOM      7  H   UNL     1       0.194   5.091  20.057  0.00  0.00    +0.000 HD
BRANCH   4  11
ATOM      8  C   UNL     1       1.208   9.775  18.982  0.00  0.00    +0.000 A 
ATOM      9  C   UNL     1       0.876   9.268  20.236  0.00  0.00    +0.000 A 
ATOM     10  C   UNL     1       1.211   7.956  20.573  0.00  0.00    +0.000 A 
ATOM     11  C   UNL     1       1.871   7.123  19.659  0.00  0.00    +0.000 A 
ATOM     12  C   UNL     1       2.166   7.625  18.386  0.00  0.00    +0.000 A 
ATOM     13  C   UNL     1       1.830   8.944  18.051  0.00  0.00    +0.000 A 
BRANCH   8  14
ATOM     14  O   UNL     1       0.864  11.080  18.774  0.00  0.00    +0.000 OA
BRANCH  14  16
ATOM     15  C   UNL     1       2.505  12.697  18.179  0.00  0.00    +0.000 C 
ATOM     16  C   UNL     1       1.746  12.057  19.327  0.00  0.00    +0.000 C 
ENDBRANCH  14  16
ENDBRANCH   8  14
ENDBRANCH   4  11
ENDBRANCH   3   6
ENDBRANCH   1   3
BRANCH   1  17
ATOM     17  O   UNL     1       2.549   1.988  19.312  0.00  0.00    +0.000 OA
BRANCH  17  18
ATOM     18  C   UNL     1       2.883   1.934  17.928  0.00  0.00    +0.000 C 
BRANCH  18  19
ATOM     19  C   UNL     1       3.601   3.230  17.540  0.00  0.00    +0.000 C 
ATOM     20  O   UNL     1       2.986   4.225  17.160  0.00  0.00    +0.000 OA
ATOM     21  N   UNL     1       4.978   3.159  17.692  0.00  0.00    +0.000 N 
ATOM     22  H   UNL     1       5.371   2.339  18.123  0.00  0.00    +0.000 HD
BRANCH  21  23
ATOM     23  C   UNL     1       5.806   4.286  17.529  0.00  0.00    +0.000 A 
ATOM     24  C   UNL     1       5.989   5.108  18.652  0.00  0.00    +0.000 A 
ATOM     25  C   UNL     1       6.780   6.252  18.588  0.00  0.00    +0.000 A 
ATOM     26  C   UNL     1       7.438   6.565  17.404  0.00  0.00    +0.000 A 
ATOM     27  C   UNL     1       7.280   5.745  16.285  0.00  0.00    +0.000 A 
ATOM     28  C   UNL     1       6.439   4.621  16.317  0.00  0.00    +0.000 A 
BRANCH  28  29
ATOM     29  O   UNL     1       6.476   3.893  15.153  0.00  0.00    +0.000 OA
BRANCH  29  30
ATOM     30  C   UNL     1       5.487   4.174  14.174  0.00  0.00    +0.000 C 
ATOM     31  C   UNL     1       5.946   3.648  12.826  0.00  0.00    +0.000 C 
ENDBRANCH  29  30
ENDBRANCH  28  29
ENDBRANCH  21  23
ENDBRANCH  18  19
ENDBRANCH  17  18
ENDBRANCH   1  17
TORSDOF 11
ENDMDL
MODEL 2
REMARK VINA RESULT:      -6.9      0.802      1.284
REMARK  Name = 
REMARK  13 active torsions:
REMARK  status: ('A' for Active; 'I' for Inactive)
REMARK    1  A    between atoms: C_1  and  C_2
REMARK    2  A    between atoms: C_2  and  O_3
REMARK    3  A    between atoms: O_3  and  C_4
REMARK    4  A    between atoms: C_7  and  C_8
REMARK    5  A    between atoms: N_10  and  C_11
REMARK    6  A    between atoms: C_11  and  C_12
REMARK    7  A    between atoms: C_12  and  O_14
REMARK    8  A    between atoms: O_14  and  C_15
REMARK    9  A    between atoms: C_15  and  C_16
REMARK   10  A    between atoms: N_18  and  C_19
REMARK   11  A    between atoms: C_24  and  O_25
REMARK   12  A    between atoms: O_25  and  C_26
REMARK   13  A    between atoms: C_26  and  C_27
REMARK                            x       y       z     vdW  Elec       q    Type
REMARK                         _______ _______ _______ _____ _____    ______ ____
ROOT
ATOM      1  C   UNL     1       1.791   3.129  19.883  0.00  0.00    +0.000 C 
ATOM      2  O   UNL     1       0.705   3.234  19.321  0.00  0.00    +0.000 OA
ENDROOT
BRANCH   1   3
ATOM      3  C   UNL     1       2.323   4.101  20.924  0.00  0.00    +0.000 C 
BRANCH   3   6
ATOM      4  C   UNL     1       2.427   6.347  19.943  0.00  0.00    +0.000 C 
ATOM      5  O   UNL     1       3.461   6.068  19.344  0.00  0.00    +0.000 OA
ATOM      6  N   UNL     1       1.780   5.438  20.753  0.00  0.00    +0.000 N 
ATOM      7  H   UNL     1       0.867   5.614  21.140  0.00  0.00    +0.000 HD
BRANCH   4  11
ATOM      8  C   UNL     1       0.725  10.257  19.331  0.00  0.00    +0.000 A 
ATOM      9  C   UNL     1       1.426   9.603  18.321  0.00  0.00    +0.000 A 
ATOM     10  C   UNL     1       1.963   8.335  18.547  0.00  0.00    +0.000 A 
ATOM     11  C   UNL     1       1.821   7.704  19.791  0.00  0.00    +0.000 A 
ATOM     12  C   UNL     1       1.152   8.383  20.815  0.00  0.00    +0.000 A 
ATOM     13  C   UNL     1       0.611   9.656  20.584  0.00  0.00    +0.000 A 
BRANCH   8  14
ATOM     14  O   UNL     1       0.214  11.476  18.988  0.00  0.00    +0.000 OA
BRANCH  14  16
ATOM     15  C   UNL     1      -0.183  13.355  20.392  0.00  0.00    +0.000 C 
ATOM     16  C   UNL     1       0.853  12.612  19.569  0.00  0.00    +0.000 C 
ENDBRANCH  14  16
ENDBRANCH   8  14
ENDBRANCH   4  11
ENDBRANCH   3   6
ENDBRANCH   1   3
BRANCH   1  17
ATOM     17  O   UNL     1       2.702   2.144  19.643  0.00  0.00    +0.000 OA
BRANCH  17  18
ATOM     18  C   UNL     1       2.948   1.886  18.263  0.00  0.00    +0.000 C 
BRANCH  18  19
ATOM     19  C   UNL     1       3.691   3.081  17.660  0.00  0.00    +0.000 C 
ATOM     20  O   UNL     1       3.126   3.900  16.938  0.00  0.00    +0.000 OA
ATOM     21  N   UNL     1       5.025   3.142  18.037  0.00  0.00    +0.000 N 
ATOM     22  H   UNL     1       5.359   2.490  18.727  0.00  0.00    +0.000 HD
BRANCH  21  23
ATOM     23  C   UNL     1       5.843   4.241  17.709  0.00  0.00    +0.000 A 
ATOM     24  C   UNL     1       6.223   5.087  18.764  0.00  0.00    +0.000 A 
ATOM     25  C   UNL     1       7.021   6.205  18.539  0.00  0.00    +0.000 A 
ATOM     26  C   UNL     1       7.489   6.468  17.257  0.00  0.00    +0.000 A 
ATOM     27  C   UNL     1       7.134   5.623  16.203  0.00  0.00    +0.000 A 
ATOM     28  C   UNL     1       6.281   4.525  16.403  0.00  0.00    +0.000 A 
BRANCH  28  29
ATOM     29  O   UNL     1       6.114   3.766  15.271  0.00  0.00    +0.000 OA
BRANCH  29  30
ATOM     30  C   UNL     1       6.278   4.413  14.018  0.00  0.00    +0.000 C 
ATOM     31  C   UNL     1       5.980   3.433  12.899  0.00  0.00    +0.000 C 
ENDBRANCH  29  30
ENDBRANCH  28  29
ENDBRANCH  21  23
ENDBRANCH  18  19
ENDBRANCH  17  18
ENDBRANCH   1  17
TORSDOF 11
ENDMDL
MODEL 3
REMARK VINA RESULT:      -6.8      2.562      3.846
REMARK  Name = 
REMARK  13 active torsions:
REMARK  status: ('A' for Active; 'I' for Inactive)
REMARK    1  A    between atoms: C_1  and  C_2
REMARK    2  A    between atoms: C_2  and  O_3
REMARK    3  A    between atoms: O_3  and  C_4
REMARK    4  A    between atoms: C_7  and  C_8
REMARK    5  A    between atoms: N_10  and  C_11
REMARK    6  A    between atoms: C_11  and  C_12
REMARK    7  A    between atoms: C_12  and  O_14
REMARK    8  A    between atoms: O_14  and  C_15
REMARK    9  A    between atoms: C_15  and  C_16
REMARK   10  A    between atoms: N_18  and  C_19
REMARK   11  A    between atoms: C_24  and  O_25
REMARK   12  A    between atoms: O_25  and  C_26
REMARK   13  A    between atoms: C_26  and  C_27
REMARK                            x       y       z     vdW  Elec       q    Type
REMARK                         _______ _______ _______ _____ _____    ______ ____
ROOT
ATOM      1  C   UNL     1       1.849   4.696  20.112  0.00  0.00    +0.000 C 
ATOM      2  O   UNL     1       1.713   4.043  21.141  0.00  0.00    +0.000 OA
ENDROOT
BRANCH   1   3
ATOM      3  C   UNL     1       2.510   6.063  20.037  0.00  0.00    +0.000 C 
BRANCH   3   6
ATOM      4  C   UNL     1       1.474   8.272  20.292  0.00  0.00    +0.000 C 
ATOM      5  O   UNL     1       1.735   8.559  19.128  0.00  0.00    +0.000 OA
ATOM      6  N   UNL     1       1.815   7.054  20.841  0.00  0.00    +0.000 N 
ATOM      7  H   UNL     1       1.490   6.761  21.748  0.00  0.00    +0.000 HD
BRANCH   4  11
ATOM      8  C   UNL     1      -0.591  11.219  22.659  0.00  0.00    +0.000 A 
ATOM      9  C   UNL     1       0.046  11.560  21.468  0.00  0.00    +0.000 A 
ATOM     10  C   UNL     1       0.704  10.582  20.720  0.00  0.00    +0.000 A 
ATOM     11  C   UNL     1       0.749   9.251  21.156  0.00  0.00    +0.000 A 
ATOM     12  C   UNL     1       0.142   8.922  22.374  0.00  0.00    +0.000 A 
ATOM     13  C   UNL     1      -0.520   9.905  23.122  0.00  0.00    +0.000 A 
BRANCH   8  14
ATOM     14  O   UNL     1      -1.233  12.247  23.288  0.00  0.00    +0.000 OA
BRANCH  14  16
ATOM     15  C   UNL     1      -3.588  12.499  23.512  0.00  0.00    +0.000 C 
ATOM     16  C   UNL     1      -2.386  12.767  22.626  0.00  0.00    +0.000 C 
ENDBRANCH  14  16
ENDBRANCH   8  14
ENDBRANCH   4  11
ENDBRANCH   3   6
ENDBRANCH   1   3
BRANCH   1  17
ATOM     17  O   UNL     1       1.405   4.315  18.881  0.00  0.00    +0.000 OA
BRANCH  17  18
ATOM     18  C   UNL     1       1.931   3.073  18.419  0.00  0.00    +0.000 C 
BRANCH  18  19
ATOM     19  C   UNL     1       3.387   3.279  17.993  0.00  0.00    +0.000 C 
ATOM     20  O   UNL     1       4.304   2.613  18.471  0.00  0.00    +0.000 OA
ATOM     21  N   UNL     1       3.539   4.251  17.016  0.00  0.00    +0.000 N 
ATOM     22  H   UNL     1       2.712   4.653  16.607  0.00  0.00    +0.000 HD
BRANCH  21  23
ATOM     23  C   UNL     1       4.776   4.490  16.386  0.00  0.00    +0.000 A 
ATOM     24  C   UNL     1       4.967   3.909  15.122  0.00  0.00    +0.000 A 
ATOM     25  C   UNL     1       6.161   4.077  14.425  0.00  0.00    +0.000 A 
ATOM     26  C   UNL     1       7.166   4.870  14.966  0.00  0.00    +0.000 A 
ATOM     27  C   UNL     1       6.980   5.469  16.214  0.00  0.00    +0.000 A 
ATOM     28  C   UNL     1       5.807   5.260  16.956  0.00  0.00    +0.000 A 
BRANCH  28  29
ATOM     29  O   UNL     1       5.770   5.995  18.116  0.00  0.00    +0.000 OA
BRANCH  29  30
ATOM     30  C   UNL     1       6.257   5.377  19.298  0.00  0.00    +0.000 C 
ATOM     31  C   UNL     1       7.719   5.733  19.490  0.00  0.00    +0.000 C 
ENDBRANCH  29  30
ENDBRANCH  28  29
ENDBRANCH  21  23
ENDBRANCH  18  19
ENDBRANCH  17  18
ENDBRANCH   1  17
TORSDOF 11
ENDMDL
MODEL 4
REMARK VINA RESULT:      -6.8      5.106      7.783
REMARK  Name = 
REMARK  13 active torsions:
REMARK  status: ('A' for Active; 'I' for Inactive)
REMARK    1  A    between atoms: C_1  and  C_2
REMARK    2  A    between atoms: C_2  and  O_3
REMARK    3  A    between atoms: O_3  and  C_4
REMARK    4  A    between atoms: C_7  and  C_8
REMARK    5  A    between atoms: N_10  and  C_11
REMARK    6  A    between atoms: C_11  and  C_12
REMARK    7  A    between atoms: C_12  and  O_14
REMARK    8  A    between atoms: O_14  and  C_15
REMARK    9  A    between atoms: C_15  and  C_16
REMARK   10  A    between atoms: N_18  and  C_19
REMARK   11  A    between atoms: C_24  and  O_25
REMARK   12  A    between atoms: O_25  and  C_26
REMARK   13  A    between atoms: C_26  and  C_27
REMARK                            x       y       z     vdW  Elec       q    Type
REMARK                         _______ _______ _______ _____ _____    ______ ____
ROOT
ATOM      1  C   UNL     1       7.552   7.028  17.656  0.00  0.00    +0.000 C 
ATOM      2  O   UNL     1       6.977   7.449  16.657  0.00  0.00    +0.000 OA
ENDROOT
BRANCH   1   3
ATOM      3  C   UNL     1       8.222   7.906  18.701  0.00  0.00    +0.000 C 
BRANCH   3   6
ATOM      4  C   UNL     1       9.167  10.153  18.973  0.00  0.00    +0.000 C 
ATOM      5  O   UNL     1       9.204  10.020  20.192  0.00  0.00    +0.000 OA
ATOM      6  N   UNL     1       8.698   9.159  18.140  0.00  0.00    +0.000 N 
ATOM      7  H   UNL     1       8.788   9.208  17.138  0.00  0.00    +0.000 HD
BRANCH   4  11
ATOM      8  C   UNL     1      10.746  13.730  17.165  0.00  0.00    +0.000 A 
ATOM      9  C   UNL     1      11.581  12.694  17.577  0.00  0.00    +0.000 A 
ATOM     10  C   UNL     1      11.041  11.545  18.156  0.00  0.00    +0.000 A 
ATOM     11  C   UNL     1       9.658  11.418  18.347  0.00  0.00    +0.000 A 
ATOM     12  C   UNL     1       8.827  12.479  17.969  0.00  0.00    +0.000 A 
ATOM     13  C   UNL     1       9.373  13.630  17.385  0.00  0.00    +0.000 A 
BRANCH   8  14
ATOM     14  O   UNL     1      11.380  14.788  16.580  0.00  0.00    +0.000 OA
BRANCH  14  16
ATOM     15  C   UNL     1      11.680  16.486  18.220  0.00  0.00    +0.000 C 
ATOM     16  C   UNL     1      10.925  16.085  16.966  0.00  0.00    +0.000 C 
ENDBRANCH  14  16
ENDBRANCH   8  14
ENDBRANCH   4  11
ENDBRANCH   3   6
ENDBRANCH   1   3
BRANCH   1  17
ATOM     17  O   UNL     1       7.703   5.711  17.973  0.00  0.00    +0.000 OA
BRANCH  17  18
ATOM     18  C   UNL     1       7.228   4.804  16.982  0.00  0.00    +0.000 C 
BRANCH  18  19
ATOM     19  C   UNL     1       5.719   4.619  17.162  0.00  0.00    +0.000 C 
ATOM     20  O   UNL     1       4.917   4.923  16.280  0.00  0.00    +0.000 OA
ATOM     21  N   UNL     1       5.379   4.059  18.384  0.00  0.00    +0.000 N 
ATOM     22  H   UNL     1       6.117   3.736  18.987  0.00  0.00    +0.000 HD
BRANCH  21  23
ATOM     23  C   UNL     1       4.058   3.673  18.687  0.00  0.00    +0.000 A 
ATOM     24  C   UNL     1       3.689   2.358  18.360  0.00  0.00    +0.000 A 
ATOM     25  C   UNL     1       2.403   1.887  18.609  0.00  0.00    +0.000 A 
ATOM     26  C   UNL     1       1.478   2.716  19.233  0.00  0.00    +0.000 A 
ATOM     27  C   UNL     1       1.838   4.020  19.580  0.00  0.00    +0.000 A 
ATOM     28  C   UNL     1       3.112   4.529  19.282  0.00  0.00    +0.000 A 
BRANCH  28  29
ATOM     29  O   UNL     1       3.309   5.796  19.774  0.00  0.00    +0.000 OA
BRANCH  29  30
ATOM     30  C   UNL     1       2.543   6.846  19.204  0.00  0.00    +0.000 C 
ATOM     31  C   UNL     1       1.833   7.610  20.305  0.00  0.00    +0.000 C 
ENDBRANCH  29  30
ENDBRANCH  28  29
ENDBRANCH  21  23
ENDBRANCH  18  19
ENDBRANCH  17  18
ENDBRANCH   1  17
TORSDOF 11
ENDMDL
MODEL 5
REMARK VINA RESULT:      -6.7      1.576      2.827
REMARK  Name = 
REMARK  13 active torsions:
REMARK  status: ('A' for Active; 'I' for Inactive)
REMARK    1  A    between atoms: C_1  and  C_2
REMARK    2  A    between atoms: C_2  and  O_3
REMARK    3  A    between atoms: O_3  and  C_4
REMARK    4  A    between atoms: C_7  and  C_8
REMARK    5  A    between atoms: N_10  and  C_11
REMARK    6  A    between atoms: C_11  and  C_12
REMARK    7  A    between atoms: C_12  and  O_14
REMARK    8  A    between atoms: O_14  and  C_15
REMARK    9  A    between atoms: C_15  and  C_16
REMARK   10  A    between atoms: N_18  and  C_19
REMARK   11  A    between atoms: C_24  and  O_25
REMARK   12  A    between atoms: O_25  and  C_26
REMARK   13  A    between atoms: C_26  and  C_27
REMARK                            x       y       z     vdW  Elec       q    Type
REMARK                         _______ _______ _______ _____ _____    ______ ____
ROOT
ATOM      1  C   UNL     1       1.645   3.552  20.253  0.00  0.00    +0.000 C 
ATOM      2  O   UNL     1       0.444   3.730  20.430  0.00  0.00    +0.000 OA
ENDROOT
BRANCH   1   3
ATOM      3  C   UNL     1       2.734   4.532  20.661  0.00  0.00    +0.000 C 
BRANCH   3   6
ATOM      4  C   UNL     1       2.281   6.646  19.502  0.00  0.00    +0.000 C 
ATOM      5  O   UNL     1       2.686   6.183  18.441  0.00  0.00    +0.000 OA
ATOM      6  N   UNL     1       2.261   5.906  20.665  0.00  0.00    +0.000 N 
ATOM      7  H   UNL     1       1.810   6.232  21.505  0.00  0.00    +0.000 HD
BRANCH   4  11
ATOM      8  C   UNL     1       0.844  10.707  19.485  0.00  0.00    +0.000 A 
ATOM      9  C   UNL     1       1.402  10.129  18.347  0.00  0.00    +0.000 A 
ATOM     10  C   UNL     1       1.856   8.809  18.382  0.00  0.00    +0.000 A 
ATOM     11  C   UNL     1       1.772   8.050  19.557  0.00  0.00    +0.000 A 
ATOM     12  C   UNL     1       1.247   8.649  20.708  0.00  0.00    +0.000 A 
ATOM     13  C   UNL     1       0.790   9.973  20.669  0.00  0.00    +0.000 A 
BRANCH   8  14
ATOM     14  O   UNL     1       0.401  11.989  19.326  0.00  0.00    +0.000 OA
BRANCH  14  16
ATOM     15  C   UNL     1      -1.976  12.071  19.254  0.00  0.00    +0.000 C 
ATOM     16  C   UNL     1      -0.744  12.358  20.094  0.00  0.00    +0.000 C 
ENDBRANCH  14  16
ENDBRANCH   8  14
ENDBRANCH   4  11
ENDBRANCH   3   6
ENDBRANCH   1   3
BRANCH   1  17
ATOM     17  O   UNL     1       2.191   2.464  19.639  0.00  0.00    +0.000 OA
BRANCH  17  18
ATOM     18  C   UNL     1       2.133   2.495  18.215  0.00  0.00    +0.000 C 
BRANCH  18  19
ATOM     19  C   UNL     1       3.544   2.728  17.667  0.00  0.00    +0.000 C 
ATOM     20  O   UNL     1       4.424   1.873  17.754  0.00  0.00    +0.000 OA
ATOM     21  N   UNL     1       3.695   3.963  17.055  0.00  0.00    +0.000 N 
ATOM     22  H   UNL     1       2.880   4.541  16.931  0.00  0.00    +0.000 HD
BRANCH  21  23
ATOM     23  C   UNL     1       4.870   4.313  16.360  0.00  0.00    +0.000 A 
ATOM     24  C   UNL     1       5.036   3.765  15.078  0.00  0.00    +0.000 A 
ATOM     25  C   UNL     1       6.169   4.042  14.317  0.00  0.00    +0.000 A 
ATOM     26  C   UNL     1       7.133   4.910  14.814  0.00  0.00    +0.000 A 
ATOM     27  C   UNL     1       6.971   5.477  16.081  0.00  0.00    +0.000 A 
ATOM     28  C   UNL     1       5.864   5.161  16.884  0.00  0.00    +0.000 A 
BRANCH  28  29
ATOM     29  O   UNL     1       5.832   5.877  18.056  0.00  0.00    +0.000 OA
BRANCH  29  30
ATOM     30  C   UNL     1       6.381   5.263  19.212  0.00  0.00    +0.000 C 
ATOM     31  C   UNL     1       7.791   5.776  19.437  0.00  0.00    +0.000 C 
ENDBRANCH  29  30
ENDBRANCH  28  29
ENDBRANCH  21  23
ENDBRANCH  18  19
ENDBRANCH  17  18
ENDBRANCH   1  17
TORSDOF 11
ENDMDL
MODEL 6
REMARK VINA RESULT:      -6.7      1.824      6.291
REMARK  Name = 
REMARK  13 active torsions:
REMARK  status: ('A' for Active; 'I' for Inactive)
REMARK    1  A    between atoms: C_1  and  C_2
REMARK    2  A    between atoms: C_2  and  O_3
REMARK    3  A    between atoms: O_3  and  C_4
REMARK    4  A    between atoms: C_7  and  C_8
REMARK    5  A    between atoms: N_10  and  C_11
REMARK    6  A    between atoms: C_11  and  C_12
REMARK    7  A    between atoms: C_12  and  O_14
REMARK    8  A    between atoms: O_14  and  C_15
REMARK    9  A    between atoms: C_15  and  C_16
REMARK   10  A    between atoms: N_18  and  C_19
REMARK   11  A    between atoms: C_24  and  O_25
REMARK   12  A    between atoms: O_25  and  C_26
REMARK   13  A    between atoms: C_26  and  C_27
REMARK                            x       y       z     vdW  Elec       q    Type
REMARK                         _______ _______ _______ _____ _____    ______ ____
ROOT
ATOM      1  C   UNL     1       2.289   2.132  19.842  0.00  0.00    +0.000 C 
ATOM      2  O   UNL     1       1.620   1.876  18.846  0.00  0.00    +0.000 OA
ENDROOT
BRANCH   1   3
ATOM      3  C   UNL     1       3.808   2.092  19.896  0.00  0.00    +0.000 C 
BRANCH   3   6
ATOM      4  C   UNL     1       4.906   3.771  18.484  0.00  0.00    +0.000 C 
ATOM      5  O   UNL     1       4.858   4.601  19.386  0.00  0.00    +0.000 OA
ATOM      6  N   UNL     1       4.412   2.492  18.636  0.00  0.00    +0.000 N 
ATOM      7  H   UNL     1       4.566   1.769  17.952  0.00  0.00    +0.000 HD
BRANCH   4  11
ATOM      8  C   UNL     1       6.863   4.803  14.788  0.00  0.00    +0.000 A 
ATOM      9  C   UNL     1       7.563   4.752  15.991  0.00  0.00    +0.000 A 
ATOM     10  C   UNL     1       6.902   4.410  17.173  0.00  0.00    +0.000 A 
ATOM     11  C   UNL     1       5.529   4.128  17.174  0.00  0.00    +0.000 A 
ATOM     12  C   UNL     1       4.823   4.221  15.969  0.00  0.00    +0.000 A 
ATOM     13  C   UNL     1       5.490   4.562  14.784  0.00  0.00    +0.000 A 
BRANCH   8  14
ATOM     14  O   UNL     1       7.617   5.113  13.692  0.00  0.00    +0.000 OA
BRANCH  14  16
ATOM     15  C   UNL     1       7.208   3.519  11.973  0.00  0.00    +0.000 C 
ATOM     16  C   UNL     1       6.980   4.950  12.425  0.00  0.00    +0.000 C 
ENDBRANCH  14  16
ENDBRANCH   8  14
ENDBRANCH   4  11
ENDBRANCH   3   6
ENDBRANCH   1   3
BRANCH   1  17
ATOM     17  O   UNL     1       1.778   2.466  21.061  0.00  0.00    +0.000 OA
BRANCH  17  18
ATOM     18  C   UNL     1       2.254   3.704  21.584  0.00  0.00    +0.000 C 
BRANCH  18  19
ATOM     19  C   UNL     1       1.652   4.852  20.770  0.00  0.00    +0.000 C 
ATOM     20  O   UNL     1       0.561   4.749  20.211  0.00  0.00    +0.000 OA
ATOM     21  N   UNL     1       2.443   5.991  20.764  0.00  0.00    +0.000 N 
ATOM     22  H   UNL     1       3.260   6.011  21.351  0.00  0.00    +0.000 HD
BRANCH  21  23
ATOM     23  C   UNL     1       2.002   7.203  20.196  0.00  0.00    +0.000 A 
ATOM     24  C   UNL     1       1.250   8.055  21.021  0.00  0.00    +0.000 A 
ATOM     25  C   UNL     1       0.760   9.269  20.548  0.00  0.00    +0.000 A 
ATOM     26  C   UNL     1       1.055   9.668  19.250  0.00  0.00    +0.000 A 
ATOM     27  C   UNL     1       1.818   8.838  18.425  0.00  0.00    +0.000 A 
ATOM     28  C   UNL     1       2.269   7.585  18.868  0.00  0.00    +0.000 A 
BRANCH  28  29
ATOM     29  O   UNL     1       3.071   6.951  17.951  0.00  0.00    +0.000 OA
BRANCH  29  30
ATOM     30  C   UNL     1       3.819   7.766  17.062  0.00  0.00    +0.000 C 
ATOM     31  C   UNL     1       5.302   7.543  17.297  0.00  0.00    +0.000 C 
ENDBRANCH  29  30
ENDBRANCH  28  29
ENDBRANCH  21  23
ENDBRANCH  18  19
ENDBRANCH  17  18
ENDBRANCH   1  17
TORSDOF 11
ENDMDL
MODEL 7
REMARK VINA RESULT:      -6.6      5.131      7.648
REMARK  Name = 
REMARK  13 active torsions:
REMARK  status: ('A' for Active; 'I' for Inactive)
REMARK    1  A    between atoms: C_1  and  C_2
REMARK    2  A    between atoms: C_2  and  O_3
REMARK    3  A    between atoms: O_3  and  C_4
REMARK    4  A    between atoms: C_7  and  C_8
REMARK    5  A    between atoms: N_10  and  C_11
REMARK    6  A    between atoms: C_11  and  C_12
REMARK    7  A    between atoms: C_12  and  O_14
REMARK    8  A    between atoms: O_14  and  C_15
REMARK    9  A    between atoms: C_15  and  C_16
REMARK   10  A    between atoms: N_18  and  C_19
REMARK   11  A    between atoms: C_24  and  O_25
REMARK   12  A    between atoms: O_25  and  C_26
REMARK   13  A    between atoms: C_26  and  C_27
REMARK                            x       y       z     vdW  Elec       q    Type
REMARK                         _______ _______ _______ _____ _____    ______ ____
ROOT
ATOM      1  C   UNL     1       7.257   7.219  16.905  0.00  0.00    +0.000 C 
ATOM      2  O   UNL     1       7.846   6.385  16.223  0.00  0.00    +0.000 OA
ENDROOT
BRANCH   1   3
ATOM      3  C   UNL     1       7.870   7.962  18.080  0.00  0.00    +0.000 C 
BRANCH   3   6
ATOM      4  C   UNL     1       9.063  10.036  18.621  0.00  0.00    +0.000 C 
ATOM      5  O   UNL     1       9.199   9.686  19.789  0.00  0.00    +0.000 OA
ATOM      6  N   UNL     1       8.419   9.250  17.690  0.00  0.00    +0.000 N 
ATOM      7  H   UNL     1       8.420   9.467  16.706  0.00  0.00    +0.000 HD
BRANCH   4  11
ATOM      8  C   UNL     1      10.514  13.885  17.340  0.00  0.00    +0.000 A 
ATOM      9  C   UNL     1       9.174  13.684  17.663  0.00  0.00    +0.000 A 
ATOM     10  C   UNL     1       8.734  12.426  18.079  0.00  0.00    +0.000 A 
ATOM     11  C   UNL     1       9.621  11.345  18.166  0.00  0.00    +0.000 A 
ATOM     12  C   UNL     1      10.958  11.543  17.801  0.00  0.00    +0.000 A 
ATOM     13  C   UNL     1      11.398  12.807  17.386  0.00  0.00    +0.000 A 
BRANCH   8  14
ATOM     14  O   UNL     1      10.839  15.162  16.981  0.00  0.00    +0.000 OA
BRANCH  14  16
ATOM     15  C   UNL     1      11.572  17.380  17.434  0.00  0.00    +0.000 C 
ATOM     16  C   UNL     1      11.270  16.020  18.037  0.00  0.00    +0.000 C 
ENDBRANCH  14  16
ENDBRANCH   8  14
ENDBRANCH   4  11
ENDBRANCH   3   6
ENDBRANCH   1   3
BRANCH   1  17
ATOM     17  O   UNL     1       5.957   7.590  16.733  0.00  0.00    +0.000 OA
BRANCH  17  18
ATOM     18  C   UNL     1       5.141   6.613  16.091  0.00  0.00    +0.000 C 
BRANCH  18  19
ATOM     19  C   UNL     1       4.519   5.707  17.157  0.00  0.00    +0.000 C 
ATOM     20  O   UNL     1       5.142   4.772  17.659  0.00  0.00    +0.000 OA
ATOM     21  N   UNL     1       3.226   6.072  17.498  0.00  0.00    +0.000 N 
ATOM     22  H   UNL     1       2.851   6.924  17.116  0.00  0.00    +0.000 HD
BRANCH  21  23
ATOM     23  C   UNL     1       2.532   5.458  18.560  0.00  0.00    +0.000 A 
ATOM     24  C   UNL     1       2.339   6.225  19.720  0.00  0.00    +0.000 A 
ATOM     25  C   UNL     1       1.675   5.703  20.827  0.00  0.00    +0.000 A 
ATOM     26  C   UNL     1       1.155   4.416  20.771  0.00  0.00    +0.000 A 
ATOM     27  C   UNL     1       1.325   3.649  19.615  0.00  0.00    +0.000 A 
ATOM     28  C   UNL     1       2.043   4.139  18.513  0.00  0.00    +0.000 A 
BRANCH  28  29
ATOM     29  O   UNL     1       2.032   3.279  17.443  0.00  0.00    +0.000 OA
BRANCH  29  30
ATOM     30  C   UNL     1       2.223   1.898  17.711  0.00  0.00    +0.000 C 
ATOM     31  C   UNL     1       3.673   1.651  18.085  0.00  0.00    +0.000 C 
ENDBRANCH  29  30
ENDBRANCH  28  29
ENDBRANCH  21  23
ENDBRANCH  18  19
ENDBRANCH  17  18
ENDBRANCH   1  17
TORSDOF 11
ENDMDL
MODEL 8
REMARK VINA RESULT:      -6.4      4.245      6.054
REMARK  Name = 
REMARK  13 active torsions:
REMARK  status: ('A' for Active; 'I' for Inactive)
REMARK    1  A    between atoms: C_1  and  C_2
REMARK    2  A    between atoms: C_2  and  O_3
REMARK    3  A    between atoms: O_3  and  C_4
REMARK    4  A    between atoms: C_7  and  C_8
REMARK    5  A    between atoms: N_10  and  C_11
REMARK    6  A    between atoms: C_11  and  C_12
REMARK    7  A    between atoms: C_12  and  O_14
REMARK    8  A    between atoms: O_14  and  C_15
REMARK    9  A    between atoms: C_15  and  C_16
REMARK   10  A    between atoms: N_18  and  C_19
REMARK   11  A    between atoms: C_24  and  O_25
REMARK   12  A    between atoms: O_25  and  C_26
REMARK   13  A    between atoms: C_26  and  C_27
REMARK                            x       y       z     vdW  Elec       q    Type
REMARK                         _______ _______ _______ _____ _____    ______ ____
ROOT
ATOM      1  C   UNL     1       1.927   9.991  17.900  0.00  0.00    +0.000 C 
ATOM      2  O   UNL     1       2.303  11.084  17.487  0.00  0.00    +0.000 OA
ENDROOT
BRANCH   1   3
ATOM      3  C   UNL     1       0.882   9.791  18.986  0.00  0.00    +0.000 C 
BRANCH   3   6
ATOM      4  C   UNL     1      -1.112  11.209  18.820  0.00  0.00    +0.000 C 
ATOM      5  O   UNL     1      -0.584  12.079  19.505  0.00  0.00    +0.000 OA
ATOM      6  N   UNL     1      -0.466  10.033  18.501  0.00  0.00    +0.000 N 
ATOM      7  H   UNL     1      -0.838   9.377  17.834  0.00  0.00    +0.000 HD
BRANCH   4  11
ATOM      8  C   UNL     1      -5.136  11.881  17.437  0.00  0.00    +0.000 A 
ATOM      9  C   UNL     1      -4.764  12.157  18.750  0.00  0.00    +0.000 A 
ATOM     10  C   UNL     1      -3.451  11.933  19.169  0.00  0.00    +0.000 A 
ATOM     11  C   UNL     1      -2.492  11.416  18.286  0.00  0.00    +0.000 A 
ATOM     12  C   UNL     1      -2.882  11.103  16.979  0.00  0.00    +0.000 A 
ATOM     13  C   UNL     1      -4.201  11.331  16.561  0.00  0.00    +0.000 A 
BRANCH   8  14
ATOM     14  O   UNL     1      -6.435  12.172  17.129  0.00  0.00    +0.000 OA
BRANCH  14  16
ATOM     15  C   UNL     1      -6.868  14.455  16.617  0.00  0.00    +0.000 C 
ATOM     16  C   UNL     1      -6.956  13.380  17.684  0.00  0.00    +0.000 C 
ENDBRANCH  14  16
ENDBRANCH   8  14
ENDBRANCH   4  11
ENDBRANCH   3   6
ENDBRANCH   1   3
BRANCH   1  17
ATOM     17  O   UNL     1       2.404   8.788  17.471  0.00  0.00    +0.000 OA
BRANCH  17  18
ATOM     18  C   UNL     1       2.325   7.741  18.435  0.00  0.00    +0.000 C 
BRANCH  18  19
ATOM     19  C   UNL     1       3.210   6.578  17.978  0.00  0.00    +0.000 C 
ATOM     20  O   UNL     1       2.855   5.406  18.095  0.00  0.00    +0.000 OA
ATOM     21  N   UNL     1       4.404   6.992  17.407  0.00  0.00    +0.000 N 
ATOM     22  H   UNL     1       4.546   7.976  17.250  0.00  0.00    +0.000 HD
BRANCH  21  23
ATOM     23  C   UNL     1       5.291   6.085  16.793  0.00  0.00    +0.000 A 
ATOM     24  C   UNL     1       5.191   5.945  15.399  0.00  0.00    +0.000 A 
ATOM     25  C   UNL     1       6.015   5.066  14.703  0.00  0.00    +0.000 A 
ATOM     26  C   UNL     1       6.986   4.346  15.389  0.00  0.00    +0.000 A 
ATOM     27  C   UNL     1       7.109   4.491  16.773  0.00  0.00    +0.000 A 
ATOM     28  C   UNL     1       6.246   5.328  17.497  0.00  0.00    +0.000 A 
BRANCH  28  29
ATOM     29  O   UNL     1       6.572   5.407  18.829  0.00  0.00    +0.000 OA
BRANCH  29  30
ATOM     30  C   UNL     1       7.867   5.887  19.158  0.00  0.00    +0.000 C 
ATOM     31  C   UNL     1       8.094   7.231  18.491  0.00  0.00    +0.000 C 
ENDBRANCH  29  30
ENDBRANCH  28  29
ENDBRANCH  21  23
ENDBRANCH  18  19
ENDBRANCH  17  18
ENDBRANCH   1  17
TORSDOF 11
ENDMDL
MODEL 9
REMARK VINA RESULT:      -6.4      2.368      3.488
REMARK  Name = 
REMARK  13 active torsions:
REMARK  status: ('A' for Active; 'I' for Inactive)
REMARK    1  A    between atoms: C_1  and  C_2
REMARK    2  A    between atoms: C_2  and  O_3
REMARK    3  A    between atoms: O_3  and  C_4
REMARK    4  A    between atoms: C_7  and  C_8
REMARK    5  A    between atoms: N_10  and  C_11
REMARK    6  A    between atoms: C_11  and  C_12
REMARK    7  A    between atoms: C_12  and  O_14
REMARK    8  A    between atoms: O_14  and  C_15
REMARK    9  A    between atoms: C_15  and  C_16
REMARK   10  A    between atoms: N_18  and  C_19
REMARK   11  A    between atoms: C_24  and  O_25
REMARK   12  A    between atoms: O_25  and  C_26
REMARK   13  A    between atoms: C_26  and  C_27
REMARK                            x       y       z     vdW  Elec       q    Type
REMARK                         _______ _______ _______ _____ _____    ______ ____
ROOT
ATOM      1  C   UNL     1       1.865   4.728  20.227  0.00  0.00    +0.000 C 
ATOM      2  O   UNL     1       1.468   4.050  21.169  0.00  0.00    +0.000 OA
ENDROOT
BRANCH   1   3
ATOM      3  C   UNL     1       2.652   6.022  20.363  0.00  0.00    +0.000 C 
BRANCH   3   6
ATOM      4  C   UNL     1       1.659   8.206  19.852  0.00  0.00    +0.000 C 
ATOM      5  O   UNL     1       2.227   8.240  18.765  0.00  0.00    +0.000 OA
ATOM      6  N   UNL     1       1.802   7.145  20.721  0.00  0.00    +0.000 N 
ATOM      7  H   UNL     1       1.239   7.047  21.551  0.00  0.00    +0.000 HD
BRANCH   4  11
ATOM      8  C   UNL     1      -0.905  11.394  21.201  0.00  0.00    +0.000 A 
ATOM      9  C   UNL     1      -0.443  10.413  22.076  0.00  0.00    +0.000 A 
ATOM     10  C   UNL     1       0.390   9.394  21.610  0.00  0.00    +0.000 A 
ATOM     11  C   UNL     1       0.764   9.330  20.261  0.00  0.00    +0.000 A 
ATOM     12  C   UNL     1       0.264  10.294  19.379  0.00  0.00    +0.000 A 
ATOM     13  C   UNL     1      -0.571  11.318  19.849  0.00  0.00    +0.000 A 
BRANCH   8  14
ATOM     14  O   UNL     1      -1.683  12.360  21.772  0.00  0.00    +0.000 OA
BRANCH  14  16
ATOM     15  C   UNL     1      -2.392  13.621  23.661  0.00  0.00    +0.000 C 
ATOM     16  C   UNL     1      -1.240  12.858  23.035  0.00  0.00    +0.000 C 
ENDBRANCH  14  16
ENDBRANCH   8  14
ENDBRANCH   4  11
ENDBRANCH   3   6
ENDBRANCH   1   3
BRANCH   1  17
ATOM     17  O   UNL     1       1.640   4.445  18.912  0.00  0.00    +0.000 OA
BRANCH  17  18
ATOM     18  C   UNL     1       1.874   3.086  18.550  0.00  0.00    +0.000 C 
BRANCH  18  19
ATOM     19  C   UNL     1       3.231   2.985  17.849  0.00  0.00    +0.000 C 
ATOM     20  O   UNL     1       3.772   1.902  17.633  0.00  0.00    +0.000 OA
ATOM     21  N   UNL     1       3.746   4.217  17.475  0.00  0.00    +0.000 N 
ATOM     22  H   UNL     1       3.169   5.034  17.592  0.00  0.00    +0.000 HD
BRANCH  21  23
ATOM     23  C   UNL     1       4.911   4.332  16.691  0.00  0.00    +0.000 A 
ATOM     24  C   UNL     1       4.732   4.454  15.303  0.00  0.00    +0.000 A 
ATOM     25  C   UNL     1       5.822   4.562  14.443  0.00  0.00    +0.000 A 
ATOM     26  C   UNL     1       7.109   4.595  14.968  0.00  0.00    +0.000 A 
ATOM     27  C   UNL     1       7.298   4.494  16.348  0.00  0.00    +0.000 A 
ATOM     28  C   UNL     1       6.213   4.325  17.223  0.00  0.00    +0.000 A 
BRANCH  28  29
ATOM     29  O   UNL     1       6.587   4.330  18.544  0.00  0.00    +0.000 OA
BRANCH  29  30
ATOM     30  C   UNL     1       6.609   5.583  19.212  0.00  0.00    +0.000 C 
ATOM     31  C   UNL     1       7.913   6.297  18.907  0.00  0.00    +0.000 C 
ENDBRANCH  29  30
ENDBRANCH  28  29
ENDBRANCH  21  23
ENDBRANCH  18  19
ENDBRANCH  17  18
ENDBRANCH   1  17
TORSDOF 11
ENDMDL
