MODEL 1
REMARK VINA RESULT:      -7.3      0.000      0.000
REMARK  Name = 
REMARK  9 active torsions:
REMARK  status: ('A' for Active; 'I' for Inactive)
REMARK    1  A    between atoms: C_1  and  C_2
REMARK    2  A    between atoms: C_2  and  C_3
REMARK    3  A    between atoms: C_3  and  N_4
REMARK    4  A    between atoms: N_4  and  C_5
REMARK    5  A    between atoms: C_5  and  C_6
REMARK    6  A    between atoms: C_8  and  O_9
REMARK    7  A    between atoms: O_9  and  C_10
REMARK    8  A    between atoms: C_12  and  O_13
REMARK    9  A    between atoms: O_13  and  C_14
REMARK                            x       y       z     vdW  Elec       q    Type
REMARK                         _______ _______ _______ _____ _____    ______ ____
ROOT
ATOM      1  C   UNL     1       2.265   6.307  19.691  0.00  0.00    +0.000 C 
ATOM      2  C   UNL     1       2.004   7.633  19.520  0.00  0.00    +0.000 C 
ATOM      3  C   UNL     1       1.337   8.477  20.556  0.00  0.00    +0.000 C 
ATOM      4  O   UNL     1       1.219   8.177  21.739  0.00  0.00    +0.000 OA
ATOM      5  N   UNL     1       0.887   9.694  20.129  0.00  0.00    +0.000 N 
ATOM      6  C   UNL     1       1.143  10.273  18.931  0.00  0.00    +0.000 C 
ATOM      7  O   UNL     1       0.878  11.453  18.715  0.00  0.00    +0.000 OA
ATOM      8  N   UNL     1       1.760   9.503  18.000  0.00  0.00    +0.000 N 
ATOM      9  C   UNL     1       2.356   8.294  18.228  0.00  0.00    +0.000 C 
ATOM     10  O   UNL     1       3.133   7.821  17.401  0.00  0.00    +0.000 OA
ATOM     11  H   UNL     1       0.484  10.291  20.840  0.00  0.00    +0.000 HD
ATOM     12  H   UNL     1       2.004   9.966  17.137  0.00  0.00    +0.000 HD
ENDROOT
BRANCH   1  14
ATOM     13  C   UNL     1       1.184   4.199  20.590  0.00  0.00    +0.000 C 
ATOM     14  C   UNL     1       1.833   5.535  20.937  0.00  0.00    +0.000 C 
ENDBRANCH   1  14
BRANCH   1  15
ATOM     15  N   UNL     1       2.956   5.496  18.767  0.00  0.00    +0.000 N 
ATOM     16  H   UNL     1       2.390   4.672  18.525  0.00  0.00    +0.000 HD
BRANCH  15  17
ATOM     17  C   UNL     1       4.310   5.006  19.058  0.00  0.00    +0.000 C 
BRANCH  17  18
ATOM     18  C   UNL     1       5.215   5.110  17.854  0.00  0.00    +0.000 A 
ATOM     19  C   UNL     1       6.175   6.126  17.746  0.00  0.00    +0.000 A 
ATOM     20  C   UNL     1       7.039   6.201  16.650  0.00  0.00    +0.000 A 
ATOM     21  C   UNL     1       6.966   5.224  15.658  0.00  0.00    +0.000 A 
ATOM     22  C   UNL     1       6.030   4.187  15.751  0.00  0.00    +0.000 A 
ATOM     23  C   UNL     1       5.169   4.127  16.850  0.00  0.00    +0.000 A 
BRANCH  20  24
ATOM     24  O   UNL     1       7.896   7.266  16.669  0.00  0.00    +0.000 OA
ATOM     25  C   UNL     1       7.817   8.144  17.785  0.00  0.00    +0.000 C 
ENDBRANCH  20  24
BRANCH  22  26
ATOM     26  O   UNL     1       6.058   3.301  14.705  0.00  0.00    +0.000 OA
ATOM     27  C   UNL     1       6.234   3.840  13.400  0.00  0.00    +0.000 C 
ENDBRANCH  22  26
ENDBRANCH  17  18
ENDBRANCH  15  17
ENDBRANCH   1  15
TORSDOF 6
ENDMDL
MODEL 2
REMARK VINA RESULT:      -7.3      2.800      6.642
REMARK  Name = 
REMARK  9 active torsions:
REMARK  status: ('A' for Active; 'I' for Inactive)
REMARK    1  A    between atoms: C_1  and  C_2
REMARK    2  A    between atoms: C_2  and  C_3
REMARK    3  A    between atoms: C_3  and  N_4
REMARK    4  A    between atoms: N_4  and  C_5
REMARK    5  A    between atoms: C_5  and  C_6
REMARK    6  A    between atoms: C_8  and  O_9
REMARK    7  A    between atoms: O_9  and  C_10
REMARK    8  A    between atoms: C_12  and  O_13
REMARK    9  A    between atoms: O_13  and  C_14
REMARK                            x       y       z     vdW  Elec       q    Type
REMARK                         _______ _______ _______ _____ _____    ______ ____
ROOT
ATOM      1  C   UNL     1       5.408   4.366  16.574  0.00  0.00    +0.000 C 
ATOM      2  C   UNL     1       6.130   5.360  17.162  0.00  0.00    +0.000 C 
ATOM      3  C   UNL     1       6.509   6.623  16.460  0.00  0.00    +0.000 C 
ATOM      4  O   UNL     1       5.994   7.036  15.427  0.00  0.00    +0.000 OA
ATOM      5  N   UNL     1       7.466   7.378  17.076  0.00  0.00    +0.000 N 
ATOM      6  C   UNL     1       7.961   7.192  18.323  0.00  0.00    +0.000 C 
ATOM      7  O   UNL     1       8.658   8.040  18.874  0.00  0.00    +0.000 OA
ATOM      8  N   UNL     1       7.602   6.048  18.958  0.00  0.00    +0.000 N 
ATOM      9  C   UNL     1       6.612   5.191  18.565  0.00  0.00    +0.000 C 
ATOM     10  O   UNL     1       6.169   4.356  19.350  0.00  0.00    +0.000 OA
ATOM     11  H   UNL     1       7.686   8.261  16.632  0.00  0.00    +0.000 HD
ATOM     12  H   UNL     1       7.924   5.953  19.910  0.00  0.00    +0.000 HD
ENDROOT
BRANCH   1  14
ATOM     13  C   UNL     1       6.013   3.787  14.182  0.00  0.00    +0.000 C 
ATOM     14  C   UNL     1       4.977   4.415  15.108  0.00  0.00    +0.000 C 
ENDBRANCH   1  14
BRANCH   1  15
ATOM     15  N   UNL     1       4.970   3.194  17.225  0.00  0.00    +0.000 N 
ATOM     16  H   UNL     1       5.341   2.362  16.746  0.00  0.00    +0.000 HD
BRANCH  15  17
ATOM     17  C   UNL     1       3.540   2.947  17.453  0.00  0.00    +0.000 C 
BRANCH  17  18
ATOM     18  C   UNL     1       2.999   3.790  18.583  0.00  0.00    +0.000 A 
ATOM     19  C   UNL     1       2.828   3.263  19.872  0.00  0.00    +0.000 A 
ATOM     20  C   UNL     1       2.363   4.052  20.927  0.00  0.00    +0.000 A 
ATOM     21  C   UNL     1       2.094   5.401  20.701  0.00  0.00    +0.000 A 
ATOM     22  C   UNL     1       2.274   5.958  19.429  0.00  0.00    +0.000 A 
ATOM     23  C   UNL     1       2.735   5.156  18.381  0.00  0.00    +0.000 A 
BRANCH  20  24
ATOM     24  O   UNL     1       2.217   3.391  22.115  0.00  0.00    +0.000 OA
ATOM     25  C   UNL     1       1.237   2.362  22.169  0.00  0.00    +0.000 C 
ENDBRANCH  20  24
BRANCH  22  26
ATOM     26  O   UNL     1       1.964   7.290  19.342  0.00  0.00    +0.000 OA
ATOM     27  C   UNL     1       1.645   7.964  20.553  0.00  0.00    +0.000 C 
ENDBRANCH  22  26
ENDBRANCH  17  18
ENDBRANCH  15  17
ENDBRANCH   1  15
TORSDOF 6
ENDMDL
MODEL 3
REMARK VINA RESULT:      -7.3      2.343      7.173
REMARK  Name = 
REMARK  9 active torsions:
REMARK  status: ('A' for Active; 'I' for Inactive)
REMARK    1  A    between atoms: C_1  and  C_2
REMARK    2  A    between atoms: C_2  and  C_3
REMARK    3  A    between atoms: C_3  and  N_4
REMARK    4  A    between atoms: N_4  and  C_5
REMARK    5  A    between atoms: C_5  and  C_6
REMARK    6  A    between atoms: C_8  and  O_9
REMARK    7  A    between atoms: O_9  and  C_10
REMARK    8  A    between atoms: C_12  and  O_13
REMARK    9  A    between atoms: O_13  and  C_14
REMARK                            x       y       z     vdW  Elec       q    Type
REMARK                         _______ _______ _______ _____ _____    ______ ____
ROOT
ATOM      1  C   UNL     1       3.273   5.786  18.541  0.00  0.00    +0.000 C 
ATOM      2  C   UNL     1       4.482   5.291  18.157  0.00  0.00    +0.000 C 
ATOM      3  C   UNL     1       5.172   4.173  18.867  0.00  0.00    +0.000 C 
ATOM      4  O   UNL     1       4.635   3.401  19.654  0.00  0.00    +0.000 OA
ATOM      5  N   UNL     1       6.488   3.991  18.548  0.00  0.00    +0.000 N 
ATOM      6  C   UNL     1       7.163   4.592  17.539  0.00  0.00    +0.000 C 
ATOM      7  O   UNL     1       8.278   4.211  17.192  0.00  0.00    +0.000 OA
ATOM      8  N   UNL     1       6.525   5.600  16.892  0.00  0.00    +0.000 N 
ATOM      9  C   UNL     1       5.195   5.903  16.996  0.00  0.00    +0.000 C 
ATOM     10  O   UNL     1       4.659   6.628  16.162  0.00  0.00    +0.000 OA
ATOM     11  H   UNL     1       6.943   3.200  18.985  0.00  0.00    +0.000 HD
ATOM     12  H   UNL     1       7.012   5.994  16.101  0.00  0.00    +0.000 HD
ENDROOT
BRANCH   1  14
ATOM     13  C   UNL     1       1.377   4.362  19.434  0.00  0.00    +0.000 C 
ATOM     14  C   UNL     1       2.534   5.291  19.784  0.00  0.00    +0.000 C 
ENDBRANCH   1  14
BRANCH   1  15
ATOM     15  N   UNL     1       2.559   6.790  17.854  0.00  0.00    +0.000 N 
ATOM     16  H   UNL     1       2.659   6.666  16.837  0.00  0.00    +0.000 HD
BRANCH  15  17
ATOM     17  C   UNL     1       2.803   8.213  18.130  0.00  0.00    +0.000 C 
BRANCH  17  18
ATOM     18  C   UNL     1       1.631   8.856  18.832  0.00  0.00    +0.000 A 
ATOM     19  C   UNL     1       1.502   8.815  20.228  0.00  0.00    +0.000 A 
ATOM     20  C   UNL     1       0.439   9.443  20.882  0.00  0.00    +0.000 A 
ATOM     21  C   UNL     1      -0.497  10.155  20.132  0.00  0.00    +0.000 A 
ATOM     22  C   UNL     1      -0.381  10.229  18.738  0.00  0.00    +0.000 A 
ATOM     23  C   UNL     1       0.685   9.592  18.097  0.00  0.00    +0.000 A 
BRANCH  20  24
ATOM     24  O   UNL     1       0.430   9.287  22.240  0.00  0.00    +0.000 OA
ATOM     25  C   UNL     1      -0.659   9.862  22.953  0.00  0.00    +0.000 C 
ENDBRANCH  20  24
BRANCH  22  26
ATOM     26  O   UNL     1      -1.371  10.950  18.123  0.00  0.00    +0.000 OA
ATOM     27  C   UNL     1      -2.236  10.247  17.240  0.00  0.00    +0.000 C 
ENDBRANCH  22  26
ENDBRANCH  17  18
ENDBRANCH  15  17
ENDBRANCH   1  15
TORSDOF 6
ENDMDL
MODEL 4
REMARK VINA RESULT:      -7.2      2.276      7.230
REMARK  Name = 
REMARK  9 active torsions:
REMARK  status: ('A' for Active; 'I' for Inactive)
REMARK    1  A    between atoms: C_1  and  C_2
REMARK    2  A    between atoms: C_2  and  C_3
REMARK    3  A    between atoms: C_3  and  N_4
REMARK    4  A    between atoms: N_4  and  C_5
REMARK    5  A    between atoms: C_5  and  C_6
REMARK    6  A    between atoms: C_8  and  O_9
REMARK    7  A    between atoms: O_9  and  C_10
REMARK    8  A    between atoms: C_12  and  O_13
REMARK    9  A    between atoms: O_13  and  C_14
REMARK                            x       y       z     vdW  Elec       q    Type
REMARK                         _______ _______ _______ _____ _____    ______ ____
ROOT
ATOM      1  C   UNL     1       2.995   5.211  19.859  0.00  0.00    +0.000 C 
ATOM      2  C   UNL     1       4.101   5.053  19.080  0.00  0.00    +0.000 C 
ATOM      3  C   UNL     1       4.969   3.838  19.127  0.00  0.00    +0.000 C 
ATOM      4  O   UNL     1       4.649   2.763  19.622  0.00  0.00    +0.000 OA
ATOM      5  N   UNL     1       6.183   3.954  18.512  0.00  0.00    +0.000 N 
ATOM      6  C   UNL     1       6.593   4.976  17.723  0.00  0.00    +0.000 C 
ATOM      7  O   UNL     1       7.612   4.897  17.041  0.00  0.00    +0.000 OA
ATOM      8  N   UNL     1       5.793   6.071  17.677  0.00  0.00    +0.000 N 
ATOM      9  C   UNL     1       4.513   6.148  18.152  0.00  0.00    +0.000 C 
ATOM     10  O   UNL     1       3.779   7.069  17.804  0.00  0.00    +0.000 OA
ATOM     11  H   UNL     1       6.751   3.116  18.493  0.00  0.00    +0.000 HD
ATOM     12  H   UNL     1       6.076   6.797  17.035  0.00  0.00    +0.000 HD
ENDROOT
BRANCH   1  14
ATOM     13  C   UNL     1       1.334   3.405  20.492  0.00  0.00    +0.000 C 
ATOM     14  C   UNL     1       2.574   4.187  20.913  0.00  0.00    +0.000 C 
ENDBRANCH   1  14
BRANCH   1  15
ATOM     15  N   UNL     1       2.112   6.309  19.791  0.00  0.00    +0.000 N 
ATOM     16  H   UNL     1       2.597   7.131  19.405  0.00  0.00    +0.000 HD
BRANCH  15  17
ATOM     17  C   UNL     1       1.388   6.770  20.984  0.00  0.00    +0.000 C 
BRANCH  17  18
ATOM     18  C   UNL     1       1.050   8.239  20.901  0.00  0.00    +0.000 A 
ATOM     19  C   UNL     1       0.543   8.937  22.007  0.00  0.00    +0.000 A 
ATOM     20  C   UNL     1       0.266  10.305  21.943  0.00  0.00    +0.000 A 
ATOM     21  C   UNL     1       0.531  10.999  20.764  0.00  0.00    +0.000 A 
ATOM     22  C   UNL     1       1.057  10.331  19.650  0.00  0.00    +0.000 A 
ATOM     23  C   UNL     1       1.324   8.961  19.726  0.00  0.00    +0.000 A 
BRANCH  20  24
ATOM     24  O   UNL     1      -0.255  10.837  23.090  0.00  0.00    +0.000 OA
ATOM     25  C   UNL     1      -1.529  11.463  22.994  0.00  0.00    +0.000 C 
ENDBRANCH  20  24
BRANCH  22  26
ATOM     26  O   UNL     1       1.261  11.128  18.554  0.00  0.00    +0.000 OA
ATOM     27  C   UNL     1       0.946  12.509  18.685  0.00  0.00    +0.000 C 
ENDBRANCH  22  26
ENDBRANCH  17  18
ENDBRANCH  15  17
ENDBRANCH   1  15
TORSDOF 6
ENDMDL
MODEL 5
REMARK VINA RESULT:      -7.2      2.301      7.356
REMARK  Name = 
REMARK  9 active torsions:
REMARK  status: ('A' for Active; 'I' for Inactive)
REMARK    1  A    between atoms: C_1  and  C_2
REMARK    2  A    between atoms: C_2  and  C_3
REMARK    3  A    between atoms: C_3  and  N_4
REMARK    4  A    between atoms: N_4  and  C_5
REMARK    5  A    between atoms: C_5  and  C_6
REMARK    6  A    between atoms: C_8  and  O_9
REMARK    7  A    between atoms: O_9  and  C_10
REMARK    8  A    between atoms: C_12  and  O_13
REMARK    9  A    between atoms: O_13  and  C_14
REMARK                            x       y       z     vdW  Elec       q    Type
REMARK                         _______ _______ _______ _____ _____    ______ ____
ROOT
ATOM      1  C   UNL     1       3.223   5.758  18.631  0.00  0.00    +0.000 C 
ATOM      2  C   UNL     1       4.430   5.277  18.222  0.00  0.00    +0.000 C 
ATOM      3  C   UNL     1       5.142   4.159  18.911  0.00  0.00    +0.000 C 
ATOM      4  O   UNL     1       4.625   3.376  19.700  0.00  0.00    +0.000 OA
ATOM      5  N   UNL     1       6.453   3.991  18.567  0.00  0.00    +0.000 N 
ATOM      6  C   UNL     1       7.106   4.607  17.552  0.00  0.00    +0.000 C 
ATOM      7  O   UNL     1       8.218   4.239  17.183  0.00  0.00    +0.000 OA
ATOM      8  N   UNL     1       6.447   5.614  16.925  0.00  0.00    +0.000 N 
ATOM      9  C   UNL     1       5.117   5.905  17.055  0.00  0.00    +0.000 C 
ATOM     10  O   UNL     1       4.560   6.631  16.236  0.00  0.00    +0.000 OA
ATOM     11  H   UNL     1       6.923   3.200  18.990  0.00  0.00    +0.000 HD
ATOM     12  H   UNL     1       6.917   6.019  16.129  0.00  0.00    +0.000 HD
ENDROOT
BRANCH   1  14
ATOM     13  C   UNL     1       1.359   4.306  19.545  0.00  0.00    +0.000 C 
ATOM     14  C   UNL     1       2.511   5.247  19.883  0.00  0.00    +0.000 C 
ENDBRANCH   1  14
BRANCH   1  15
ATOM     15  N   UNL     1       2.488   6.762  17.966  0.00  0.00    +0.000 N 
ATOM     16  H   UNL     1       2.536   6.620  16.947  0.00  0.00    +0.000 HD
BRANCH  15  17
ATOM     17  C   UNL     1       2.765   8.184  18.206  0.00  0.00    +0.000 C 
BRANCH  17  18
ATOM     18  C   UNL     1       1.629   8.860  18.936  0.00  0.00    +0.000 A 
ATOM     19  C   UNL     1       0.718   9.691  18.266  0.00  0.00    +0.000 A 
ATOM     20  C   UNL     1      -0.355  10.286  18.933  0.00  0.00    +0.000 A 
ATOM     21  C   UNL     1      -0.545  10.022  20.289  0.00  0.00    +0.000 A 
ATOM     22  C   UNL     1       0.337   9.181  20.979  0.00  0.00    +0.000 A 
ATOM     23  C   UNL     1       1.410   8.596  20.299  0.00  0.00    +0.000 A 
BRANCH  20  24
ATOM     24  O   UNL     1      -1.135  11.094  18.154  0.00  0.00    +0.000 OA
ATOM     25  C   UNL     1      -1.603  12.304  18.738  0.00  0.00    +0.000 C 
ENDBRANCH  20  24
BRANCH  22  26
ATOM     26  O   UNL     1       0.042   9.014  22.307  0.00  0.00    +0.000 OA
ATOM     27  C   UNL     1      -0.666  10.065  22.953  0.00  0.00    +0.000 C 
ENDBRANCH  22  26
ENDBRANCH  17  18
ENDBRANCH  15  17
ENDBRANCH   1  15
TORSDOF 6
ENDMDL
MODEL 6
REMARK VINA RESULT:      -7.2      1.733      2.361
REMARK  Name = 
REMARK  9 active torsions:
REMARK  status: ('A' for Active; 'I' for Inactive)
REMARK    1  A    between atoms: C_1  and  C_2
REMARK    2  A    between atoms: C_2  and  C_3
REMARK    3  A    between atoms: C_3  and  N_4
REMARK    4  A    between atoms: N_4  and  C_5
REMARK    5  A    between atoms: C_5  and  C_6
REMARK    6  A    between atoms: C_8  and  O_9
REMARK    7  A    between atoms: O_9  and  C_10
REMARK    8  A    between atoms: C_12  and  O_13
REMARK    9  A    between atoms: O_13  and  C_14
REMARK                            x       y       z     vdW  Elec       q    Type
REMARK                         _______ _______ _______ _____ _____    ______ ____
ROOT
ATOM      1  C   UNL     1       2.497   4.110  18.610  0.00  0.00    +0.000 C 
ATOM      2  C   UNL     1       2.361   5.283  19.290  0.00  0.00    +0.000 C 
ATOM      3  C   UNL     1       1.912   5.358  20.712  0.00  0.00    +0.000 C 
ATOM      4  O   UNL     1       1.899   4.416  21.497  0.00  0.00    +0.000 OA
ATOM      5  N   UNL     1       1.548   6.598  21.154  0.00  0.00    +0.000 N 
ATOM      6  C   UNL     1       1.725   7.771  20.500  0.00  0.00    +0.000 C 
ATOM      7  O   UNL     1       1.565   8.852  21.059  0.00  0.00    +0.000 OA
ATOM      8  N   UNL     1       2.145   7.694  19.211  0.00  0.00    +0.000 N 
ATOM      9  C   UNL     1       2.630   6.575  18.593  0.00  0.00    +0.000 C 
ATOM     10  O   UNL     1       3.252   6.673  17.537  0.00  0.00    +0.000 OA
ATOM     11  H   UNL     1       1.296   6.662  22.132  0.00  0.00    +0.000 HD
ATOM     12  H   UNL     1       2.336   8.575  18.757  0.00  0.00    +0.000 HD
ENDROOT
BRANCH   1  14
ATOM     13  C   UNL     1       0.725   2.313  18.830  0.00  0.00    +0.000 C 
ATOM     14  C   UNL     1       2.132   2.756  19.217  0.00  0.00    +0.000 C 
ENDBRANCH   1  14
BRANCH   1  15
ATOM     15  N   UNL     1       2.986   3.995  17.292  0.00  0.00    +0.000 N 
ATOM     16  H   UNL     1       2.235   3.686  16.660  0.00  0.00    +0.000 HD
BRANCH  15  17
ATOM     17  C   UNL     1       4.158   3.161  16.992  0.00  0.00    +0.000 C 
BRANCH  17  18
ATOM     18  C   UNL     1       5.244   3.949  16.299  0.00  0.00    +0.000 A 
ATOM     19  C   UNL     1       6.064   4.842  17.004  0.00  0.00    +0.000 A 
ATOM     20  C   UNL     1       7.094   5.543  16.371  0.00  0.00    +0.000 A 
ATOM     21  C   UNL     1       7.332   5.325  15.015  0.00  0.00    +0.000 A 
ATOM     22  C   UNL     1       6.541   4.424  14.291  0.00  0.00    +0.000 A 
ATOM     23  C   UNL     1       5.511   3.733  14.936  0.00  0.00    +0.000 A 
BRANCH  20  24
ATOM     24  O   UNL     1       7.785   6.400  17.181  0.00  0.00    +0.000 OA
ATOM     25  C   UNL     1       7.649   6.219  18.585  0.00  0.00    +0.000 C 
ENDBRANCH  20  24
BRANCH  22  26
ATOM     26  O   UNL     1       6.875   4.312  12.966  0.00  0.00    +0.000 OA
ATOM     27  C   UNL     1       6.218   3.300  12.213  0.00  0.00    +0.000 C 
ENDBRANCH  22  26
ENDBRANCH  17  18
ENDBRANCH  15  17
ENDBRANCH   1  15
TORSDOF 6
ENDMDL
MODEL 7
REMARK VINA RESULT:      -7.2      2.332      7.401
REMARK  Name = 
REMARK  9 active torsions:
REMARK  status: ('A' for Active; 'I' for Inactive)
REMARK    1  A    between atoms: C_1  and  C_2
REMARK    2  A    between atoms: C_2  and  C_3
REMARK    3  A    between atoms: C_3  and  N_4
REMARK    4  A    between atoms: N_4  and  C_5
REMARK    5  A    between atoms: C_5  and  C_6
REMARK    6  A    between atoms: C_8  and  O_9
REMARK    7  A    between atoms: O_9  and  C_10
REMARK    8  A    between atoms: C_12  and  O_13
REMARK    9  A    between atoms: O_13  and  C_14
REMARK                            x       y       z     vdW  Elec       q    Type
REMARK                         _______ _______ _______ _____ _____    ______ ____
ROOT
ATOM      1  C   UNL     1       3.108   5.431  19.821  0.00  0.00    +0.000 C 
ATOM      2  C   UNL     1       4.158   5.155  18.998  0.00  0.00    +0.000 C 
ATOM      3  C   UNL     1       4.851   3.832  18.971  0.00  0.00    +0.000 C 
ATOM      4  O   UNL     1       4.402   2.792  19.439  0.00  0.00    +0.000 OA
ATOM      5  N   UNL     1       6.050   3.805  18.318  0.00  0.00    +0.000 N 
ATOM      6  C   UNL     1       6.573   4.792  17.551  0.00  0.00    +0.000 C 
ATOM      7  O   UNL     1       7.550   4.602  16.831  0.00  0.00    +0.000 OA
ATOM      8  N   UNL     1       5.930   5.987  17.572  0.00  0.00    +0.000 N 
ATOM      9  C   UNL     1       4.688   6.219  18.095  0.00  0.00    +0.000 C 
ATOM     10  O   UNL     1       4.077   7.245  17.807  0.00  0.00    +0.000 OA
ATOM     11  H   UNL     1       6.496   2.899  18.249  0.00  0.00    +0.000 HD
ATOM     12  H   UNL     1       6.290   6.692  16.947  0.00  0.00    +0.000 HD
ENDROOT
BRANCH   1  14
ATOM     13  C   UNL     1       1.320   3.725  20.376  0.00  0.00    +0.000 C 
ATOM     14  C   UNL     1       2.582   4.434  20.853  0.00  0.00    +0.000 C 
ENDBRANCH   1  14
BRANCH   1  15
ATOM     15  N   UNL     1       2.384   6.641  19.824  0.00  0.00    +0.000 N 
ATOM     16  H   UNL     1       3.028   7.441  19.764  0.00  0.00    +0.000 HD
BRANCH  15  17
ATOM     17  C   UNL     1       1.431   6.948  20.899  0.00  0.00    +0.000 C 
BRANCH  17  18
ATOM     18  C   UNL     1       1.049   8.409  20.909  0.00  0.00    +0.000 A 
ATOM     19  C   UNL     1       1.131   9.195  19.750  0.00  0.00    +0.000 A 
ATOM     20  C   UNL     1       0.742  10.537  19.749  0.00  0.00    +0.000 A 
ATOM     21  C   UNL     1       0.229  11.098  20.918  0.00  0.00    +0.000 A 
ATOM     22  C   UNL     1       0.117  10.330  22.084  0.00  0.00    +0.000 A 
ATOM     23  C   UNL     1       0.515   8.990  22.072  0.00  0.00    +0.000 A 
BRANCH  20  24
ATOM     24  O   UNL     1       0.911  11.180  18.555  0.00  0.00    +0.000 OA
ATOM     25  C   UNL     1       2.159  11.827  18.337  0.00  0.00    +0.000 C 
ENDBRANCH  20  24
BRANCH  22  26
ATOM     26  O   UNL     1      -0.392  11.006  23.162  0.00  0.00    +0.000 OA
ATOM     27  C   UNL     1      -1.690  11.571  23.023  0.00  0.00    +0.000 C 
ENDBRANCH  22  26
ENDBRANCH  17  18
ENDBRANCH  15  17
ENDBRANCH   1  15
TORSDOF 6
ENDMDL
MODEL 8
REMARK VINA RESULT:      -7.1      0.828      2.595
REMARK  Name = 
REMARK  9 active torsions:
REMARK  status: ('A' for Active; 'I' for Inactive)
REMARK    1  A    between atoms: C_1  and  C_2
REMARK    2  A    between atoms: C_2  and  C_3
REMARK    3  A    between atoms: C_3  and  N_4
REMARK    4  A    between atoms: N_4  and  C_5
REMARK    5  A    between atoms: C_5  and  C_6
REMARK    6  A    between atoms: C_8  and  O_9
REMARK    7  A    between atoms: O_9  and  C_10
REMARK    8  A    between atoms: C_12  and  O_13
REMARK    9  A    between atoms: O_13  and  C_14
REMARK                            x       y       z     vdW  Elec       q    Type
REMARK                         _______ _______ _______ _____ _____    ______ ____
ROOT
ATOM      1  C   UNL     1       2.367   5.943  19.416  0.00  0.00    +0.000 C 
ATOM      2  C   UNL     1       2.161   7.281  19.272  0.00  0.00    +0.000 C 
ATOM      3  C   UNL     1       1.539   8.133  20.330  0.00  0.00    +0.000 C 
ATOM      4  O   UNL     1       1.420   7.816  21.508  0.00  0.00    +0.000 OA
ATOM      5  N   UNL     1       1.137   9.375  19.930  0.00  0.00    +0.000 N 
ATOM      6  C   UNL     1       1.406   9.966  18.740  0.00  0.00    +0.000 C 
ATOM      7  O   UNL     1       1.189  11.159  18.549  0.00  0.00    +0.000 OA
ATOM      8  N   UNL     1       1.981   9.188  17.788  0.00  0.00    +0.000 N 
ATOM      9  C   UNL     1       2.528   7.950  17.988  0.00  0.00    +0.000 C 
ATOM     10  O   UNL     1       3.276   7.461  17.145  0.00  0.00    +0.000 OA
ATOM     11  H   UNL     1       0.766   9.975  20.656  0.00  0.00    +0.000 HD
ATOM     12  H   UNL     1       2.236   9.656  16.932  0.00  0.00    +0.000 HD
ENDROOT
BRANCH   1  14
ATOM     13  C   UNL     1       0.944   4.043  20.303  0.00  0.00    +0.000 C 
ATOM     14  C   UNL     1       1.915   5.166  20.652  0.00  0.00    +0.000 C 
ENDBRANCH   1  14
BRANCH   1  15
ATOM     15  N   UNL     1       3.015   5.121  18.470  0.00  0.00    +0.000 N 
ATOM     16  H   UNL     1       2.375   4.384  18.143  0.00  0.00    +0.000 HD
BRANCH  15  17
ATOM     17  C   UNL     1       4.287   4.460  18.790  0.00  0.00    +0.000 C 
BRANCH  17  18
ATOM     18  C   UNL     1       5.446   5.089  18.052  0.00  0.00    +0.000 A 
ATOM     19  C   UNL     1       5.644   4.871  16.681  0.00  0.00    +0.000 A 
ATOM     20  C   UNL     1       6.693   5.482  15.989  0.00  0.00    +0.000 A 
ATOM     21  C   UNL     1       7.541   6.354  16.670  0.00  0.00    +0.000 A 
ATOM     22  C   UNL     1       7.354   6.605  18.035  0.00  0.00    +0.000 A 
ATOM     23  C   UNL     1       6.303   5.983  18.716  0.00  0.00    +0.000 A 
BRANCH  20  24
ATOM     24  O   UNL     1       6.777   5.147  14.666  0.00  0.00    +0.000 OA
ATOM     25  C   UNL     1       6.115   3.959  14.253  0.00  0.00    +0.000 C 
ENDBRANCH  20  24
BRANCH  22  26
ATOM     26  O   UNL     1       8.263   7.472  18.583  0.00  0.00    +0.000 OA
ATOM     27  C   UNL     1       8.275   8.804  18.084  0.00  0.00    +0.000 C 
ENDBRANCH  22  26
ENDBRANCH  17  18
ENDBRANCH  15  17
ENDBRANCH   1  15
TORSDOF 6
ENDMDL
MODEL 9
REMARK VINA RESULT:      -7.1      2.446      7.546
REMARK  Name = 
REMARK  9 active torsions:
REMARK  status: ('A' for Active; 'I' for Inactive)
REMARK    1  A    between atoms: C_1  and  C_2
REMARK    2  A    between atoms: C_2  and  C_3
REMARK    3  A    between atoms: C_3  and  N_4
REMARK    4  A    between atoms: N_4  and  C_5
REMARK    5  A    between atoms: C_5  and  C_6
REMARK    6  A    between atoms: C_8  and  O_9
REMARK    7  A    between atoms: O_9  and  C_10
REMARK    8  A    between atoms: C_12  and  O_13
REMARK    9  A    between atoms: O_13  and  C_14
REMARK                            x       y       z     vdW  Elec       q    Type
REMARK                         _______ _______ _______ _____ _____    ______ ____
ROOT
ATOM      1  C   UNL     1       3.930   6.439  17.861  0.00  0.00    +0.000 C 
ATOM      2  C   UNL     1       4.184   5.320  18.594  0.00  0.00    +0.000 C 
ATOM      3  C   UNL     1       5.536   4.691  18.686  0.00  0.00    +0.000 C 
ATOM      4  O   UNL     1       6.589   5.238  18.379  0.00  0.00    +0.000 OA
ATOM      5  N   UNL     1       5.568   3.430  19.210  0.00  0.00    +0.000 N 
ATOM      6  C   UNL     1       4.542   2.780  19.811  0.00  0.00    +0.000 C 
ATOM      7  O   UNL     1       4.717   1.741  20.441  0.00  0.00    +0.000 OA
ATOM      8  N   UNL     1       3.320   3.364  19.733  0.00  0.00    +0.000 N 
ATOM      9  C   UNL     1       3.069   4.644  19.321  0.00  0.00    +0.000 C 
ATOM     10  O   UNL     1       1.985   5.170  19.562  0.00  0.00    +0.000 OA
ATOM     11  H   UNL     1       6.487   3.023  19.326  0.00  0.00    +0.000 HD
ATOM     12  H   UNL     1       2.578   2.905  20.240  0.00  0.00    +0.000 HD
ENDROOT
BRANCH   1  14
ATOM     13  C   UNL     1       5.101   6.492  15.614  0.00  0.00    +0.000 C 
ATOM     14  C   UNL     1       4.992   7.121  16.999  0.00  0.00    +0.000 C 
ENDBRANCH   1  14
BRANCH   1  15
ATOM     15  N   UNL     1       2.686   7.101  17.807  0.00  0.00    +0.000 N 
ATOM     16  H   UNL     1       2.140   6.768  17.001  0.00  0.00    +0.000 HD
BRANCH  15  17
ATOM     17  C   UNL     1       2.612   8.568  17.786  0.00  0.00    +0.000 C 
BRANCH  17  18
ATOM     18  C   UNL     1       1.495   9.086  18.661  0.00  0.00    +0.000 A 
ATOM     19  C   UNL     1       1.410   8.743  20.018  0.00  0.00    +0.000 A 
ATOM     20  C   UNL     1       0.399   9.252  20.837  0.00  0.00    +0.000 A 
ATOM     21  C   UNL     1      -0.527  10.146  20.301  0.00  0.00    +0.000 A 
ATOM     22  C   UNL     1      -0.453  10.521  18.953  0.00  0.00    +0.000 A 
ATOM     23  C   UNL     1       0.561  10.000  18.144  0.00  0.00    +0.000 A 
BRANCH  20  24
ATOM     24  O   UNL     1       0.427   8.801  22.128  0.00  0.00    +0.000 OA
ATOM     25  C   UNL     1      -0.159   9.635  23.120  0.00  0.00    +0.000 C 
ENDBRANCH  20  24
BRANCH  22  26
ATOM     26  O   UNL     1      -1.429  11.397  18.553  0.00  0.00    +0.000 OA
ATOM     27  C   UNL     1      -2.676  10.843  18.152  0.00  0.00    +0.000 C 
ENDBRANCH  22  26
ENDBRANCH  17  18
ENDBRANCH  15  17
ENDBRANCH   1  15
TORSDOF 6
ENDMDL
