MODEL 1
REMARK VINA RESULT:      -8.4      0.000      0.000
REMARK  Name = 
REMARK  5 active torsions:
REMARK  status: ('A' for Active; 'I' for Inactive)
REMARK    1  A    between atoms: C_1  and  C_2
REMARK    2  A    between atoms: C_4  and  C_5
REMARK    3  A    between atoms: N_7  and  C_8
REMARK    4  A    between atoms: N_12  and  C_13
REMARK    5  A    between atoms: C_13  and  C_14
REMARK                            x       y       z     vdW  Elec       q    Type
REMARK                         _______ _______ _______ _____ _____    ______ ____
ROOT
ATOM      1  C   UNL     1       3.576   2.489  19.267  0.00  0.00    +0.000 C 
ATOM      2  C   UNL     1       2.248   1.810  18.916  0.00  0.00    +0.000 C 
ATOM      3  C   UNL     1       1.143   2.802  18.555  0.00  0.00    +0.000 C 
ATOM      4  C   UNL     1       1.084   4.017  19.490  0.00  0.00    +0.000 C 
ATOM      5  N   UNL     1       2.414   4.636  19.627  0.00  0.00    +0.000 NA
ATOM      6  C   UNL     1       3.333   3.653  20.245  0.00  0.00    +0.000 C 
ENDROOT
BRANCH   1   9
ATOM      7  C   UNL     1       5.396   3.770  18.225  0.00  0.00    +0.000 C 
ATOM      8  O   UNL     1       5.893   3.993  19.326  0.00  0.00    +0.000 OA
ATOM      9  N   UNL     1       4.284   2.965  18.076  0.00  0.00    +0.000 N 
ATOM     10  H   UNL     1       3.723   3.106  17.247  0.00  0.00    +0.000 HD
BRANCH   7  14
ATOM     11  C   UNL     1       7.194   5.018  13.630  0.00  0.00    +0.000 C 
ATOM     12  C   UNL     1       6.789   4.942  15.055  0.00  0.00    +0.000 A 
ATOM     13  C   UNL     1       5.897   4.032  15.682  0.00  0.00    +0.000 A 
ATOM     14  C   UNL     1       5.957   4.333  17.029  0.00  0.00    +0.000 A 
ATOM     15  N   UNL     1       6.800   5.410  17.109  0.00  0.00    +0.000 N 
ATOM     16  N   UNL     1       7.321   5.795  15.936  0.00  0.00    +0.000 NA
ATOM     17  H   UNL     1       7.076   5.899  17.956  0.00  0.00    +0.000 HD
ENDBRANCH   7  14
ENDBRANCH   1   9
BRANCH   5  18
ATOM     18  C   UNL     1       2.388   5.860  20.450  0.00  0.00    +0.000 C 
BRANCH  18  19
ATOM     19  C   UNL     1       2.165   7.124  19.657  0.00  0.00    +0.000 A 
ATOM     20  C   UNL     1       2.654   7.262  18.348  0.00  0.00    +0.000 A 
ATOM     21  C   UNL     1       2.414   8.431  17.621  0.00  0.00    +0.000 A 
ATOM     22  C   UNL     1       1.690   9.477  18.194  0.00  0.00    +0.000 A 
ATOM     23  C   UNL     1       1.217   9.358  19.501  0.00  0.00    +0.000 A 
ATOM     24  C   UNL     1       1.458   8.191  20.220  0.00  0.00    +0.000 A 
ATOM     25  F   UNL     1       0.995   8.100  21.476  0.00  0.00    +0.000 F 
ENDBRANCH  18  19
ENDBRANCH   5  18
TORSDOF 4
ENDMDL
MODEL 2
REMARK VINA RESULT:      -8.3      2.737      4.765
REMARK  Name = 
REMARK  5 active torsions:
REMARK  status: ('A' for Active; 'I' for Inactive)
REMARK    1  A    between atoms: C_1  and  C_2
REMARK    2  A    between atoms: C_4  and  C_5
REMARK    3  A    between atoms: N_7  and  C_8
REMARK    4  A    between atoms: N_12  and  C_13
REMARK    5  A    between atoms: C_13  and  C_14
REMARK                            x       y       z     vdW  Elec       q    Type
REMARK                         _______ _______ _______ _____ _____    ______ ____
ROOT
ATOM      1  C   UNL     1       5.862   6.785  16.739  0.00  0.00    +0.000 C 
ATOM      2  C   UNL     1       6.906   6.343  17.770  0.00  0.00    +0.000 C 
ATOM      3  C   UNL     1       6.391   5.261  18.719  0.00  0.00    +0.000 C 
ATOM      4  C   UNL     1       4.969   5.524  19.230  0.00  0.00    +0.000 C 
ATOM      5  N   UNL     1       4.056   5.810  18.110  0.00  0.00    +0.000 NA
ATOM      6  C   UNL     1       4.511   7.045  17.431  0.00  0.00    +0.000 C 
ENDROOT
BRANCH   1   9
ATOM      7  C   UNL     1       6.797   5.451  14.899  0.00  0.00    +0.000 C 
ATOM      8  O   UNL     1       7.932   5.830  15.179  0.00  0.00    +0.000 OA
ATOM      9  N   UNL     1       5.701   5.805  15.662  0.00  0.00    +0.000 N 
ATOM     10  H   UNL     1       4.799   5.782  15.207  0.00  0.00    +0.000 HD
BRANCH   7  14
ATOM     11  C   UNL     1       5.476   1.994  11.406  0.00  0.00    +0.000 C 
ATOM     12  C   UNL     1       6.042   3.122  12.186  0.00  0.00    +0.000 A 
ATOM     13  C   UNL     1       5.632   3.630  13.447  0.00  0.00    +0.000 A 
ATOM     14  C   UNL     1       6.554   4.608  13.762  0.00  0.00    +0.000 A 
ATOM     15  N   UNL     1       7.387   4.668  12.676  0.00  0.00    +0.000 N 
ATOM     16  N   UNL     1       7.105   3.779  11.713  0.00  0.00    +0.000 NA
ATOM     17  H   UNL     1       8.187   5.284  12.561  0.00  0.00    +0.000 HD
ENDBRANCH   7  14
ENDBRANCH   1   9
BRANCH   5  18
ATOM     18  C   UNL     1       2.658   5.985  18.547  0.00  0.00    +0.000 C 
BRANCH  18  19
ATOM     19  C   UNL     1       2.035   4.733  19.114  0.00  0.00    +0.000 A 
ATOM     20  C   UNL     1       1.808   4.591  20.492  0.00  0.00    +0.000 A 
ATOM     21  C   UNL     1       1.205   3.435  20.996  0.00  0.00    +0.000 A 
ATOM     22  C   UNL     1       0.831   2.406  20.132  0.00  0.00    +0.000 A 
ATOM     23  C   UNL     1       1.071   2.529  18.763  0.00  0.00    +0.000 A 
ATOM     24  C   UNL     1       1.670   3.683  18.267  0.00  0.00    +0.000 A 
ATOM     25  F   UNL     1       1.893   3.778  16.948  0.00  0.00    +0.000 F 
ENDBRANCH  18  19
ENDBRANCH   5  18
TORSDOF 4
ENDMDL
MODEL 3
REMARK VINA RESULT:      -8.3      2.754      4.706
REMARK  Name = 
REMARK  5 active torsions:
REMARK  status: ('A' for Active; 'I' for Inactive)
REMARK    1  A    between atoms: C_1  and  C_2
REMARK    2  A    between atoms: C_4  and  C_5
REMARK    3  A    between atoms: N_7  and  C_8
REMARK    4  A    between atoms: N_12  and  C_13
REMARK    5  A    between atoms: C_13  and  C_14
REMARK                            x       y       z     vdW  Elec       q    Type
REMARK                         _______ _______ _______ _____ _____    ______ ____
ROOT
ATOM      1  C   UNL     1       6.130   6.238  16.215  0.00  0.00    +0.000 C 
ATOM      2  C   UNL     1       7.159   5.873  17.291  0.00  0.00    +0.000 C 
ATOM      3  C   UNL     1       6.580   4.995  18.400  0.00  0.00    +0.000 C 
ATOM      4  C   UNL     1       5.194   5.448  18.878  0.00  0.00    +0.000 C 
ATOM      5  N   UNL     1       4.283   5.636  17.736  0.00  0.00    +0.000 NA
ATOM      6  C   UNL     1       4.821   6.711  16.872  0.00  0.00    +0.000 C 
ENDROOT
BRANCH   1   9
ATOM      7  C   UNL     1       6.696   4.928  14.213  0.00  0.00    +0.000 C 
ATOM      8  O   UNL     1       7.726   5.580  14.057  0.00  0.00    +0.000 OA
ATOM      9  N   UNL     1       5.868   5.122  15.303  0.00  0.00    +0.000 N 
ATOM     10  H   UNL     1       4.902   4.843  15.199  0.00  0.00    +0.000 HD
BRANCH   7  14
ATOM     11  C   UNL     1       6.137   1.289  10.700  0.00  0.00    +0.000 C 
ATOM     12  C   UNL     1       5.977   2.349  11.724  0.00  0.00    +0.000 A 
ATOM     13  C   UNL     1       6.951   2.901  12.598  0.00  0.00    +0.000 A 
ATOM     14  C   UNL     1       6.304   3.919  13.269  0.00  0.00    +0.000 A 
ATOM     15  N   UNL     1       5.011   3.869  12.820  0.00  0.00    +0.000 N 
ATOM     16  N   UNL     1       4.787   2.936  11.883  0.00  0.00    +0.000 NA
ATOM     17  H   UNL     1       4.249   4.478  13.103  0.00  0.00    +0.000 HD
ENDBRANCH   7  14
ENDBRANCH   1   9
BRANCH   5  18
ATOM     18  C   UNL     1       2.914   5.990  18.154  0.00  0.00    +0.000 C 
BRANCH  18  19
ATOM     19  C   UNL     1       2.137   4.836  18.741  0.00  0.00    +0.000 A 
ATOM     20  C   UNL     1       1.792   3.719  17.965  0.00  0.00    +0.000 A 
ATOM     21  C   UNL     1       1.095   2.649  18.534  0.00  0.00    +0.000 A 
ATOM     22  C   UNL     1       0.729   2.686  19.879  0.00  0.00    +0.000 A 
ATOM     23  C   UNL     1       1.050   3.801  20.654  0.00  0.00    +0.000 A 
ATOM     24  C   UNL     1       1.745   4.863  20.082  0.00  0.00    +0.000 A 
ATOM     25  F   UNL     1       2.042   5.926  20.846  0.00  0.00    +0.000 F 
ENDBRANCH  18  19
ENDBRANCH   5  18
TORSDOF 4
ENDMDL
MODEL 4
REMARK VINA RESULT:      -8.2      3.033      4.957
REMARK  Name = 
REMARK  5 active torsions:
REMARK  status: ('A' for Active; 'I' for Inactive)
REMARK    1  A    between atoms: C_1  and  C_2
REMARK    2  A    between atoms: C_4  and  C_5
REMARK    3  A    between atoms: N_7  and  C_8
REMARK    4  A    between atoms: N_12  and  C_13
REMARK    5  A    between atoms: C_13  and  C_14
REMARK                            x       y       z     vdW  Elec       q    Type
REMARK                         _______ _______ _______ _____ _____    ______ ____
ROOT
ATOM      1  C   UNL     1       6.298   6.122  16.261  0.00  0.00    +0.000 C 
ATOM      2  C   UNL     1       7.292   5.718  17.354  0.00  0.00    +0.000 C 
ATOM      3  C   UNL     1       6.662   4.858  18.450  0.00  0.00    +0.000 C 
ATOM      4  C   UNL     1       5.285   5.361  18.904  0.00  0.00    +0.000 C 
ATOM      5  N   UNL     1       4.402   5.583  17.746  0.00  0.00    +0.000 NA
ATOM      6  C   UNL     1       4.994   6.641  16.895  0.00  0.00    +0.000 C 
ENDROOT
BRANCH   1   9
ATOM      7  C   UNL     1       6.755   4.892  14.182  0.00  0.00    +0.000 C 
ATOM      8  O   UNL     1       7.738   5.596  13.962  0.00  0.00    +0.000 OA
ATOM      9  N   UNL     1       6.012   5.019  15.340  0.00  0.00    +0.000 N 
ATOM     10  H   UNL     1       5.054   4.698  15.308  0.00  0.00    +0.000 HD
BRANCH   7  14
ATOM     11  C   UNL     1       6.085   1.254  10.687  0.00  0.00    +0.000 C 
ATOM     12  C   UNL     1       5.958   2.323  11.707  0.00  0.00    +0.000 A 
ATOM     13  C   UNL     1       6.949   2.851  12.576  0.00  0.00    +0.000 A 
ATOM     14  C   UNL     1       6.332   3.891  13.244  0.00  0.00    +0.000 A 
ATOM     15  N   UNL     1       5.037   3.874  12.797  0.00  0.00    +0.000 N 
ATOM     16  N   UNL     1       4.785   2.944  11.866  0.00  0.00    +0.000 NA
ATOM     17  H   UNL     1       4.293   4.506  13.079  0.00  0.00    +0.000 HD
ENDBRANCH   7  14
ENDBRANCH   1   9
BRANCH   5  18
ATOM     18  C   UNL     1       3.039   5.986  18.141  0.00  0.00    +0.000 C 
BRANCH  18  19
ATOM     19  C   UNL     1       2.245   4.885  18.801  0.00  0.00    +0.000 A 
ATOM     20  C   UNL     1       1.856   4.972  20.147  0.00  0.00    +0.000 A 
ATOM     21  C   UNL     1       1.098   3.955  20.733  0.00  0.00    +0.000 A 
ATOM     22  C   UNL     1       0.727   2.837  19.985  0.00  0.00    +0.000 A 
ATOM     23  C   UNL     1       1.126   2.732  18.652  0.00  0.00    +0.000 A 
ATOM     24  C   UNL     1       1.879   3.749  18.074  0.00  0.00    +0.000 A 
ATOM     25  F   UNL     1       2.253   3.625  16.791  0.00  0.00    +0.000 F 
ENDBRANCH  18  19
ENDBRANCH   5  18
TORSDOF 4
ENDMDL
MODEL 5
REMARK VINA RESULT:      -8.2      2.757      4.663
REMARK  Name = 
REMARK  5 active torsions:
REMARK  status: ('A' for Active; 'I' for Inactive)
REMARK    1  A    between atoms: C_1  and  C_2
REMARK    2  A    between atoms: C_4  and  C_5
REMARK    3  A    between atoms: N_7  and  C_8
REMARK    4  A    between atoms: N_12  and  C_13
REMARK    5  A    between atoms: C_13  and  C_14
REMARK                            x       y       z     vdW  Elec       q    Type
REMARK                         _______ _______ _______ _____ _____    ______ ____
ROOT
ATOM      1  C   UNL     1       6.410   6.051  16.437  0.00  0.00    +0.000 C 
ATOM      2  C   UNL     1       7.453   5.375  17.333  0.00  0.00    +0.000 C 
ATOM      3  C   UNL     1       6.835   4.431  18.364  0.00  0.00    +0.000 C 
ATOM      4  C   UNL     1       5.588   5.005  19.049  0.00  0.00    +0.000 C 
ATOM      5  N   UNL     1       4.625   5.501  18.050  0.00  0.00    +0.000 NA
ATOM      6  C   UNL     1       5.255   6.606  17.291  0.00  0.00    +0.000 C 
ENDROOT
BRANCH   1   9
ATOM      7  C   UNL     1       6.625   4.934  14.258  0.00  0.00    +0.000 C 
ATOM      8  O   UNL     1       7.761   5.382  14.121  0.00  0.00    +0.000 OA
ATOM      9  N   UNL     1       5.892   5.142  15.411  0.00  0.00    +0.000 N 
ATOM     10  H   UNL     1       4.887   5.078  15.333  0.00  0.00    +0.000 HD
BRANCH   7  14
ATOM     11  C   UNL     1       3.708   2.605  10.798  0.00  0.00    +0.000 C 
ATOM     12  C   UNL     1       4.784   3.078  11.703  0.00  0.00    +0.000 A 
ATOM     13  C   UNL     1       4.831   4.255  12.495  0.00  0.00    +0.000 A 
ATOM     14  C   UNL     1       6.002   4.159  13.222  0.00  0.00    +0.000 A 
ATOM     15  N   UNL     1       6.592   3.004  12.783  0.00  0.00    +0.000 N 
ATOM     16  N   UNL     1       5.877   2.328  11.872  0.00  0.00    +0.000 NA
ATOM     17  H   UNL     1       7.475   2.617  13.103  0.00  0.00    +0.000 HD
ENDBRANCH   7  14
ENDBRANCH   1   9
BRANCH   5  18
ATOM     18  C   UNL     1       3.373   5.984  18.660  0.00  0.00    +0.000 C 
BRANCH  18  19
ATOM     19  C   UNL     1       2.389   4.887  18.986  0.00  0.00    +0.000 A 
ATOM     20  C   UNL     1       2.052   3.905  18.042  0.00  0.00    +0.000 A 
ATOM     21  C   UNL     1       1.159   2.882  18.372  0.00  0.00    +0.000 A 
ATOM     22  C   UNL     1       0.588   2.833  19.644  0.00  0.00    +0.000 A 
ATOM     23  C   UNL     1       0.901   3.816  20.583  0.00  0.00    +0.000 A 
ATOM     24  C   UNL     1       1.792   4.831  20.248  0.00  0.00    +0.000 A 
ATOM     25  F   UNL     1       2.077   5.767  21.167  0.00  0.00    +0.000 F 
ENDBRANCH  18  19
ENDBRANCH   5  18
TORSDOF 4
ENDMDL
MODEL 6
REMARK VINA RESULT:      -8.0      1.108      1.491
REMARK  Name = 
REMARK  5 active torsions:
REMARK  status: ('A' for Active; 'I' for Inactive)
REMARK    1  A    between atoms: C_1  and  C_2
REMARK    2  A    between atoms: C_4  and  C_5
REMARK    3  A    between atoms: N_7  and  C_8
REMARK    4  A    between atoms: N_12  and  C_13
REMARK    5  A    between atoms: C_13  and  C_14
REMARK                            x       y       z     vdW  Elec       q    Type
REMARK                         _______ _______ _______ _____ _____    ______ ____
ROOT
ATOM      1  C   UNL     1       3.706   2.607  18.859  0.00  0.00    +0.000 C 
ATOM      2  C   UNL     1       2.309   2.054  18.558  0.00  0.00    +0.000 C 
ATOM      3  C   UNL     1       1.281   3.147  18.269  0.00  0.00    +0.000 C 
ATOM      4  C   UNL     1       1.371   4.340  19.230  0.00  0.00    +0.000 C 
ATOM      5  N   UNL     1       2.755   4.838  19.316  0.00  0.00    +0.000 NA
ATOM      6  C   UNL     1       3.611   3.764  19.870  0.00  0.00    +0.000 C 
ENDROOT
BRANCH   1   9
ATOM      7  C   UNL     1       5.560   3.787  17.758  0.00  0.00    +0.000 C 
ATOM      8  O   UNL     1       6.106   3.975  18.843  0.00  0.00    +0.000 OA
ATOM      9  N   UNL     1       4.398   3.047  17.645  0.00  0.00    +0.000 N 
ATOM     10  H   UNL     1       3.818   3.225  16.837  0.00  0.00    +0.000 HD
BRANCH   7  14
ATOM     11  C   UNL     1       7.285   4.945  13.113  0.00  0.00    +0.000 C 
ATOM     12  C   UNL     1       6.914   4.890  14.547  0.00  0.00    +0.000 A 
ATOM     13  C   UNL     1       6.006   4.017  15.202  0.00  0.00    +0.000 A 
ATOM     14  C   UNL     1       6.110   4.323  16.545  0.00  0.00    +0.000 A 
ATOM     15  N   UNL     1       6.993   5.369  16.598  0.00  0.00    +0.000 N 
ATOM     16  N   UNL     1       7.498   5.728  15.409  0.00  0.00    +0.000 NA
ATOM     17  H   UNL     1       7.307   5.852  17.435  0.00  0.00    +0.000 HD
ENDBRANCH   7  14
ENDBRANCH   1   9
BRANCH   5  18
ATOM     18  C   UNL     1       2.874   6.039  20.163  0.00  0.00    +0.000 C 
BRANCH  18  19
ATOM     19  C   UNL     1       2.323   7.292  19.527  0.00  0.00    +0.000 A 
ATOM     20  C   UNL     1       1.476   8.158  20.236  0.00  0.00    +0.000 A 
ATOM     21  C   UNL     1       0.997   9.327  19.638  0.00  0.00    +0.000 A 
ATOM     22  C   UNL     1       1.352   9.640  18.326  0.00  0.00    +0.000 A 
ATOM     23  C   UNL     1       2.178   8.776  17.607  0.00  0.00    +0.000 A 
ATOM     24  C   UNL     1       2.652   7.613  18.208  0.00  0.00    +0.000 A 
ATOM     25  F   UNL     1       3.443   6.796  17.496  0.00  0.00    +0.000 F 
ENDBRANCH  18  19
ENDBRANCH   5  18
TORSDOF 4
ENDMDL
MODEL 7
REMARK VINA RESULT:      -7.8      1.183      1.547
REMARK  Name = 
REMARK  5 active torsions:
REMARK  status: ('A' for Active; 'I' for Inactive)
REMARK    1  A    between atoms: C_1  and  C_2
REMARK    2  A    between atoms: C_4  and  C_5
REMARK    3  A    between atoms: N_7  and  C_8
REMARK    4  A    between atoms: N_12  and  C_13
REMARK    5  A    between atoms: C_13  and  C_14
REMARK                            x       y       z     vdW  Elec       q    Type
REMARK                         _______ _______ _______ _____ _____    ______ ____
ROOT
ATOM      1  C   UNL     1       3.217   2.746  20.022  0.00  0.00    +0.000 C 
ATOM      2  C   UNL     1       1.895   2.059  19.663  0.00  0.00    +0.000 C 
ATOM      3  C   UNL     1       0.849   3.023  19.105  0.00  0.00    +0.000 C 
ATOM      4  C   UNL     1       0.765   4.346  19.877  0.00  0.00    +0.000 C 
ATOM      5  N   UNL     1       2.101   4.947  20.031  0.00  0.00    +0.000 NA
ATOM      6  C   UNL     1       2.945   4.029  20.829  0.00  0.00    +0.000 C 
ENDROOT
BRANCH   1   9
ATOM      7  C   UNL     1       5.192   3.769  18.975  0.00  0.00    +0.000 C 
ATOM      8  O   UNL     1       5.657   4.042  20.079  0.00  0.00    +0.000 OA
ATOM      9  N   UNL     1       4.019   3.053  18.834  0.00  0.00    +0.000 N 
ATOM     10  H   UNL     1       3.512   3.170  17.968  0.00  0.00    +0.000 HD
BRANCH   7  14
ATOM     11  C   UNL     1       6.845   4.928  14.303  0.00  0.00    +0.000 C 
ATOM     12  C   UNL     1       6.659   4.684  15.754  0.00  0.00    +0.000 A 
ATOM     13  C   UNL     1       5.459   4.435  16.471  0.00  0.00    +0.000 A 
ATOM     14  C   UNL     1       5.856   4.175  17.768  0.00  0.00    +0.000 A 
ATOM     15  N   UNL     1       7.215   4.346  17.758  0.00  0.00    +0.000 N 
ATOM     16  N   UNL     1       7.727   4.647  16.557  0.00  0.00    +0.000 NA
ATOM     17  H   UNL     1       7.843   4.236  18.549  0.00  0.00    +0.000 HD
ENDBRANCH   7  14
ENDBRANCH   1   9
BRANCH   5  18
ATOM     18  C   UNL     1       2.059   6.264  20.693  0.00  0.00    +0.000 C 
BRANCH  18  19
ATOM     19  C   UNL     1       1.958   7.426  19.736  0.00  0.00    +0.000 A 
ATOM     20  C   UNL     1       1.254   8.593  20.075  0.00  0.00    +0.000 A 
ATOM     21  C   UNL     1       1.194   9.668  19.184  0.00  0.00    +0.000 A 
ATOM     22  C   UNL     1       1.828   9.589  17.944  0.00  0.00    +0.000 A 
ATOM     23  C   UNL     1       2.513   8.426  17.590  0.00  0.00    +0.000 A 
ATOM     24  C   UNL     1       2.570   7.359  18.481  0.00  0.00    +0.000 A 
ATOM     25  F   UNL     1       3.233   6.250  18.118  0.00  0.00    +0.000 F 
ENDBRANCH  18  19
ENDBRANCH   5  18
TORSDOF 4
ENDMDL
MODEL 8
REMARK VINA RESULT:      -7.7      1.773      2.397
REMARK  Name = 
REMARK  5 active torsions:
REMARK  status: ('A' for Active; 'I' for Inactive)
REMARK    1  A    between atoms: C_1  and  C_2
REMARK    2  A    between atoms: C_4  and  C_5
REMARK    3  A    between atoms: N_7  and  C_8
REMARK    4  A    between atoms: N_12  and  C_13
REMARK    5  A    between atoms: C_13  and  C_14
REMARK                            x       y       z     vdW  Elec       q    Type
REMARK                         _______ _______ _______ _____ _____    ______ ____
ROOT
ATOM      1  C   UNL     1       4.255   4.184  18.215  0.00  0.00    +0.000 C 
ATOM      2  C   UNL     1       2.917   3.449  18.348  0.00  0.00    +0.000 C 
ATOM      3  C   UNL     1       1.737   4.248  17.796  0.00  0.00    +0.000 C 
ATOM      4  C   UNL     1       1.766   5.731  18.190  0.00  0.00    +0.000 C 
ATOM      5  N   UNL     1       3.077   6.327  17.885  0.00  0.00    +0.000 NA
ATOM      6  C   UNL     1       4.110   5.640  18.694  0.00  0.00    +0.000 C 
ENDROOT
BRANCH   1   9
ATOM      7  C   UNL     1       6.107   4.416  16.615  0.00  0.00    +0.000 C 
ATOM      8  O   UNL     1       6.908   4.552  17.537  0.00  0.00    +0.000 OA
ATOM      9  N   UNL     1       4.770   4.148  16.844  0.00  0.00    +0.000 N 
ATOM     10  H   UNL     1       4.120   4.402  16.113  0.00  0.00    +0.000 HD
BRANCH   7  14
ATOM     11  C   UNL     1       7.205   4.032  11.661  0.00  0.00    +0.000 C 
ATOM     12  C   UNL     1       7.066   4.410  13.088  0.00  0.00    +0.000 A 
ATOM     13  C   UNL     1       6.162   3.908  14.061  0.00  0.00    +0.000 A 
ATOM     14  C   UNL     1       6.524   4.520  15.245  0.00  0.00    +0.000 A 
ATOM     15  N   UNL     1       7.541   5.371  14.903  0.00  0.00    +0.000 N 
ATOM     16  N   UNL     1       7.893   5.321  13.610  0.00  0.00    +0.000 NA
ATOM     17  H   UNL     1       8.051   5.986  15.530  0.00  0.00    +0.000 HD
ENDBRANCH   7  14
ENDBRANCH   1   9
BRANCH   5  18
ATOM     18  C   UNL     1       3.123   7.774  18.168  0.00  0.00    +0.000 C 
BRANCH  18  19
ATOM     19  C   UNL     1       2.049   8.244  19.118  0.00  0.00    +0.000 A 
ATOM     20  C   UNL     1       1.933   7.711  20.411  0.00  0.00    +0.000 A 
ATOM     21  C   UNL     1       0.948   8.179  21.285  0.00  0.00    +0.000 A 
ATOM     22  C   UNL     1       0.064   9.177  20.876  0.00  0.00    +0.000 A 
ATOM     23  C   UNL     1       0.158   9.700  19.586  0.00  0.00    +0.000 A 
ATOM     24  C   UNL     1       1.142   9.230  18.720  0.00  0.00    +0.000 A 
ATOM     25  F   UNL     1       1.212   9.746  17.484  0.00  0.00    +0.000 F 
ENDBRANCH  18  19
ENDBRANCH   5  18
TORSDOF 4
ENDMDL
MODEL 9
REMARK VINA RESULT:      -7.6      3.172      4.261
REMARK  Name = 
REMARK  5 active torsions:
REMARK  status: ('A' for Active; 'I' for Inactive)
REMARK    1  A    between atoms: C_1  and  C_2
REMARK    2  A    between atoms: C_4  and  C_5
REMARK    3  A    between atoms: N_7  and  C_8
REMARK    4  A    between atoms: N_12  and  C_13
REMARK    5  A    between atoms: C_13  and  C_14
REMARK                            x       y       z     vdW  Elec       q    Type
REMARK                         _______ _______ _______ _____ _____    ______ ____
ROOT
ATOM      1  C   UNL     1       7.147   4.723  17.087  0.00  0.00    +0.000 C 
ATOM      2  C   UNL     1       6.868   4.237  15.660  0.00  0.00    +0.000 C 
ATOM      3  C   UNL     1       5.508   4.687  15.129  0.00  0.00    +0.000 C 
ATOM      4  C   UNL     1       4.375   4.545  16.153  0.00  0.00    +0.000 C 
ATOM      5  N   UNL     1       4.746   5.171  17.434  0.00  0.00    +0.000 NA
ATOM      6  C   UNL     1       5.924   4.462  17.984  0.00  0.00    +0.000 C 
ENDROOT
BRANCH   1   9
ATOM      7  C   UNL     1       7.987   6.687  18.302  0.00  0.00    +0.000 C 
ATOM      8  O   UNL     1       8.239   5.993  19.284  0.00  0.00    +0.000 OA
ATOM      9  N   UNL     1       7.514   6.141  17.124  0.00  0.00    +0.000 N 
ATOM     10  H   UNL     1       6.998   6.755  16.509  0.00  0.00    +0.000 HD
BRANCH   7  14
ATOM     11  C   UNL     1       8.400  11.709  17.589  0.00  0.00    +0.000 C 
ATOM     12  C   UNL     1       8.417  10.310  18.081  0.00  0.00    +0.000 A 
ATOM     13  C   UNL     1       7.744   9.173  17.562  0.00  0.00    +0.000 A 
ATOM     14  C   UNL     1       8.183   8.110  18.327  0.00  0.00    +0.000 A 
ATOM     15  N   UNL     1       9.009   8.670  19.265  0.00  0.00    +0.000 N 
ATOM     16  N   UNL     1       9.174   9.995  19.137  0.00  0.00    +0.000 NA
ATOM     17  H   UNL     1       9.512   8.179  19.998  0.00  0.00    +0.000 HD
ENDBRANCH   7  14
ENDBRANCH   1   9
BRANCH   5  18
ATOM     18  C   UNL     1       3.652   5.133  18.422  0.00  0.00    +0.000 C 
BRANCH  18  19
ATOM     19  C   UNL     1       2.985   6.468  18.647  0.00  0.00    +0.000 A 
ATOM     20  C   UNL     1       3.077   7.499  17.698  0.00  0.00    +0.000 A 
ATOM     21  C   UNL     1       2.431   8.719  17.912  0.00  0.00    +0.000 A 
ATOM     22  C   UNL     1       1.692   8.926  19.078  0.00  0.00    +0.000 A 
ATOM     23  C   UNL     1       1.611   7.915  20.035  0.00  0.00    +0.000 A 
ATOM     24  C   UNL     1       2.257   6.702  19.816  0.00  0.00    +0.000 A 
ATOM     25  F   UNL     1       2.166   5.745  20.752  0.00  0.00    +0.000 F 
ENDBRANCH  18  19
ENDBRANCH   5  18
TORSDOF 4
ENDMDL
