MODEL 1
REMARK VINA RESULT:      -7.5      0.000      0.000
REMARK  Name = 
REMARK  8 active torsions:
REMARK  status: ('A' for Active; 'I' for Inactive)
REMARK    1  A    between atoms: C_1  and  O_2
REMARK    2  A    between atoms: O_2  and  C_3
REMARK    3  A    between atoms: C_6  and  S_7
REMARK    4  A    between atoms: S_7  and  N_10
REMARK    5  A    between atoms: C_14  and  C_15
REMARK    6  A    between atoms: N_17  and  C_18
REMARK    7  A    between atoms: C_24  and  O_25
REMARK    8  A    between atoms: O_25  and  C_26
REMARK                            x       y       z     vdW  Elec       q    Type
REMARK                         _______ _______ _______ _____ _____    ______ ____
ROOT
ATOM      1  N   UNL     1       2.284   4.215  18.820  0.00  0.00    +0.000 NA
ATOM      2  C   UNL     1       1.302   3.280  18.246  0.00  0.00    +0.000 C 
ATOM      3  C   UNL     1       1.926   1.913  18.453  0.00  0.00    +0.000 C 
ATOM      4  C   UNL     1       3.425   2.147  18.352  0.00  0.00    +0.000 C 
ATOM      5  C   UNL     1       3.641   3.645  18.596  0.00  0.00    +0.000 C 
ENDROOT
BRANCH   5   6
ATOM      6  C   UNL     1       4.310   4.250  17.354  0.00  0.00    +0.000 C 
ATOM      7  O   UNL     1       3.974   5.356  16.928  0.00  0.00    +0.000 OA
ATOM      8  N   UNL     1       5.271   3.450  16.759  0.00  0.00    +0.000 N 
ATOM      9  H   UNL     1       5.216   2.460  16.968  0.00  0.00    +0.000 HD
BRANCH   8  10
ATOM     10  C   UNL     1       6.003   3.859  15.625  0.00  0.00    +0.000 A 
ATOM     11  C   UNL     1       5.588   3.418  14.358  0.00  0.00    +0.000 A 
ATOM     12  C   UNL     1       6.228   3.875  13.206  0.00  0.00    +0.000 A 
ATOM     13 CL   UNL     1       5.663   3.377  11.658  0.00  0.00    +0.000 Cl
ATOM     14  C   UNL     1       7.301   4.753  13.300  0.00  0.00    +0.000 A 
ATOM     15  C   UNL     1       7.721   5.193  14.558  0.00  0.00    +0.000 A 
ATOM     16  C   UNL     1       7.077   4.757  15.725  0.00  0.00    +0.000 A 
BRANCH  16  17
ATOM     17  O   UNL     1       7.589   5.291  16.877  0.00  0.00    +0.000 OA
ATOM     18  C   UNL     1       7.287   6.659  17.141  0.00  0.00    +0.000 C 
ENDBRANCH  16  17
ENDBRANCH   8  10
ENDBRANCH   5   6
BRANCH   1  19
ATOM     19  S   UNL     1       1.953   4.994  20.273  0.00  0.00    +0.000 S 
ATOM     20  O   UNL     1       3.106   4.807  21.133  0.00  0.00    +0.000 OA
ATOM     21  O   UNL     1       0.642   4.557  20.698  0.00  0.00    +0.000 OA
BRANCH  19  25
ATOM     22  C   UNL     1       1.464   9.435  19.237  0.00  0.00    +0.000 A 
ATOM     23  C   UNL     1       2.052   8.560  18.319  0.00  0.00    +0.000 A 
ATOM     24  C   UNL     1       2.237   7.208  18.627  0.00  0.00    +0.000 A 
ATOM     25  C   UNL     1       1.859   6.736  19.893  0.00  0.00    +0.000 A 
ATOM     26  C   UNL     1       1.268   7.606  20.814  0.00  0.00    +0.000 A 
ATOM     27  C   UNL     1       1.080   8.956  20.490  0.00  0.00    +0.000 A 
BRANCH  22  29
ATOM     28  C   UNL     1       0.110  11.380  19.091  0.00  0.00    +0.000 C 
ATOM     29  O   UNL     1       1.347  10.733  18.817  0.00  0.00    +0.000 OA
ENDBRANCH  22  29
ENDBRANCH  19  25
ENDBRANCH   1  19
TORSDOF 6
ENDMDL
MODEL 2
REMARK VINA RESULT:      -7.3      0.998      1.404
REMARK  Name = 
REMARK  8 active torsions:
REMARK  status: ('A' for Active; 'I' for Inactive)
REMARK    1  A    between atoms: C_1  and  O_2
REMARK    2  A    between atoms: O_2  and  C_3
REMARK    3  A    between atoms: C_6  and  S_7
REMARK    4  A    between atoms: S_7  and  N_10
REMARK    5  A    between atoms: C_14  and  C_15
REMARK    6  A    between atoms: N_17  and  C_18
REMARK    7  A    between atoms: C_24  and  O_25
REMARK    8  A    between atoms: O_25  and  C_26
REMARK                            x       y       z     vdW  Elec       q    Type
REMARK                         _______ _______ _______ _____ _____    ______ ____
ROOT
ATOM      1  N   UNL     1       2.676   4.381  18.719  0.00  0.00    +0.000 NA
ATOM      2  C   UNL     1       1.306   4.132  18.241  0.00  0.00    +0.000 C 
ATOM      3  C   UNL     1       0.996   2.725  18.716  0.00  0.00    +0.000 C 
ATOM      4  C   UNL     1       2.331   1.998  18.681  0.00  0.00    +0.000 C 
ATOM      5  C   UNL     1       3.412   3.087  18.687  0.00  0.00    +0.000 C 
ENDROOT
BRANCH   5   6
ATOM      6  C   UNL     1       4.253   2.945  17.411  0.00  0.00    +0.000 C 
ATOM      7  O   UNL     1       4.459   1.841  16.907  0.00  0.00    +0.000 OA
ATOM      8  N   UNL     1       4.767   4.131  16.915  0.00  0.00    +0.000 N 
ATOM      9  H   UNL     1       4.833   4.898  17.575  0.00  0.00    +0.000 HD
BRANCH   8  10
ATOM     10  C   UNL     1       5.540   4.189  15.736  0.00  0.00    +0.000 A 
ATOM     11  C   UNL     1       4.967   3.752  14.531  0.00  0.00    +0.000 A 
ATOM     12  C   UNL     1       5.665   3.880  13.331  0.00  0.00    +0.000 A 
ATOM     13 CL   UNL     1       4.922   3.402  11.853  0.00  0.00    +0.000 Cl
ATOM     14  C   UNL     1       6.946   4.419  13.316  0.00  0.00    +0.000 A 
ATOM     15  C   UNL     1       7.522   4.852  14.513  0.00  0.00    +0.000 A 
ATOM     16  C   UNL     1       6.827   4.748  15.727  0.00  0.00    +0.000 A 
BRANCH  16  17
ATOM     17  O   UNL     1       7.515   5.232  16.807  0.00  0.00    +0.000 OA
ATOM     18  C   UNL     1       7.291   6.599  17.150  0.00  0.00    +0.000 C 
ENDBRANCH  16  17
ENDBRANCH   8  10
ENDBRANCH   5   6
BRANCH   1  19
ATOM     19  S   UNL     1       2.941   5.442  19.995  0.00  0.00    +0.000 S 
ATOM     20  O   UNL     1       4.374   5.646  20.093  0.00  0.00    +0.000 OA
ATOM     21  O   UNL     1       2.193   4.940  21.126  0.00  0.00    +0.000 OA
BRANCH  19  25
ATOM     22  C   UNL     1       1.325   9.555  18.764  0.00  0.00    +0.000 A 
ATOM     23  C   UNL     1       1.121   9.079  20.064  0.00  0.00    +0.000 A 
ATOM     24  C   UNL     1       1.580   7.815  20.449  0.00  0.00    +0.000 A 
ATOM     25  C   UNL     1       2.222   7.001  19.504  0.00  0.00    +0.000 A 
ATOM     26  C   UNL     1       2.432   7.472  18.205  0.00  0.00    +0.000 A 
ATOM     27  C   UNL     1       1.975   8.744  17.833  0.00  0.00    +0.000 A 
BRANCH  22  29
ATOM     28  C   UNL     1      -0.592  10.946  18.599  0.00  0.00    +0.000 C 
ATOM     29  O   UNL     1       0.821  10.802  18.512  0.00  0.00    +0.000 OA
ENDBRANCH  22  29
ENDBRANCH  19  25
ENDBRANCH   1  19
TORSDOF 6
ENDMDL
MODEL 3
REMARK VINA RESULT:      -7.2      3.454      5.999
REMARK  Name = 
REMARK  8 active torsions:
REMARK  status: ('A' for Active; 'I' for Inactive)
REMARK    1  A    between atoms: C_1  and  O_2
REMARK    2  A    between atoms: O_2  and  C_3
REMARK    3  A    between atoms: C_6  and  S_7
REMARK    4  A    between atoms: S_7  and  N_10
REMARK    5  A    between atoms: C_14  and  C_15
REMARK    6  A    between atoms: N_17  and  C_18
REMARK    7  A    between atoms: C_24  and  O_25
REMARK    8  A    between atoms: O_25  and  C_26
REMARK                            x       y       z     vdW  Elec       q    Type
REMARK                         _______ _______ _______ _____ _____    ______ ____
ROOT
ATOM      1  N   UNL     1       0.364   9.255  20.174  0.00  0.00    +0.000 NA
ATOM      2  C   UNL     1      -0.617   9.188  21.269  0.00  0.00    +0.000 C 
ATOM      3  C   UNL     1       0.204   9.439  22.519  0.00  0.00    +0.000 C 
ATOM      4  C   UNL     1       1.570   8.844  22.216  0.00  0.00    +0.000 C 
ATOM      5  C   UNL     1       1.660   8.734  20.689  0.00  0.00    +0.000 C 
ENDROOT
BRANCH   5   6
ATOM      6  C   UNL     1       1.864   7.259  20.317  0.00  0.00    +0.000 C 
ATOM      7  O   UNL     1       1.542   6.359  21.095  0.00  0.00    +0.000 OA
ATOM      8  N   UNL     1       2.451   7.042  19.083  0.00  0.00    +0.000 N 
ATOM      9  H   UNL     1       2.979   7.819  18.700  0.00  0.00    +0.000 HD
BRANCH   8  10
ATOM     10  C   UNL     1       2.689   5.749  18.572  0.00  0.00    +0.000 A 
ATOM     11  C   UNL     1       1.762   4.732  18.850  0.00  0.00    +0.000 A 
ATOM     12  C   UNL     1       1.912   3.466  18.285  0.00  0.00    +0.000 A 
ATOM     13 CL   UNL     1       0.729   2.250  18.582  0.00  0.00    +0.000 Cl
ATOM     14  C   UNL     1       2.996   3.188  17.461  0.00  0.00    +0.000 A 
ATOM     15  C   UNL     1       3.924   4.195  17.184  0.00  0.00    +0.000 A 
ATOM     16  C   UNL     1       3.778   5.479  17.728  0.00  0.00    +0.000 A 
BRANCH  16  17
ATOM     17  O   UNL     1       4.754   6.360  17.349  0.00  0.00    +0.000 OA
ATOM     18  C   UNL     1       5.170   6.311  15.985  0.00  0.00    +0.000 C 
ENDBRANCH  16  17
ENDBRANCH   8  10
ENDBRANCH   5   6
BRANCH   1  19
ATOM     19  S   UNL     1       0.369  10.573  19.130  0.00  0.00    +0.000 S 
ATOM     20  O   UNL     1       1.259  10.248  18.032  0.00  0.00    +0.000 OA
ATOM     21  O   UNL     1       0.598  11.751  19.936  0.00  0.00    +0.000 OA
BRANCH  19  25
ATOM     22  C   UNL     1      -3.775  11.000  17.210  0.00  0.00    +0.000 A 
ATOM     23  C   UNL     1      -3.443  11.753  18.341  0.00  0.00    +0.000 A 
ATOM     24  C   UNL     1      -2.196  11.615  18.958  0.00  0.00    +0.000 A 
ATOM     25  C   UNL     1      -1.281  10.679  18.454  0.00  0.00    +0.000 A 
ATOM     26  C   UNL     1      -1.606   9.926  17.322  0.00  0.00    +0.000 A 
ATOM     27  C   UNL     1      -2.855  10.079  16.707  0.00  0.00    +0.000 A 
BRANCH  22  29
ATOM     28  C   UNL     1      -5.766  12.291  17.288  0.00  0.00    +0.000 C 
ATOM     29  O   UNL     1      -5.028  11.223  16.706  0.00  0.00    +0.000 OA
ENDBRANCH  22  29
ENDBRANCH  19  25
ENDBRANCH   1  19
TORSDOF 6
ENDMDL
MODEL 4
REMARK VINA RESULT:      -7.2      3.543      6.419
REMARK  Name = 
REMARK  8 active torsions:
REMARK  status: ('A' for Active; 'I' for Inactive)
REMARK    1  A    between atoms: C_1  and  O_2
REMARK    2  A    between atoms: O_2  and  C_3
REMARK    3  A    between atoms: C_6  and  S_7
REMARK    4  A    between atoms: S_7  and  N_10
REMARK    5  A    between atoms: C_14  and  C_15
REMARK    6  A    between atoms: N_17  and  C_18
REMARK    7  A    between atoms: C_24  and  O_25
REMARK    8  A    between atoms: O_25  and  C_26
REMARK                            x       y       z     vdW  Elec       q    Type
REMARK                         _______ _______ _______ _____ _____    ______ ____
ROOT
ATOM      1  N   UNL     1      -0.208   9.778  20.555  0.00  0.00    +0.000 NA
ATOM      2  C   UNL     1      -0.674   9.023  21.730  0.00  0.00    +0.000 C 
ATOM      3  C   UNL     1       0.464   9.146  22.725  0.00  0.00    +0.000 C 
ATOM      4  C   UNL     1       1.723   9.208  21.875  0.00  0.00    +0.000 C 
ATOM      5  C   UNL     1       1.270   9.624  20.469  0.00  0.00    +0.000 C 
ENDROOT
BRANCH   5   6
ATOM      6  C   UNL     1       1.667   8.517  19.483  0.00  0.00    +0.000 C 
ATOM      7  O   UNL     1       1.456   8.638  18.275  0.00  0.00    +0.000 OA
ATOM      8  N   UNL     1       2.236   7.395  20.060  0.00  0.00    +0.000 N 
ATOM      9  H   UNL     1       2.043   7.256  21.046  0.00  0.00    +0.000 HD
BRANCH   8  10
ATOM     10  C   UNL     1       2.683   6.294  19.300  0.00  0.00    +0.000 A 
ATOM     11  C   UNL     1       3.550   6.526  18.220  0.00  0.00    +0.000 A 
ATOM     12  C   UNL     1       4.087   5.458  17.503  0.00  0.00    +0.000 A 
ATOM     13 CL   UNL     1       5.201   5.758  16.225  0.00  0.00    +0.000 Cl
ATOM     14  C   UNL     1       3.752   4.150  17.834  0.00  0.00    +0.000 A 
ATOM     15  C   UNL     1       2.887   3.913  18.905  0.00  0.00    +0.000 A 
ATOM     16  C   UNL     1       2.352   4.975  19.648  0.00  0.00    +0.000 A 
BRANCH  16  17
ATOM     17  O   UNL     1       1.539   4.582  20.677  0.00  0.00    +0.000 OA
ATOM     18  C   UNL     1       2.079   3.635  21.596  0.00  0.00    +0.000 C 
ENDBRANCH  16  17
ENDBRANCH   8  10
ENDBRANCH   5   6
BRANCH   1  19
ATOM     19  S   UNL     1      -0.899  11.265  20.185  0.00  0.00    +0.000 S 
ATOM     20  O   UNL     1       0.178  12.149  19.779  0.00  0.00    +0.000 OA
ATOM     21  O   UNL     1      -1.761  11.619  21.290  0.00  0.00    +0.000 OA
BRANCH  19  25
ATOM     22  C   UNL     1      -3.381  10.729  16.365  0.00  0.00    +0.000 A 
ATOM     23  C   UNL     1      -3.813  11.604  17.367  0.00  0.00    +0.000 A 
ATOM     24  C   UNL     1      -3.085  11.759  18.551  0.00  0.00    +0.000 A 
ATOM     25  C   UNL     1      -1.925  10.995  18.749  0.00  0.00    +0.000 A 
ATOM     26  C   UNL     1      -1.487  10.121  17.749  0.00  0.00    +0.000 A 
ATOM     27  C   UNL     1      -2.220   9.982  16.563  0.00  0.00    +0.000 A 
BRANCH  22  29
ATOM     28  C   UNL     1      -3.616  10.078  14.093  0.00  0.00    +0.000 C 
ATOM     29  O   UNL     1      -4.185  10.664  15.259  0.00  0.00    +0.000 OA
ENDBRANCH  22  29
ENDBRANCH  19  25
ENDBRANCH   1  19
TORSDOF 6
ENDMDL
MODEL 5
REMARK VINA RESULT:      -7.2      3.626      6.186
REMARK  Name = 
REMARK  8 active torsions:
REMARK  status: ('A' for Active; 'I' for Inactive)
REMARK    1  A    between atoms: C_1  and  O_2
REMARK    2  A    between atoms: O_2  and  C_3
REMARK    3  A    between atoms: C_6  and  S_7
REMARK    4  A    between atoms: S_7  and  N_10
REMARK    5  A    between atoms: C_14  and  C_15
REMARK    6  A    between atoms: N_17  and  C_18
REMARK    7  A    between atoms: C_24  and  O_25
REMARK    8  A    between atoms: O_25  and  C_26
REMARK                            x       y       z     vdW  Elec       q    Type
REMARK                         _______ _______ _______ _____ _____    ______ ____
ROOT
ATOM      1  N   UNL     1       0.403   9.471  20.035  0.00  0.00    +0.000 NA
ATOM      2  C   UNL     1      -0.544   9.038  21.077  0.00  0.00    +0.000 C 
ATOM      3  C   UNL     1       0.286   9.014  22.346  0.00  0.00    +0.000 C 
ATOM      4  C   UNL     1       1.685   8.631  21.892  0.00  0.00    +0.000 C 
ATOM      5  C   UNL     1       1.747   8.936  20.390  0.00  0.00    +0.000 C 
ENDROOT
BRANCH   5   6
ATOM      6  C   UNL     1       2.053   7.633  19.639  0.00  0.00    +0.000 C 
ATOM      7  O   UNL     1       2.078   7.602  18.408  0.00  0.00    +0.000 OA
ATOM      8  N   UNL     1       2.261   6.528  20.446  0.00  0.00    +0.000 N 
ATOM      9  H   UNL     1       1.881   6.585  21.384  0.00  0.00    +0.000 HD
BRANCH   8  10
ATOM     10  C   UNL     1       2.579   5.256  19.925  0.00  0.00    +0.000 A 
ATOM     11  C   UNL     1       1.537   4.352  19.667  0.00  0.00    +0.000 A 
ATOM     12  C   UNL     1       1.801   3.123  19.065  0.00  0.00    +0.000 A 
ATOM     13 CL   UNL     1       0.503   2.054  18.693  0.00  0.00    +0.000 Cl
ATOM     14  C   UNL     1       3.104   2.766  18.737  0.00  0.00    +0.000 A 
ATOM     15  C   UNL     1       4.146   3.660  18.995  0.00  0.00    +0.000 A 
ATOM     16  C   UNL     1       3.895   4.909  19.583  0.00  0.00    +0.000 A 
BRANCH  16  17
ATOM     17  O   UNL     1       5.014   5.680  19.754  0.00  0.00    +0.000 OA
ATOM     18  C   UNL     1       6.136   5.374  18.928  0.00  0.00    +0.000 C 
ENDBRANCH  16  17
ENDBRANCH   8  10
ENDBRANCH   5   6
BRANCH   1  19
ATOM     19  S   UNL     1       0.283  11.014  19.379  0.00  0.00    +0.000 S 
ATOM     20  O   UNL     1       1.193  11.073  18.251  0.00  0.00    +0.000 OA
ATOM     21  O   UNL     1       0.409  11.951  20.474  0.00  0.00    +0.000 OA
BRANCH  19  25
ATOM     22  C   UNL     1      -4.049  11.200  17.882  0.00  0.00    +0.000 A 
ATOM     23  C   UNL     1      -3.116  10.380  17.237  0.00  0.00    +0.000 A 
ATOM     24  C   UNL     1      -1.785  10.333  17.660  0.00  0.00    +0.000 A 
ATOM     25  C   UNL     1      -1.373  11.149  18.725  0.00  0.00    +0.000 A 
ATOM     26  C   UNL     1      -2.301  11.968  19.374  0.00  0.00    +0.000 A 
ATOM     27  C   UNL     1      -3.635  12.001  18.947  0.00  0.00    +0.000 A 
BRANCH  22  29
ATOM     28  C   UNL     1      -5.957  12.416  17.162  0.00  0.00    +0.000 C 
ATOM     29  O   UNL     1      -5.317  11.162  17.367  0.00  0.00    +0.000 OA
ENDBRANCH  22  29
ENDBRANCH  19  25
ENDBRANCH   1  19
TORSDOF 6
ENDMDL
MODEL 6
REMARK VINA RESULT:      -7.0      3.345      7.702
REMARK  Name = 
REMARK  8 active torsions:
REMARK  status: ('A' for Active; 'I' for Inactive)
REMARK    1  A    between atoms: C_1  and  O_2
REMARK    2  A    between atoms: O_2  and  C_3
REMARK    3  A    between atoms: C_6  and  S_7
REMARK    4  A    between atoms: S_7  and  N_10
REMARK    5  A    between atoms: C_14  and  C_15
REMARK    6  A    between atoms: N_17  and  C_18
REMARK    7  A    between atoms: C_24  and  O_25
REMARK    8  A    between atoms: O_25  and  C_26
REMARK                            x       y       z     vdW  Elec       q    Type
REMARK                         _______ _______ _______ _____ _____    ______ ____
ROOT
ATOM      1  N   UNL     1       3.467   4.735  19.328  0.00  0.00    +0.000 NA
ATOM      2  C   UNL     1       2.489   3.640  19.225  0.00  0.00    +0.000 C 
ATOM      3  C   UNL     1       1.856   3.835  17.861  0.00  0.00    +0.000 C 
ATOM      4  C   UNL     1       1.862   5.339  17.637  0.00  0.00    +0.000 C 
ATOM      5  C   UNL     1       2.916   5.909  18.595  0.00  0.00    +0.000 C 
ENDROOT
BRANCH   5   6
ATOM      6  C   UNL     1       2.227   6.897  19.546  0.00  0.00    +0.000 C 
ATOM      7  O   UNL     1       1.918   6.564  20.691  0.00  0.00    +0.000 OA
ATOM      8  N   UNL     1       1.967   8.144  19.005  0.00  0.00    +0.000 N 
ATOM      9  H   UNL     1       1.939   8.192  17.993  0.00  0.00    +0.000 HD
BRANCH   8  10
ATOM     10  C   UNL     1       1.363   9.182  19.746  0.00  0.00    +0.000 A 
ATOM     11  C   UNL     1       0.819   8.884  21.005  0.00  0.00    +0.000 A 
ATOM     12  C   UNL     1       0.298   9.899  21.807  0.00  0.00    +0.000 A 
ATOM     13 CL   UNL     1      -0.304   9.527  23.376  0.00  0.00    +0.000 Cl
ATOM     14  C   UNL     1       0.288  11.214  21.358  0.00  0.00    +0.000 A 
ATOM     15  C   UNL     1       0.825  11.516  20.105  0.00  0.00    +0.000 A 
ATOM     16  C   UNL     1       1.370  10.510  19.293  0.00  0.00    +0.000 A 
BRANCH  16  17
ATOM     17  O   UNL     1       1.875  10.965  18.104  0.00  0.00    +0.000 OA
ATOM     18  C   UNL     1       2.411  12.286  18.098  0.00  0.00    +0.000 C 
ENDBRANCH  16  17
ENDBRANCH   8  10
ENDBRANCH   5   6
BRANCH   1  19
ATOM     19  S   UNL     1       5.112   4.406  19.228  0.00  0.00    +0.000 S 
ATOM     20  O   UNL     1       5.297   3.020  19.617  0.00  0.00    +0.000 OA
ATOM     21  O   UNL     1       5.800   5.464  19.934  0.00  0.00    +0.000 OA
BRANCH  19  25
ATOM     22  C   UNL     1       6.397   4.544  14.827  0.00  0.00    +0.000 A 
ATOM     23  C   UNL     1       6.802   5.550  15.710  0.00  0.00    +0.000 A 
ATOM     24  C   UNL     1       6.396   5.542  17.048  0.00  0.00    +0.000 A 
ATOM     25  C   UNL     1       5.539   4.526  17.498  0.00  0.00    +0.000 A 
ATOM     26  C   UNL     1       5.134   3.516  16.621  0.00  0.00    +0.000 A 
ATOM     27  C   UNL     1       5.555   3.531  15.285  0.00  0.00    +0.000 A 
BRANCH  22  29
ATOM     28  C   UNL     1       6.429   3.682  12.615  0.00  0.00    +0.000 C 
ATOM     29  O   UNL     1       6.857   4.671  13.544  0.00  0.00    +0.000 OA
ENDBRANCH  22  29
ENDBRANCH  19  25
ENDBRANCH   1  19
TORSDOF 6
ENDMDL
MODEL 7
REMARK VINA RESULT:      -7.0      1.025      1.064
REMARK  Name = 
REMARK  8 active torsions:
REMARK  status: ('A' for Active; 'I' for Inactive)
REMARK    1  A    between atoms: C_1  and  O_2
REMARK    2  A    between atoms: O_2  and  C_3
REMARK    3  A    between atoms: C_6  and  S_7
REMARK    4  A    between atoms: S_7  and  N_10
REMARK    5  A    between atoms: C_14  and  C_15
REMARK    6  A    between atoms: N_17  and  C_18
REMARK    7  A    between atoms: C_24  and  O_25
REMARK    8  A    between atoms: O_25  and  C_26
REMARK                            x       y       z     vdW  Elec       q    Type
REMARK                         _______ _______ _______ _____ _____    ______ ____
ROOT
ATOM      1  N   UNL     1       2.389   4.194  19.121  0.00  0.00    +0.000 NA
ATOM      2  C   UNL     1       1.489   3.464  18.212  0.00  0.00    +0.000 C 
ATOM      3  C   UNL     1       1.655   2.011  18.613  0.00  0.00    +0.000 C 
ATOM      4  C   UNL     1       3.099   1.894  19.073  0.00  0.00    +0.000 C 
ATOM      5  C   UNL     1       3.561   3.319  19.402  0.00  0.00    +0.000 C 
ENDROOT
BRANCH   5   6
ATOM      6  C   UNL     1       4.754   3.666  18.502  0.00  0.00    +0.000 C 
ATOM      7  O   UNL     1       5.910   3.576  18.918  0.00  0.00    +0.000 OA
ATOM      8  N   UNL     1       4.421   4.103  17.231  0.00  0.00    +0.000 N 
ATOM      9  H   UNL     1       3.480   4.464  17.118  0.00  0.00    +0.000 HD
BRANCH   8  10
ATOM     10  C   UNL     1       5.392   4.438  16.265  0.00  0.00    +0.000 A 
ATOM     11  C   UNL     1       5.451   3.690  15.078  0.00  0.00    +0.000 A 
ATOM     12  C   UNL     1       6.333   4.049  14.060  0.00  0.00    +0.000 A 
ATOM     13 CL   UNL     1       6.345   3.162  12.584  0.00  0.00    +0.000 Cl
ATOM     14  C   UNL     1       7.183   5.137  14.218  0.00  0.00    +0.000 A 
ATOM     15  C   UNL     1       7.132   5.883  15.397  0.00  0.00    +0.000 A 
ATOM     16  C   UNL     1       6.237   5.547  16.424  0.00  0.00    +0.000 A 
BRANCH  16  17
ATOM     17  O   UNL     1       6.291   6.383  17.507  0.00  0.00    +0.000 OA
ATOM     18  C   UNL     1       7.582   6.639  18.057  0.00  0.00    +0.000 C 
ENDBRANCH  16  17
ENDBRANCH   8  10
ENDBRANCH   5   6
BRANCH   1  19
ATOM     19  S   UNL     1       1.750   5.131  20.362  0.00  0.00    +0.000 S 
ATOM     20  O   UNL     1       2.649   5.014  21.495  0.00  0.00    +0.000 OA
ATOM     21  O   UNL     1       0.356   4.769  20.492  0.00  0.00    +0.000 OA
BRANCH  19  25
ATOM     22  C   UNL     1       1.715   9.459  18.845  0.00  0.00    +0.000 A 
ATOM     23  C   UNL     1       2.281   8.445  18.066  0.00  0.00    +0.000 A 
ATOM     24  C   UNL     1       2.328   7.125  18.523  0.00  0.00    +0.000 A 
ATOM     25  C   UNL     1       1.832   6.824  19.801  0.00  0.00    +0.000 A 
ATOM     26  C   UNL     1       1.263   7.832  20.584  0.00  0.00    +0.000 A 
ATOM     27  C   UNL     1       1.213   9.150  20.110  0.00  0.00    +0.000 A 
BRANCH  22  29
ATOM     28  C   UNL     1       1.349  11.788  19.129  0.00  0.00    +0.000 C 
ATOM     29  O   UNL     1       1.738  10.709  18.287  0.00  0.00    +0.000 OA
ENDBRANCH  22  29
ENDBRANCH  19  25
ENDBRANCH   1  19
TORSDOF 6
ENDMDL
MODEL 8
REMARK VINA RESULT:      -6.9      3.686      7.128
REMARK  Name = 
REMARK  8 active torsions:
REMARK  status: ('A' for Active; 'I' for Inactive)
REMARK    1  A    between atoms: C_1  and  O_2
REMARK    2  A    between atoms: O_2  and  C_3
REMARK    3  A    between atoms: C_6  and  S_7
REMARK    4  A    between atoms: S_7  and  N_10
REMARK    5  A    between atoms: C_14  and  C_15
REMARK    6  A    between atoms: N_17  and  C_18
REMARK    7  A    between atoms: C_24  and  O_25
REMARK    8  A    between atoms: O_25  and  C_26
REMARK                            x       y       z     vdW  Elec       q    Type
REMARK                         _______ _______ _______ _____ _____    ______ ____
ROOT
ATOM      1  N   UNL     1       3.219   3.759  20.236  0.00  0.00    +0.000 NA
ATOM      2  C   UNL     1       2.650   3.128  21.439  0.00  0.00    +0.000 C 
ATOM      3  C   UNL     1       1.218   2.813  21.051  0.00  0.00    +0.000 C 
ATOM      4  C   UNL     1       0.821   3.918  20.086  0.00  0.00    +0.000 C 
ATOM      5  C   UNL     1       2.132   4.521  19.563  0.00  0.00    +0.000 C 
ENDROOT
BRANCH   5   6
ATOM      6  C   UNL     1       2.168   6.008  19.937  0.00  0.00    +0.000 C 
ATOM      7  O   UNL     1       3.238   6.608  20.050  0.00  0.00    +0.000 OA
ATOM      8  N   UNL     1       0.930   6.587  20.159  0.00  0.00    +0.000 N 
ATOM      9  H   UNL     1       0.175   5.947  20.381  0.00  0.00    +0.000 HD
BRANCH   8  10
ATOM     10  C   UNL     1       0.776   7.950  20.487  0.00  0.00    +0.000 A 
ATOM     11  C   UNL     1       0.247   8.287  21.743  0.00  0.00    +0.000 A 
ATOM     12  C   UNL     1       0.166   9.621  22.140  0.00  0.00    +0.000 A 
ATOM     13 CL   UNL     1      -0.421  10.013  23.710  0.00  0.00    +0.000 Cl
ATOM     14  C   UNL     1       0.586  10.635  21.287  0.00  0.00    +0.000 A 
ATOM     15  C   UNL     1       1.109  10.306  20.035  0.00  0.00    +0.000 A 
ATOM     16  C   UNL     1       1.214   8.968  19.627  0.00  0.00    +0.000 A 
BRANCH  16  17
ATOM     17  O   UNL     1       1.765   8.806  18.384  0.00  0.00    +0.000 OA
ATOM     18  C   UNL     1       2.100   9.994  17.669  0.00  0.00    +0.000 C 
ENDBRANCH  16  17
ENDBRANCH   8  10
ENDBRANCH   5   6
BRANCH   1  19
ATOM     19  S   UNL     1       4.335   2.922  19.298  0.00  0.00    +0.000 S 
ATOM     20  O   UNL     1       3.599   2.277  18.228  0.00  0.00    +0.000 OA
ATOM     21  O   UNL     1       5.149   2.142  20.203  0.00  0.00    +0.000 OA
BRANCH  19  25
ATOM     22  C   UNL     1       6.862   6.281  17.461  0.00  0.00    +0.000 A 
ATOM     23  C   UNL     1       5.927   5.596  16.678  0.00  0.00    +0.000 A 
ATOM     24  C   UNL     1       5.169   4.549  17.212  0.00  0.00    +0.000 A 
ATOM     25  C   UNL     1       5.379   4.160  18.544  0.00  0.00    +0.000 A 
ATOM     26  C   UNL     1       6.309   4.843  19.332  0.00  0.00    +0.000 A 
ATOM     27  C   UNL     1       7.057   5.896  18.788  0.00  0.00    +0.000 A 
BRANCH  22  29
ATOM     28  C   UNL     1       7.864   8.430  17.593  0.00  0.00    +0.000 C 
ATOM     29  O   UNL     1       7.544   7.279  16.819  0.00  0.00    +0.000 OA
ENDBRANCH  22  29
ENDBRANCH  19  25
ENDBRANCH   1  19
TORSDOF 6
ENDMDL
MODEL 9
REMARK VINA RESULT:      -6.8      3.494      6.472
REMARK  Name = 
REMARK  8 active torsions:
REMARK  status: ('A' for Active; 'I' for Inactive)
REMARK    1  A    between atoms: C_1  and  O_2
REMARK    2  A    between atoms: O_2  and  C_3
REMARK    3  A    between atoms: C_6  and  S_7
REMARK    4  A    between atoms: S_7  and  N_10
REMARK    5  A    between atoms: C_14  and  C_15
REMARK    6  A    between atoms: N_17  and  C_18
REMARK    7  A    between atoms: C_24  and  O_25
REMARK    8  A    between atoms: O_25  and  C_26
REMARK                            x       y       z     vdW  Elec       q    Type
REMARK                         _______ _______ _______ _____ _____    ______ ____
ROOT
ATOM      1  N   UNL     1       0.093   9.736  20.194  0.00  0.00    +0.000 NA
ATOM      2  C   UNL     1      -0.757   9.117  21.224  0.00  0.00    +0.000 C 
ATOM      3  C   UNL     1       0.131   9.059  22.452  0.00  0.00    +0.000 C 
ATOM      4  C   UNL     1       1.537   8.860  21.910  0.00  0.00    +0.000 C 
ATOM      5  C   UNL     1       1.497   9.308  20.443  0.00  0.00    +0.000 C 
ENDROOT
BRANCH   5   6
ATOM      6  C   UNL     1       1.891   8.117  19.559  0.00  0.00    +0.000 C 
ATOM      7  O   UNL     1       1.715   8.147  18.340  0.00  0.00    +0.000 OA
ATOM      8  N   UNL     1       2.416   7.032  20.239  0.00  0.00    +0.000 N 
ATOM      9  H   UNL     1       2.193   6.977  21.227  0.00  0.00    +0.000 HD
BRANCH   8  10
ATOM     10  C   UNL     1       2.854   5.863  19.581  0.00  0.00    +0.000 A 
ATOM     11  C   UNL     1       3.555   5.992  18.371  0.00  0.00    +0.000 A 
ATOM     12  C   UNL     1       4.085   4.867  17.740  0.00  0.00    +0.000 A 
ATOM     13 CL   UNL     1       5.000   5.050  16.293  0.00  0.00    +0.000 Cl
ATOM     14  C   UNL     1       3.904   3.603  18.287  0.00  0.00    +0.000 A 
ATOM     15  C   UNL     1       3.204   3.468  19.488  0.00  0.00    +0.000 A 
ATOM     16  C   UNL     1       2.680   4.591  20.146  0.00  0.00    +0.000 A 
BRANCH  16  17
ATOM     17  O   UNL     1       2.038   4.300  21.320  0.00  0.00    +0.000 OA
ATOM     18  C   UNL     1       1.779   2.923  21.586  0.00  0.00    +0.000 C 
ENDBRANCH  16  17
ENDBRANCH   8  10
ENDBRANCH   5   6
BRANCH   1  19
ATOM     19  S   UNL     1      -0.205  11.314  19.695  0.00  0.00    +0.000 S 
ATOM     20  O   UNL     1       0.765  11.629  18.663  0.00  0.00    +0.000 OA
ATOM     21  O   UNL     1      -0.297  12.125  20.888  0.00  0.00    +0.000 OA
BRANCH  19  25
ATOM     22  C   UNL     1      -4.253  11.458  17.543  0.00  0.00    +0.000 A 
ATOM     23  C   UNL     1      -4.102  12.058  18.797  0.00  0.00    +0.000 A 
ATOM     24  C   UNL     1      -2.884  12.000  19.482  0.00  0.00    +0.000 A 
ATOM     25  C   UNL     1      -1.811  11.294  18.915  0.00  0.00    +0.000 A 
ATOM     26  C   UNL     1      -1.956  10.694  17.661  0.00  0.00    +0.000 A 
ATOM     27  C   UNL     1      -3.179  10.768  16.980  0.00  0.00    +0.000 A 
BRANCH  22  29
ATOM     28  C   UNL     1      -6.189  12.798  17.233  0.00  0.00    +0.000 C 
ATOM     29  O   UNL     1      -5.496  11.580  16.981  0.00  0.00    +0.000 OA
ENDBRANCH  22  29
ENDBRANCH  19  25
ENDBRANCH   1  19
TORSDOF 6
ENDMDL
