MODEL 1
REMARK VINA RESULT:      -7.9      0.000      0.000
REMARK  Name = 
REMARK  9 active torsions:
REMARK  status: ('A' for Active; 'I' for Inactive)
REMARK    1  A    between atoms: C_1  and  C_2
REMARK    2  A    between atoms: C_2  and  C_3
REMARK    3  A    between atoms: C_6  and  C_7
REMARK    4  A    between atoms: C_6  and  C_8
REMARK    5  A    between atoms: C_11  and  S_12
REMARK    6  A    between atoms: S_12  and  C_14
REMARK    7  A    between atoms: C_15  and  C_16
REMARK    8  A    between atoms: C_19  and  C_20
REMARK    9  A    between atoms: C_20  and  O_22
REMARK                            x       y       z     vdW  Elec       q    Type
REMARK                         _______ _______ _______ _____ _____    ______ ____
ROOT
ATOM      1  C   UNL     1       1.308   2.306  19.626  0.00  0.00    +0.000 C 
ATOM      2  C   UNL     1       2.533   3.039  20.217  0.00  0.00    +0.000 C 
ATOM      3  C   UNL     1       2.522   2.847  21.754  0.00  0.00    +0.000 C 
ATOM      4  C   UNL     1       3.844   2.384  19.723  0.00  0.00    +0.000 C 
ATOM      5  C   UNL     1       4.226   2.790  18.312  0.00  0.00    +0.000 C 
ATOM      6  C   UNL     1       4.357   4.318  18.114  0.00  0.00    +0.000 C 
ATOM      7  C   UNL     1       5.762   4.787  18.557  0.00  0.00    +0.000 C 
ATOM      8  C   UNL     1       4.218   4.558  16.592  0.00  0.00    +0.000 C 
ATOM      9  C   UNL     1       3.304   5.119  18.892  0.00  0.00    +0.000 A 
ATOM     10  C   UNL     1       3.191   6.517  18.664  0.00  0.00    +0.000 A 
ATOM     11  C   UNL     1       2.234   7.306  19.312  0.00  0.00    +0.000 A 
ATOM     12  C   UNL     1       1.344   6.691  20.183  0.00  0.00    +0.000 A 
ATOM     13  C   UNL     1       1.452   5.324  20.444  0.00  0.00    +0.000 A 
ATOM     14  C   UNL     1       2.448   4.523  19.842  0.00  0.00    +0.000 A 
ENDROOT
BRANCH  11  15
ATOM     15  S   UNL     1       2.100   9.074  18.956  0.00  0.00    +0.000 S 
ATOM     16  O   UNL     1       1.512   9.229  17.507  0.00  0.00    +0.000 OA
BRANCH  15  17
ATOM     17  C   UNL     1       0.793   9.561  20.081  0.00  0.00    +0.000 C 
ATOM     18  C   UNL     1       0.280  10.800  19.977  0.00  0.00    +0.000 C 
BRANCH  18  19
ATOM     19  C   UNL     1      -0.711  11.307  20.927  0.00  0.00    +0.000 A 
ATOM     20  C   UNL     1      -0.604  10.964  22.279  0.00  0.00    +0.000 A 
ATOM     21  C   UNL     1      -1.537  11.441  23.206  0.00  0.00    +0.000 A 
ATOM     22  C   UNL     1      -2.588  12.268  22.791  0.00  0.00    +0.000 A 
ATOM     23  C   UNL     1      -2.687  12.627  21.440  0.00  0.00    +0.000 A 
ATOM     24  C   UNL     1      -1.755  12.140  20.512  0.00  0.00    +0.000 A 
BRANCH  22  25
ATOM     25  C   UNL     1      -3.521  12.769  23.836  0.00  0.00    +0.000 C 
ATOM     26  O   UNL     1      -3.459  13.896  24.288  0.00  0.00    +0.000 OA
BRANCH  25  27
ATOM     27  O   UNL     1      -4.418  11.858  24.269  0.00  0.00    +0.000 OA
ATOM     28  H   UNL     1      -4.044  11.063  24.688  0.00  0.00    +0.000 HD
ENDBRANCH  25  27
ENDBRANCH  22  25
ENDBRANCH  18  19
ENDBRANCH  15  17
ENDBRANCH  11  15
TORSDOF 5
ENDMDL
MODEL 2
REMARK VINA RESULT:      -7.7      2.484      2.971
REMARK  Name = 
REMARK  9 active torsions:
REMARK  status: ('A' for Active; 'I' for Inactive)
REMARK    1  A    between atoms: C_1  and  C_2
REMARK    2  A    between atoms: C_2  and  C_3
REMARK    3  A    between atoms: C_6  and  C_7
REMARK    4  A    between atoms: C_6  and  C_8
REMARK    5  A    between atoms: C_11  and  S_12
REMARK    6  A    between atoms: S_12  and  C_14
REMARK    7  A    between atoms: C_15  and  C_16
REMARK    8  A    between atoms: C_19  and  C_20
REMARK    9  A    between atoms: C_20  and  O_22
REMARK                            x       y       z     vdW  Elec       q    Type
REMARK                         _______ _______ _______ _____ _____    ______ ____
ROOT
ATOM      1  C   UNL     1       0.981   2.589  19.865  0.00  0.00    +0.000 C 
ATOM      2  C   UNL     1       2.256   3.264  20.417  0.00  0.00    +0.000 C 
ATOM      3  C   UNL     1       2.220   3.185  21.964  0.00  0.00    +0.000 C 
ATOM      4  C   UNL     1       3.514   2.475  19.986  0.00  0.00    +0.000 C 
ATOM      5  C   UNL     1       3.936   2.747  18.555  0.00  0.00    +0.000 C 
ATOM      6  C   UNL     1       4.189   4.243  18.251  0.00  0.00    +0.000 C 
ATOM      7  C   UNL     1       5.624   4.630  18.676  0.00  0.00    +0.000 C 
ATOM      8  C   UNL     1       4.079   4.383  16.714  0.00  0.00    +0.000 C 
ATOM      9  C   UNL     1       3.198   5.177  18.957  0.00  0.00    +0.000 A 
ATOM     10  C   UNL     1       3.197   6.560  18.630  0.00  0.00    +0.000 A 
ATOM     11  C   UNL     1       2.302   7.466  19.209  0.00  0.00    +0.000 A 
ATOM     12  C   UNL     1       1.360   6.986  20.111  0.00  0.00    +0.000 A 
ATOM     13  C   UNL     1       1.358   5.638  20.469  0.00  0.00    +0.000 A 
ATOM     14  C   UNL     1       2.291   4.719  19.937  0.00  0.00    +0.000 A 
ENDROOT
BRANCH  11  15
ATOM     15  S   UNL     1       2.311   9.209  18.727  0.00  0.00    +0.000 S 
ATOM     16  O   UNL     1       2.556   9.278  17.177  0.00  0.00    +0.000 OA
BRANCH  15  17
ATOM     17  C   UNL     1       0.594   9.653  18.983  0.00  0.00    +0.000 C 
ATOM     18  C   UNL     1      -0.159   9.966  17.913  0.00  0.00    +0.000 C 
BRANCH  18  19
ATOM     19  C   UNL     1      -1.536  10.442  18.050  0.00  0.00    +0.000 A 
ATOM     20  C   UNL     1      -2.547   9.847  17.288  0.00  0.00    +0.000 A 
ATOM     21  C   UNL     1      -3.871  10.281  17.406  0.00  0.00    +0.000 A 
ATOM     22  C   UNL     1      -4.200  11.317  18.289  0.00  0.00    +0.000 A 
ATOM     23  C   UNL     1      -3.192  11.902  19.067  0.00  0.00    +0.000 A 
ATOM     24  C   UNL     1      -1.863  11.470  18.940  0.00  0.00    +0.000 A 
BRANCH  22  25
ATOM     25  C   UNL     1      -5.633  11.702  18.392  0.00  0.00    +0.000 C 
ATOM     26  O   UNL     1      -6.079  12.720  17.899  0.00  0.00    +0.000 OA
BRANCH  25  27
ATOM     27  O   UNL     1      -6.392  10.847  19.111  0.00  0.00    +0.000 OA
ATOM     28  H   UNL     1      -6.529  11.086  20.045  0.00  0.00    +0.000 HD
ENDBRANCH  25  27
ENDBRANCH  22  25
ENDBRANCH  18  19
ENDBRANCH  15  17
ENDBRANCH  11  15
TORSDOF 5
ENDMDL
MODEL 3
REMARK VINA RESULT:      -7.5      3.037      9.899
REMARK  Name = 
REMARK  9 active torsions:
REMARK  status: ('A' for Active; 'I' for Inactive)
REMARK    1  A    between atoms: C_1  and  C_2
REMARK    2  A    between atoms: C_2  and  C_3
REMARK    3  A    between atoms: C_6  and  C_7
REMARK    4  A    between atoms: C_6  and  C_8
REMARK    5  A    between atoms: C_11  and  S_12
REMARK    6  A    between atoms: S_12  and  C_14
REMARK    7  A    between atoms: C_15  and  C_16
REMARK    8  A    between atoms: C_19  and  C_20
REMARK    9  A    between atoms: C_20  and  O_22
REMARK                            x       y       z     vdW  Elec       q    Type
REMARK                         _______ _______ _______ _____ _____    ______ ____
ROOT
ATOM      1  C   UNL     1      -5.822  10.498  18.687  0.00  0.00    +0.000 C 
ATOM      2  C   UNL     1      -5.061  11.816  18.421  0.00  0.00    +0.000 C 
ATOM      3  C   UNL     1      -5.152  12.136  16.908  0.00  0.00    +0.000 C 
ATOM      4  C   UNL     1      -5.756  12.995  19.141  0.00  0.00    +0.000 C 
ATOM      5  C   UNL     1      -5.446  13.064  20.624  0.00  0.00    +0.000 C 
ATOM      6  C   UNL     1      -3.934  13.139  20.944  0.00  0.00    +0.000 C 
ATOM      7  C   UNL     1      -3.448  14.603  20.845  0.00  0.00    +0.000 C 
ATOM      8  C   UNL     1      -3.793  12.675  22.414  0.00  0.00    +0.000 C 
ATOM      9  C   UNL     1      -3.077  12.271  20.013  0.00  0.00    +0.000 A 
ATOM     10  C   UNL     1      -1.696  12.103  20.302  0.00  0.00    +0.000 A 
ATOM     11  C   UNL     1      -0.859  11.302  19.517  0.00  0.00    +0.000 A 
ATOM     12  C   UNL     1      -1.410  10.623  18.438  0.00  0.00    +0.000 A 
ATOM     13  C   UNL     1      -2.757  10.794  18.118  0.00  0.00    +0.000 A 
ATOM     14  C   UNL     1      -3.604  11.643  18.865  0.00  0.00    +0.000 A 
ENDROOT
BRANCH  11  15
ATOM     15  S   UNL     1       0.883  11.082  19.951  0.00  0.00    +0.000 S 
ATOM     16  O   UNL     1       0.979  10.979  21.515  0.00  0.00    +0.000 OA
BRANCH  15  17
ATOM     17  C   UNL     1       1.197   9.435  19.320  0.00  0.00    +0.000 C 
ATOM     18  C   UNL     1       1.616   8.485  20.174  0.00  0.00    +0.000 C 
BRANCH  18  19
ATOM     19  C   UNL     1       1.997   7.148  19.716  0.00  0.00    +0.000 A 
ATOM     20  C   UNL     1       1.759   6.046  20.544  0.00  0.00    +0.000 A 
ATOM     21  C   UNL     1       2.109   4.758  20.125  0.00  0.00    +0.000 A 
ATOM     22  C   UNL     1       2.702   4.558  18.873  0.00  0.00    +0.000 A 
ATOM     23  C   UNL     1       2.924   5.658  18.034  0.00  0.00    +0.000 A 
ATOM     24  C   UNL     1       2.580   6.950  18.461  0.00  0.00    +0.000 A 
BRANCH  22  25
ATOM     25  C   UNL     1       3.013   3.158  18.476  0.00  0.00    +0.000 C 
ATOM     26  O   UNL     1       2.188   2.265  18.507  0.00  0.00    +0.000 OA
BRANCH  25  27
ATOM     27  O   UNL     1       4.298   2.951  18.115  0.00  0.00    +0.000 OA
ATOM     28  H   UNL     1       4.965   3.433  18.634  0.00  0.00    +0.000 HD
ENDBRANCH  25  27
ENDBRANCH  22  25
ENDBRANCH  18  19
ENDBRANCH  15  17
ENDBRANCH  11  15
TORSDOF 5
ENDMDL
MODEL 4
REMARK VINA RESULT:      -7.5      2.685      3.171
REMARK  Name = 
REMARK  9 active torsions:
REMARK  status: ('A' for Active; 'I' for Inactive)
REMARK    1  A    between atoms: C_1  and  C_2
REMARK    2  A    between atoms: C_2  and  C_3
REMARK    3  A    between atoms: C_6  and  C_7
REMARK    4  A    between atoms: C_6  and  C_8
REMARK    5  A    between atoms: C_11  and  S_12
REMARK    6  A    between atoms: S_12  and  C_14
REMARK    7  A    between atoms: C_15  and  C_16
REMARK    8  A    between atoms: C_19  and  C_20
REMARK    9  A    between atoms: C_20  and  O_22
REMARK                            x       y       z     vdW  Elec       q    Type
REMARK                         _______ _______ _______ _____ _____    ______ ____
ROOT
ATOM      1  C   UNL     1       1.185   2.340  19.643  0.00  0.00    +0.000 C 
ATOM      2  C   UNL     1       2.404   3.061  20.261  0.00  0.00    +0.000 C 
ATOM      3  C   UNL     1       2.360   2.865  21.797  0.00  0.00    +0.000 C 
ATOM      4  C   UNL     1       3.719   2.397  19.791  0.00  0.00    +0.000 C 
ATOM      5  C   UNL     1       4.133   2.804  18.390  0.00  0.00    +0.000 C 
ATOM      6  C   UNL     1       4.280   4.332  18.200  0.00  0.00    +0.000 C 
ATOM      7  C   UNL     1       5.680   4.787  18.672  0.00  0.00    +0.000 C 
ATOM      8  C   UNL     1       4.174   4.577  16.676  0.00  0.00    +0.000 C 
ATOM      9  C   UNL     1       3.218   5.138  18.959  0.00  0.00    +0.000 A 
ATOM     10  C   UNL     1       3.121   6.538  18.733  0.00  0.00    +0.000 A 
ATOM     11  C   UNL     1       2.158   7.333  19.364  0.00  0.00    +0.000 A 
ATOM     12  C   UNL     1       1.246   6.723  20.215  0.00  0.00    +0.000 A 
ATOM     13  C   UNL     1       1.337   5.355  20.473  0.00  0.00    +0.000 A 
ATOM     14  C   UNL     1       2.338   4.547  19.889  0.00  0.00    +0.000 A 
ENDROOT
BRANCH  11  15
ATOM     15  S   UNL     1       2.046   9.104  19.011  0.00  0.00    +0.000 S 
ATOM     16  O   UNL     1       2.785   9.370  17.651  0.00  0.00    +0.000 OA
BRANCH  15  17
ATOM     17  C   UNL     1       0.295   9.284  18.673  0.00  0.00    +0.000 C 
ATOM     18  C   UNL     1      -0.175  10.497  18.332  0.00  0.00    +0.000 C 
BRANCH  18  19
ATOM     19  C   UNL     1      -1.605  10.746  18.147  0.00  0.00    +0.000 A 
ATOM     20  C   UNL     1      -2.260  11.645  18.995  0.00  0.00    +0.000 A 
ATOM     21  C   UNL     1      -3.625  11.903  18.834  0.00  0.00    +0.000 A 
ATOM     22  C   UNL     1      -4.352  11.265  17.822  0.00  0.00    +0.000 A 
ATOM     23  C   UNL     1      -3.694  10.377  16.960  0.00  0.00    +0.000 A 
ATOM     24  C   UNL     1      -2.327  10.114  17.129  0.00  0.00    +0.000 A 
BRANCH  22  25
ATOM     25  C   UNL     1      -5.792  11.615  17.684  0.00  0.00    +0.000 C 
ATOM     26  O   UNL     1      -6.173  12.620  17.115  0.00  0.00    +0.000 OA
BRANCH  25  27
ATOM     27  O   UNL     1      -6.638  10.745  18.275  0.00  0.00    +0.000 OA
ATOM     28  H   UNL     1      -7.016  10.062  17.693  0.00  0.00    +0.000 HD
ENDBRANCH  25  27
ENDBRANCH  22  25
ENDBRANCH  18  19
ENDBRANCH  15  17
ENDBRANCH  11  15
TORSDOF 5
ENDMDL
MODEL 5
REMARK VINA RESULT:      -7.5      2.933      3.642
REMARK  Name = 
REMARK  9 active torsions:
REMARK  status: ('A' for Active; 'I' for Inactive)
REMARK    1  A    between atoms: C_1  and  C_2
REMARK    2  A    between atoms: C_2  and  C_3
REMARK    3  A    between atoms: C_6  and  C_7
REMARK    4  A    between atoms: C_6  and  C_8
REMARK    5  A    between atoms: C_11  and  S_12
REMARK    6  A    between atoms: S_12  and  C_14
REMARK    7  A    between atoms: C_15  and  C_16
REMARK    8  A    between atoms: C_19  and  C_20
REMARK    9  A    between atoms: C_20  and  O_22
REMARK                            x       y       z     vdW  Elec       q    Type
REMARK                         _______ _______ _______ _____ _____    ______ ____
ROOT
ATOM      1  C   UNL     1       2.590   3.198  17.224  0.00  0.00    +0.000 C 
ATOM      2  C   UNL     1       3.658   3.938  18.060  0.00  0.00    +0.000 C 
ATOM      3  C   UNL     1       3.725   3.278  19.460  0.00  0.00    +0.000 C 
ATOM      4  C   UNL     1       5.060   3.744  17.438  0.00  0.00    +0.000 C 
ATOM      5  C   UNL     1       5.317   4.637  16.239  0.00  0.00    +0.000 C 
ATOM      6  C   UNL     1       5.134   6.145  16.532  0.00  0.00    +0.000 C 
ATOM      7  C   UNL     1       6.427   6.721  17.152  0.00  0.00    +0.000 C 
ATOM      8  C   UNL     1       4.911   6.815  15.155  0.00  0.00    +0.000 C 
ATOM      9  C   UNL     1       3.962   6.437  17.478  0.00  0.00    +0.000 A 
ATOM     10  C   UNL     1       3.565   7.785  17.691  0.00  0.00    +0.000 A 
ATOM     11  C   UNL     1       2.487   8.126  18.515  0.00  0.00    +0.000 A 
ATOM     12  C   UNL     1       1.761   7.106  19.117  0.00  0.00    +0.000 A 
ATOM     13  C   UNL     1       2.147   5.776  18.944  0.00  0.00    +0.000 A 
ATOM     14  C   UNL     1       3.267   5.417  18.162  0.00  0.00    +0.000 A 
ENDROOT
BRANCH  11  15
ATOM     15  S   UNL     1       1.992   9.853  18.721  0.00  0.00    +0.000 S 
ATOM     16  O   UNL     1       2.509  10.653  17.472  0.00  0.00    +0.000 OA
BRANCH  15  17
ATOM     17  C   UNL     1       0.213   9.733  18.538  0.00  0.00    +0.000 C 
ATOM     18  C   UNL     1      -0.489  10.856  18.301  0.00  0.00    +0.000 C 
BRANCH  18  19
ATOM     19  C   UNL     1      -1.951  10.855  18.248  0.00  0.00    +0.000 A 
ATOM     20  C   UNL     1      -2.662  11.874  18.889  0.00  0.00    +0.000 A 
ATOM     21  C   UNL     1      -4.059  11.897  18.847  0.00  0.00    +0.000 A 
ATOM     22  C   UNL     1      -4.764  10.899  18.162  0.00  0.00    +0.000 A 
ATOM     23  C   UNL     1      -4.053   9.886  17.503  0.00  0.00    +0.000 A 
ATOM     24  C   UNL     1      -2.651   9.861  17.555  0.00  0.00    +0.000 A 
BRANCH  22  25
ATOM     25  C   UNL     1      -6.247  11.007  18.126  0.00  0.00    +0.000 C 
ATOM     26  O   UNL     1      -6.976  10.289  18.783  0.00  0.00    +0.000 OA
BRANCH  25  27
ATOM     27  O   UNL     1      -6.719  11.943  17.274  0.00  0.00    +0.000 OA
ATOM     28  H   UNL     1      -7.685  12.065  17.274  0.00  0.00    +0.000 HD
ENDBRANCH  25  27
ENDBRANCH  22  25
ENDBRANCH  18  19
ENDBRANCH  15  17
ENDBRANCH  11  15
TORSDOF 5
ENDMDL
MODEL 6
REMARK VINA RESULT:      -7.5      3.075     10.239
REMARK  Name = 
REMARK  9 active torsions:
REMARK  status: ('A' for Active; 'I' for Inactive)
REMARK    1  A    between atoms: C_1  and  C_2
REMARK    2  A    between atoms: C_2  and  C_3
REMARK    3  A    between atoms: C_6  and  C_7
REMARK    4  A    between atoms: C_6  and  C_8
REMARK    5  A    between atoms: C_11  and  S_12
REMARK    6  A    between atoms: S_12  and  C_14
REMARK    7  A    between atoms: C_15  and  C_16
REMARK    8  A    between atoms: C_19  and  C_20
REMARK    9  A    between atoms: C_20  and  O_22
REMARK                            x       y       z     vdW  Elec       q    Type
REMARK                         _______ _______ _______ _____ _____    ______ ____
ROOT
ATOM      1  C   UNL     1      -5.332  14.620  23.780  0.00  0.00    +0.000 C 
ATOM      2  C   UNL     1      -5.348  13.122  23.404  0.00  0.00    +0.000 C 
ATOM      3  C   UNL     1      -4.809  12.310  24.608  0.00  0.00    +0.000 C 
ATOM      4  C   UNL     1      -6.799  12.636  23.186  0.00  0.00    +0.000 C 
ATOM      5  C   UNL     1      -7.371  13.027  21.837  0.00  0.00    +0.000 C 
ATOM      6  C   UNL     1      -6.525  12.543  20.635  0.00  0.00    +0.000 C 
ATOM      7  C   UNL     1      -6.890  11.081  20.290  0.00  0.00    +0.000 C 
ATOM      8  C   UNL     1      -6.933  13.443  19.445  0.00  0.00    +0.000 C 
ATOM      9  C   UNL     1      -5.014  12.625  20.890  0.00  0.00    +0.000 A 
ATOM     10  C   UNL     1      -4.118  12.385  19.814  0.00  0.00    +0.000 A 
ATOM     11  C   UNL     1      -2.729  12.473  19.963  0.00  0.00    +0.000 A 
ATOM     12  C   UNL     1      -2.215  12.842  21.200  0.00  0.00    +0.000 A 
ATOM     13  C   UNL     1      -3.073  13.057  22.278  0.00  0.00    +0.000 A 
ATOM     14  C   UNL     1      -4.474  12.917  22.161  0.00  0.00    +0.000 A 
ENDROOT
BRANCH  11  15
ATOM     15  S   UNL     1      -1.629  12.201  18.553  0.00  0.00    +0.000 S 
ATOM     16  O   UNL     1      -0.591  13.379  18.519  0.00  0.00    +0.000 OA
BRANCH  15  17
ATOM     17  C   UNL     1      -0.724  10.750  19.087  0.00  0.00    +0.000 C 
ATOM     18  C   UNL     1       0.447  10.463  18.492  0.00  0.00    +0.000 C 
BRANCH  18  19
ATOM     19  C   UNL     1       1.190   9.240  18.797  0.00  0.00    +0.000 A 
ATOM     20  C   UNL     1       1.153   8.721  20.095  0.00  0.00    +0.000 A 
ATOM     21  C   UNL     1       1.851   7.551  20.410  0.00  0.00    +0.000 A 
ATOM     22  C   UNL     1       2.594   6.884  19.428  0.00  0.00    +0.000 A 
ATOM     23  C   UNL     1       2.618   7.392  18.122  0.00  0.00    +0.000 A 
ATOM     24  C   UNL     1       1.924   8.571  17.812  0.00  0.00    +0.000 A 
BRANCH  22  25
ATOM     25  C   UNL     1       3.280   5.624  19.823  0.00  0.00    +0.000 C 
ATOM     26  O   UNL     1       2.746   4.769  20.503  0.00  0.00    +0.000 OA
BRANCH  25  27
ATOM     27  O   UNL     1       4.557   5.524  19.395  0.00  0.00    +0.000 OA
ATOM     28  H   UNL     1       5.044   6.363  19.323  0.00  0.00    +0.000 HD
ENDBRANCH  25  27
ENDBRANCH  22  25
ENDBRANCH  18  19
ENDBRANCH  15  17
ENDBRANCH  11  15
TORSDOF 5
ENDMDL
MODEL 7
REMARK VINA RESULT:      -7.4      3.030      9.980
REMARK  Name = 
REMARK  9 active torsions:
REMARK  status: ('A' for Active; 'I' for Inactive)
REMARK    1  A    between atoms: C_1  and  C_2
REMARK    2  A    between atoms: C_2  and  C_3
REMARK    3  A    between atoms: C_6  and  C_7
REMARK    4  A    between atoms: C_6  and  C_8
REMARK    5  A    between atoms: C_11  and  S_12
REMARK    6  A    between atoms: S_12  and  C_14
REMARK    7  A    between atoms: C_15  and  C_16
REMARK    8  A    between atoms: C_19  and  C_20
REMARK    9  A    between atoms: C_20  and  O_22
REMARK                            x       y       z     vdW  Elec       q    Type
REMARK                         _______ _______ _______ _____ _____    ______ ____
ROOT
ATOM      1  C   UNL     1      -5.990  10.557  18.691  0.00  0.00    +0.000 C 
ATOM      2  C   UNL     1      -5.292  11.913  18.447  0.00  0.00    +0.000 C 
ATOM      3  C   UNL     1      -5.393  12.251  16.938  0.00  0.00    +0.000 C 
ATOM      4  C   UNL     1      -6.043  13.047  19.181  0.00  0.00    +0.000 C 
ATOM      5  C   UNL     1      -5.741  13.109  20.666  0.00  0.00    +0.000 C 
ATOM      6  C   UNL     1      -4.235  13.250  20.993  0.00  0.00    +0.000 C 
ATOM      7  C   UNL     1      -3.818  14.737  20.916  0.00  0.00    +0.000 C 
ATOM      8  C   UNL     1      -4.076  12.772  22.456  0.00  0.00    +0.000 C 
ATOM      9  C   UNL     1      -3.336  12.438  20.052  0.00  0.00    +0.000 A 
ATOM     10  C   UNL     1      -1.949  12.330  20.343  0.00  0.00    +0.000 A 
ATOM     11  C   UNL     1      -1.073  11.581  19.549  0.00  0.00    +0.000 A 
ATOM     12  C   UNL     1      -1.589  10.893  18.458  0.00  0.00    +0.000 A 
ATOM     13  C   UNL     1      -2.941  11.005  18.136  0.00  0.00    +0.000 A 
ATOM     14  C   UNL     1      -3.829  11.802  18.893  0.00  0.00    +0.000 A 
ENDROOT
BRANCH  11  15
ATOM     15  S   UNL     1       0.676  11.438  19.985  0.00  0.00    +0.000 S 
ATOM     16  O   UNL     1       0.775  11.344  21.550  0.00  0.00    +0.000 OA
BRANCH  15  17
ATOM     17  C   UNL     1       1.061   9.803  19.360  0.00  0.00    +0.000 C 
ATOM     18  C   UNL     1       1.432   8.849  20.232  0.00  0.00    +0.000 C 
BRANCH  18  19
ATOM     19  C   UNL     1       1.865   7.524  19.788  0.00  0.00    +0.000 A 
ATOM     20  C   UNL     1       2.446   7.379  18.524  0.00  0.00    +0.000 A 
ATOM     21  C   UNL     1       2.873   6.124  18.080  0.00  0.00    +0.000 A 
ATOM     22  C   UNL     1       2.723   4.996  18.897  0.00  0.00    +0.000 A 
ATOM     23  C   UNL     1       2.158   5.141  20.171  0.00  0.00    +0.000 A 
ATOM     24  C   UNL     1       1.723   6.401  20.609  0.00  0.00    +0.000 A 
BRANCH  22  25
ATOM     25  C   UNL     1       3.234   3.699  18.376  0.00  0.00    +0.000 C 
ATOM     26  O   UNL     1       3.859   2.914  19.063  0.00  0.00    +0.000 OA
BRANCH  25  27
ATOM     27  O   UNL     1       2.979   3.482  17.068  0.00  0.00    +0.000 OA
ATOM     28  H   UNL     1       3.760   3.402  16.493  0.00  0.00    +0.000 HD
ENDBRANCH  25  27
ENDBRANCH  22  25
ENDBRANCH  18  19
ENDBRANCH  15  17
ENDBRANCH  11  15
TORSDOF 5
ENDMDL
MODEL 8
REMARK VINA RESULT:      -7.4      3.099      9.724
REMARK  Name = 
REMARK  9 active torsions:
REMARK  status: ('A' for Active; 'I' for Inactive)
REMARK    1  A    between atoms: C_1  and  C_2
REMARK    2  A    between atoms: C_2  and  C_3
REMARK    3  A    between atoms: C_6  and  C_7
REMARK    4  A    between atoms: C_6  and  C_8
REMARK    5  A    between atoms: C_11  and  S_12
REMARK    6  A    between atoms: S_12  and  C_14
REMARK    7  A    between atoms: C_15  and  C_16
REMARK    8  A    between atoms: C_19  and  C_20
REMARK    9  A    between atoms: C_20  and  O_22
REMARK                            x       y       z     vdW  Elec       q    Type
REMARK                         _______ _______ _______ _____ _____    ______ ____
ROOT
ATOM      1  C   UNL     1      -5.976  10.609  18.815  0.00  0.00    +0.000 C 
ATOM      2  C   UNL     1      -5.272  11.953  18.525  0.00  0.00    +0.000 C 
ATOM      3  C   UNL     1      -5.626  12.389  17.081  0.00  0.00    +0.000 C 
ATOM      4  C   UNL     1      -5.830  13.063  19.446  0.00  0.00    +0.000 C 
ATOM      5  C   UNL     1      -5.266  13.020  20.853  0.00  0.00    +0.000 C 
ATOM      6  C   UNL     1      -3.721  13.090  20.910  0.00  0.00    +0.000 C 
ATOM      7  C   UNL     1      -3.259  14.564  20.843  0.00  0.00    +0.000 C 
ATOM      8  C   UNL     1      -3.326  12.516  22.292  0.00  0.00    +0.000 C 
ATOM      9  C   UNL     1      -3.041  12.309  19.778  0.00  0.00    +0.000 A 
ATOM     10  C   UNL     1      -1.630  12.137  19.808  0.00  0.00    +0.000 A 
ATOM     11  C   UNL     1      -0.944  11.411  18.828  0.00  0.00    +0.000 A 
ATOM     12  C   UNL     1      -1.675  10.811  17.811  0.00  0.00    +0.000 A 
ATOM     13  C   UNL     1      -3.058  10.988  17.745  0.00  0.00    +0.000 A 
ATOM     14  C   UNL     1      -3.760  11.765  18.693  0.00  0.00    +0.000 A 
ENDROOT
BRANCH  11  15
ATOM     15  S   UNL     1       0.847  11.181  18.933  0.00  0.00    +0.000 S 
ATOM     16  O   UNL     1       1.363  11.992  20.176  0.00  0.00    +0.000 OA
BRANCH  15  17
ATOM     17  C   UNL     1       0.954   9.451  19.385  0.00  0.00    +0.000 C 
ATOM     18  C   UNL     1       1.990   8.726  18.928  0.00  0.00    +0.000 C 
BRANCH  18  19
ATOM     19  C   UNL     1       2.089   7.285  19.164  0.00  0.00    +0.000 A 
ATOM     20  C   UNL     1       1.763   6.772  20.423  0.00  0.00    +0.000 A 
ATOM     21  C   UNL     1       1.845   5.398  20.671  0.00  0.00    +0.000 A 
ATOM     22  C   UNL     1       2.254   4.520  19.660  0.00  0.00    +0.000 A 
ATOM     23  C   UNL     1       2.565   5.030  18.392  0.00  0.00    +0.000 A 
ATOM     24  C   UNL     1       2.490   6.410  18.150  0.00  0.00    +0.000 A 
BRANCH  22  25
ATOM     25  C   UNL     1       2.281   3.068  19.981  0.00  0.00    +0.000 C 
ATOM     26  O   UNL     1       3.145   2.318  19.570  0.00  0.00    +0.000 OA
BRANCH  25  27
ATOM     27  O   UNL     1       1.246   2.643  20.738  0.00  0.00    +0.000 OA
ATOM     28  H   UNL     1       0.368   2.701  20.322  0.00  0.00    +0.000 HD
ENDBRANCH  25  27
ENDBRANCH  22  25
ENDBRANCH  18  19
ENDBRANCH  15  17
ENDBRANCH  11  15
TORSDOF 5
ENDMDL
MODEL 9
REMARK VINA RESULT:      -7.3      3.606      5.328
REMARK  Name = 
REMARK  9 active torsions:
REMARK  status: ('A' for Active; 'I' for Inactive)
REMARK    1  A    between atoms: C_1  and  C_2
REMARK    2  A    between atoms: C_2  and  C_3
REMARK    3  A    between atoms: C_6  and  C_7
REMARK    4  A    between atoms: C_6  and  C_8
REMARK    5  A    between atoms: C_11  and  S_12
REMARK    6  A    between atoms: S_12  and  C_14
REMARK    7  A    between atoms: C_15  and  C_16
REMARK    8  A    between atoms: C_19  and  C_20
REMARK    9  A    between atoms: C_20  and  O_22
REMARK                            x       y       z     vdW  Elec       q    Type
REMARK                         _______ _______ _______ _____ _____    ______ ____
ROOT
ATOM      1  C   UNL     1       6.418   5.335  17.629  0.00  0.00    +0.000 C 
ATOM      2  C   UNL     1       5.093   5.118  16.865  0.00  0.00    +0.000 C 
ATOM      3  C   UNL     1       5.333   5.439  15.369  0.00  0.00    +0.000 C 
ATOM      4  C   UNL     1       4.681   3.628  16.912  0.00  0.00    +0.000 C 
ATOM      5  C   UNL     1       4.041   3.220  18.226  0.00  0.00    +0.000 C 
ATOM      6  C   UNL     1       2.804   4.066  18.608  0.00  0.00    +0.000 C 
ATOM      7  C   UNL     1       1.547   3.507  17.902  0.00  0.00    +0.000 C 
ATOM      8  C   UNL     1       2.628   3.885  20.135  0.00  0.00    +0.000 C 
ATOM      9  C   UNL     1       2.953   5.549  18.247  0.00  0.00    +0.000 A 
ATOM     10  C   UNL     1       1.973   6.473  18.701  0.00  0.00    +0.000 A 
ATOM     11  C   UNL     1       2.059   7.845  18.437  0.00  0.00    +0.000 A 
ATOM     12  C   UNL     1       3.160   8.320  17.736  0.00  0.00    +0.000 A 
ATOM     13  C   UNL     1       4.121   7.430  17.258  0.00  0.00    +0.000 A 
ATOM     14  C   UNL     1       4.022   6.036  17.465  0.00  0.00    +0.000 A 
ENDROOT
BRANCH  11  15
ATOM     15  S   UNL     1       0.809   8.988  19.074  0.00  0.00    +0.000 S 
ATOM     16  O   UNL     1       0.787   8.853  20.638  0.00  0.00    +0.000 OA
BRANCH  15  17
ATOM     17  C   UNL     1       1.568  10.572  18.718  0.00  0.00    +0.000 C 
ATOM     18  C   UNL     1       1.080  11.671  19.320  0.00  0.00    +0.000 C 
BRANCH  18  19
ATOM     19  C   UNL     1       1.575  13.011  18.999  0.00  0.00    +0.000 A 
ATOM     20  C   UNL     1       2.767  13.148  18.280  0.00  0.00    +0.000 A 
ATOM     21  C   UNL     1       3.257  14.417  17.958  0.00  0.00    +0.000 A 
ATOM     22  C   UNL     1       2.559  15.566  18.351  0.00  0.00    +0.000 A 
ATOM     23  C   UNL     1       1.355  15.431  19.055  0.00  0.00    +0.000 A 
ATOM     24  C   UNL     1       0.871  14.156  19.385  0.00  0.00    +0.000 A 
BRANCH  22  25
ATOM     25  C   UNL     1       3.118  16.883  17.940  0.00  0.00    +0.000 C 
ATOM     26  O   UNL     1       2.854  17.407  16.876  0.00  0.00    +0.000 OA
BRANCH  25  27
ATOM     27  O   UNL     1       3.971  17.431  18.832  0.00  0.00    +0.000 OA
ATOM     28  H   UNL     1       4.861  17.037  18.862  0.00  0.00    +0.000 HD
ENDBRANCH  25  27
ENDBRANCH  22  25
ENDBRANCH  18  19
ENDBRANCH  15  17
ENDBRANCH  11  15
TORSDOF 5
ENDMDL
