MODEL 1
REMARK VINA RESULT:      -7.8      0.000      0.000
REMARK  Name = 
REMARK  1 active torsions:
REMARK  status: ('A' for Active; 'I' for Inactive)
REMARK    1  A    between atoms: C_5  and  C_6
REMARK                            x       y       z     vdW  Elec       q    Type
REMARK                         _______ _______ _______ _____ _____    ______ ____
ROOT
ATOM      1  C   UNL     1       4.576   4.453  17.100  0.00  0.00    +0.000 A 
ATOM      2  N   UNL     1       5.221   5.328  17.967  0.00  0.00    +0.000 NA
ATOM      3  N   UNL     1       6.268   5.924  17.595  0.00  0.00    +0.000 NA
ATOM      4  C   UNL     1       6.759   5.705  16.351  0.00  0.00    +0.000 A 
ATOM      5  N   UNL     1       7.837   6.129  15.729  0.00  0.00    +0.000 NA
ATOM      6  N   UNL     1       7.865   5.538  14.478  0.00  0.00    +0.000 NA
ATOM      7  C   UNL     1       6.781   4.795  14.344  0.00  0.00    +0.000 A 
ATOM      8  N   UNL     1       6.430   3.989  13.306  0.00  0.00    +0.000 N 
ATOM      9  C   UNL     1       5.063   3.710  12.910  0.00  0.00    +0.000 C 
ATOM     10  C   UNL     1       5.250   2.532  11.969  0.00  0.00    +0.000 C 
ATOM     11  C   UNL     1       6.535   2.879  11.226  0.00  0.00    +0.000 C 
ATOM     12  C   UNL     1       7.346   3.743  12.203  0.00  0.00    +0.000 C 
ATOM     13  N   UNL     1       6.062   4.868  15.524  0.00  0.00    +0.000 N 
ATOM     14  N   UNL     1       4.935   4.201  15.880  0.00  0.00    +0.000 NA
ENDROOT
BRANCH   1  19
ATOM     15  F   UNL     1      -0.007   1.867  19.096  0.00  0.00    +0.000 F 
ATOM     16  C   UNL     1       1.087   2.482  18.626  0.00  0.00    +0.000 A 
ATOM     17  C   UNL     1       2.263   1.756  18.467  0.00  0.00    +0.000 A 
ATOM     18  C   UNL     1       3.408   2.388  17.974  0.00  0.00    +0.000 A 
ATOM     19  C   UNL     1       3.369   3.750  17.644  0.00  0.00    +0.000 A 
ATOM     20  C   UNL     1       2.168   4.468  17.812  0.00  0.00    +0.000 A 
ATOM     21  C   UNL     1       1.030   3.830  18.304  0.00  0.00    +0.000 A 
ENDBRANCH   1  19
TORSDOF 1
ENDMDL
MODEL 2
REMARK VINA RESULT:      -7.8      0.045      1.058
REMARK  Name = 
REMARK  1 active torsions:
REMARK  status: ('A' for Active; 'I' for Inactive)
REMARK    1  A    between atoms: C_5  and  C_6
REMARK                            x       y       z     vdW  Elec       q    Type
REMARK                         _______ _______ _______ _____ _____    ______ ____
ROOT
ATOM      1  C   UNL     1       4.547   4.477  17.102  0.00  0.00    +0.000 A 
ATOM      2  N   UNL     1       5.193   5.351  17.969  0.00  0.00    +0.000 NA
ATOM      3  N   UNL     1       6.245   5.939  17.601  0.00  0.00    +0.000 NA
ATOM      4  C   UNL     1       6.741   5.714  16.360  0.00  0.00    +0.000 A 
ATOM      5  N   UNL     1       7.826   6.128  15.742  0.00  0.00    +0.000 NA
ATOM      6  N   UNL     1       7.857   5.533  14.494  0.00  0.00    +0.000 NA
ATOM      7  C   UNL     1       6.768   4.796  14.356  0.00  0.00    +0.000 A 
ATOM      8  N   UNL     1       6.418   3.989  13.319  0.00  0.00    +0.000 N 
ATOM      9  C   UNL     1       5.051   3.718  12.917  0.00  0.00    +0.000 C 
ATOM     10  C   UNL     1       5.237   2.535  11.980  0.00  0.00    +0.000 C 
ATOM     11  C   UNL     1       6.527   2.872  11.244  0.00  0.00    +0.000 C 
ATOM     12  C   UNL     1       7.338   3.734  12.222  0.00  0.00    +0.000 C 
ATOM     13  N   UNL     1       6.044   4.877  15.532  0.00  0.00    +0.000 N 
ATOM     14  N   UNL     1       4.911   4.218  15.884  0.00  0.00    +0.000 NA
ENDROOT
BRANCH   1  19
ATOM     15  F   UNL     1       0.038   1.821  19.174  0.00  0.00    +0.000 F 
ATOM     16  C   UNL     1       1.109   2.454  18.675  0.00  0.00    +0.000 A 
ATOM     17  C   UNL     1       1.001   3.791  18.307  0.00  0.00    +0.000 A 
ATOM     18  C   UNL     1       2.114   4.461  17.789  0.00  0.00    +0.000 A 
ATOM     19  C   UNL     1       3.333   3.784  17.641  0.00  0.00    +0.000 A 
ATOM     20  C   UNL     1       3.421   2.429  18.021  0.00  0.00    +0.000 A 
ATOM     21  C   UNL     1       2.307   1.769  18.537  0.00  0.00    +0.000 A 
ENDBRANCH   1  19
TORSDOF 1
ENDMDL
MODEL 3
REMARK VINA RESULT:      -7.8      4.174      5.773
REMARK  Name = 
REMARK  1 active torsions:
REMARK  status: ('A' for Active; 'I' for Inactive)
REMARK    1  A    between atoms: C_5  and  C_6
REMARK                            x       y       z     vdW  Elec       q    Type
REMARK                         _______ _______ _______ _____ _____    ______ ____
ROOT
ATOM      1  C   UNL     1       2.315   6.597  19.713  0.00  0.00    +0.000 A 
ATOM      2  N   UNL     1       1.867   5.845  20.794  0.00  0.00    +0.000 NA
ATOM      3  N   UNL     1       2.229   4.645  20.918  0.00  0.00    +0.000 NA
ATOM      4  C   UNL     1       3.053   4.092  19.995  0.00  0.00    +0.000 A 
ATOM      5  N   UNL     1       3.533   2.878  19.838  0.00  0.00    +0.000 NA
ATOM      6  N   UNL     1       4.287   2.867  18.678  0.00  0.00    +0.000 NA
ATOM      7  C   UNL     1       4.287   4.086  18.168  0.00  0.00    +0.000 A 
ATOM      8  N   UNL     1       4.843   4.518  17.005  0.00  0.00    +0.000 N 
ATOM      9  C   UNL     1       5.356   5.857  16.789  0.00  0.00    +0.000 C 
ATOM     10  C   UNL     1       5.525   5.881  15.279  0.00  0.00    +0.000 C 
ATOM     11  C   UNL     1       6.021   4.476  14.961  0.00  0.00    +0.000 C 
ATOM     12  C   UNL     1       5.436   3.581  16.063  0.00  0.00    +0.000 C 
ATOM     13  N   UNL     1       3.498   4.888  18.975  0.00  0.00    +0.000 N 
ATOM     14  N   UNL     1       3.133   6.183  18.796  0.00  0.00    +0.000 NA
ENDROOT
BRANCH   1  19
ATOM     15  F   UNL     1       0.341  11.849  19.269  0.00  0.00    +0.000 F 
ATOM     16  C   UNL     1       0.816  10.600  19.379  0.00  0.00    +0.000 A 
ATOM     17  C   UNL     1       0.690   9.926  20.590  0.00  0.00    +0.000 A 
ATOM     18  C   UNL     1       1.179   8.622  20.713  0.00  0.00    +0.000 A 
ATOM     19  C   UNL     1       1.794   7.998  19.618  0.00  0.00    +0.000 A 
ATOM     20  C   UNL     1       1.911   8.698  18.400  0.00  0.00    +0.000 A 
ATOM     21  C   UNL     1       1.420   9.999  18.285  0.00  0.00    +0.000 A 
ENDBRANCH   1  19
TORSDOF 1
ENDMDL
MODEL 4
REMARK VINA RESULT:      -7.8      4.181      5.772
REMARK  Name = 
REMARK  1 active torsions:
REMARK  status: ('A' for Active; 'I' for Inactive)
REMARK    1  A    between atoms: C_5  and  C_6
REMARK                            x       y       z     vdW  Elec       q    Type
REMARK                         _______ _______ _______ _____ _____    ______ ____
ROOT
ATOM      1  C   UNL     1       2.311   6.570  19.726  0.00  0.00    +0.000 A 
ATOM      2  N   UNL     1       1.862   5.813  20.801  0.00  0.00    +0.000 NA
ATOM      3  N   UNL     1       2.223   4.611  20.919  0.00  0.00    +0.000 NA
ATOM      4  C   UNL     1       3.047   4.064  19.994  0.00  0.00    +0.000 A 
ATOM      5  N   UNL     1       3.527   2.850  19.830  0.00  0.00    +0.000 NA
ATOM      6  N   UNL     1       4.282   2.845  18.672  0.00  0.00    +0.000 NA
ATOM      7  C   UNL     1       4.283   4.067  18.169  0.00  0.00    +0.000 A 
ATOM      8  N   UNL     1       4.841   4.505  17.009  0.00  0.00    +0.000 N 
ATOM      9  C   UNL     1       5.356   5.845  16.801  0.00  0.00    +0.000 C 
ATOM     10  C   UNL     1       5.526   5.877  15.291  0.00  0.00    +0.000 C 
ATOM     11  C   UNL     1       6.022   4.474  14.966  0.00  0.00    +0.000 C 
ATOM     12  C   UNL     1       5.435   3.573  16.062  0.00  0.00    +0.000 C 
ATOM     13  N   UNL     1       3.494   4.864  18.979  0.00  0.00    +0.000 N 
ATOM     14  N   UNL     1       3.130   6.161  18.806  0.00  0.00    +0.000 NA
ENDROOT
BRANCH   1  19
ATOM     15  F   UNL     1       0.375  11.849  19.478  0.00  0.00    +0.000 F 
ATOM     16  C   UNL     1       0.831  10.590  19.533  0.00  0.00    +0.000 A 
ATOM     17  C   UNL     1       1.400  10.020  18.398  0.00  0.00    +0.000 A 
ATOM     18  C   UNL     1       1.882   8.708  18.447  0.00  0.00    +0.000 A 
ATOM     19  C   UNL     1       1.791   7.973  19.637  0.00  0.00    +0.000 A 
ATOM     20  C   UNL     1       1.212   8.569  20.776  0.00  0.00    +0.000 A 
ATOM     21  C   UNL     1       0.734   9.877  20.719  0.00  0.00    +0.000 A 
ENDBRANCH   1  19
TORSDOF 1
ENDMDL
MODEL 5
REMARK VINA RESULT:      -7.6      3.780      7.060
REMARK  Name = 
REMARK  1 active torsions:
REMARK  status: ('A' for Active; 'I' for Inactive)
REMARK    1  A    between atoms: C_5  and  C_6
REMARK                            x       y       z     vdW  Elec       q    Type
REMARK                         _______ _______ _______ _____ _____    ______ ____
ROOT
ATOM      1  C   UNL     1       4.498   4.687  17.740  0.00  0.00    +0.000 A 
ATOM      2  N   UNL     1       4.545   3.526  18.503  0.00  0.00    +0.000 NA
ATOM      3  N   UNL     1       3.864   3.440  19.560  0.00  0.00    +0.000 NA
ATOM      4  C   UNL     1       3.089   4.483  19.946  0.00  0.00    +0.000 A 
ATOM      5  N   UNL     1       2.338   4.694  21.005  0.00  0.00    +0.000 NA
ATOM      6  N   UNL     1       1.812   5.969  20.904  0.00  0.00    +0.000 NA
ATOM      7  C   UNL     1       2.219   6.500  19.764  0.00  0.00    +0.000 A 
ATOM      8  N   UNL     1       1.997   7.754  19.286  0.00  0.00    +0.000 N 
ATOM      9  C   UNL     1       1.900   8.089  17.879  0.00  0.00    +0.000 C 
ATOM     10  C   UNL     1       1.997   9.606  17.918  0.00  0.00    +0.000 C 
ATOM     11  C   UNL     1       1.208   9.974  19.168  0.00  0.00    +0.000 C 
ATOM     12  C   UNL     1       1.343   8.764  20.104  0.00  0.00    +0.000 C 
ATOM     13  N   UNL     1       3.046   5.585  19.137  0.00  0.00    +0.000 N 
ATOM     14  N   UNL     1       3.764   5.726  17.994  0.00  0.00    +0.000 NA
ENDROOT
BRANCH   1  19
ATOM     15  F   UNL     1       7.738   4.827  13.140  0.00  0.00    +0.000 F 
ATOM     16  C   UNL     1       6.970   4.789  14.238  0.00  0.00    +0.000 A 
ATOM     17  C   UNL     1       7.489   5.236  15.449  0.00  0.00    +0.000 A 
ATOM     18  C   UNL     1       6.694   5.204  16.599  0.00  0.00    +0.000 A 
ATOM     19  C   UNL     1       5.379   4.721  16.529  0.00  0.00    +0.000 A 
ATOM     20  C   UNL     1       4.873   4.274  15.292  0.00  0.00    +0.000 A 
ATOM     21  C   UNL     1       5.672   4.310  14.149  0.00  0.00    +0.000 A 
ENDBRANCH   1  19
TORSDOF 1
ENDMDL
MODEL 6
REMARK VINA RESULT:      -7.6      5.355      7.532
REMARK  Name = 
REMARK  1 active torsions:
REMARK  status: ('A' for Active; 'I' for Inactive)
REMARK    1  A    between atoms: C_5  and  C_6
REMARK                            x       y       z     vdW  Elec       q    Type
REMARK                         _______ _______ _______ _____ _____    ______ ____
ROOT
ATOM      1  C   UNL     1       1.466   8.735  19.756  0.00  0.00    +0.000 A 
ATOM      2  N   UNL     1       1.874   9.494  18.665  0.00  0.00    +0.000 NA
ATOM      3  N   UNL     1       2.597   8.975  17.773  0.00  0.00    +0.000 NA
ATOM      4  C   UNL     1       2.975   7.679  17.884  0.00  0.00    +0.000 A 
ATOM      5  N   UNL     1       3.756   6.909  17.157  0.00  0.00    +0.000 NA
ATOM      6  N   UNL     1       3.829   5.674  17.776  0.00  0.00    +0.000 NA
ATOM      7  C   UNL     1       3.058   5.699  18.849  0.00  0.00    +0.000 A 
ATOM      8  N   UNL     1       2.880   4.729  19.786  0.00  0.00    +0.000 N 
ATOM      9  C   UNL     1       1.653   4.528  20.534  0.00  0.00    +0.000 C 
ATOM     10  C   UNL     1       2.116   3.584  21.632  0.00  0.00    +0.000 C 
ATOM     11  C   UNL     1       3.100   2.669  20.914  0.00  0.00    +0.000 C 
ATOM     12  C   UNL     1       3.679   3.514  19.771  0.00  0.00    +0.000 C 
ATOM     13  N   UNL     1       2.511   6.965  18.955  0.00  0.00    +0.000 N 
ATOM     14  N   UNL     1       1.735   7.480  19.943  0.00  0.00    +0.000 NA
ENDROOT
BRANCH   1  19
ATOM     15  F   UNL     1      -1.645  11.439  23.588  0.00  0.00    +0.000 F 
ATOM     16  C   UNL     1      -0.899  10.797  22.679  0.00  0.00    +0.000 A 
ATOM     17  C   UNL     1      -0.231   9.632  23.043  0.00  0.00    +0.000 A 
ATOM     18  C   UNL     1       0.547   8.953  22.101  0.00  0.00    +0.000 A 
ATOM     19  C   UNL     1       0.652   9.448  20.793  0.00  0.00    +0.000 A 
ATOM     20  C   UNL     1      -0.033  10.629  20.444  0.00  0.00    +0.000 A 
ATOM     21  C   UNL     1      -0.807  11.300  21.390  0.00  0.00    +0.000 A 
ENDBRANCH   1  19
TORSDOF 1
ENDMDL
MODEL 7
REMARK VINA RESULT:      -7.6      5.240      7.497
REMARK  Name = 
REMARK  1 active torsions:
REMARK  status: ('A' for Active; 'I' for Inactive)
REMARK    1  A    between atoms: C_5  and  C_6
REMARK                            x       y       z     vdW  Elec       q    Type
REMARK                         _______ _______ _______ _____ _____    ______ ____
ROOT
ATOM      1  C   UNL     1       1.545   8.606  19.654  0.00  0.00    +0.000 A 
ATOM      2  N   UNL     1       1.977   9.334  18.551  0.00  0.00    +0.000 NA
ATOM      3  N   UNL     1       2.711   8.787  17.685  0.00  0.00    +0.000 NA
ATOM      4  C   UNL     1       3.076   7.491  17.835  0.00  0.00    +0.000 A 
ATOM      5  N   UNL     1       3.862   6.697  17.141  0.00  0.00    +0.000 NA
ATOM      6  N   UNL     1       3.915   5.478  17.791  0.00  0.00    +0.000 NA
ATOM      7  C   UNL     1       3.127   5.535  18.850  0.00  0.00    +0.000 A 
ATOM      8  N   UNL     1       2.926   4.591  19.808  0.00  0.00    +0.000 N 
ATOM      9  C   UNL     1       1.686   4.417  20.540  0.00  0.00    +0.000 C 
ATOM     10  C   UNL     1       2.122   3.498  21.669  0.00  0.00    +0.000 C 
ATOM     11  C   UNL     1       3.110   2.558  20.991  0.00  0.00    +0.000 C 
ATOM     12  C   UNL     1       3.716   3.370  19.837  0.00  0.00    +0.000 C 
ATOM     13  N   UNL     1       2.589   6.808  18.915  0.00  0.00    +0.000 N 
ATOM     14  N   UNL     1       1.801   7.353  19.877  0.00  0.00    +0.000 NA
ENDROOT
BRANCH   1  19
ATOM     15  F   UNL     1      -1.498  11.379  23.491  0.00  0.00    +0.000 F 
ATOM     16  C   UNL     1      -0.778  10.717  22.575  0.00  0.00    +0.000 A 
ATOM     17  C   UNL     1      -0.791  11.151  21.253  0.00  0.00    +0.000 A 
ATOM     18  C   UNL     1      -0.041  10.468  20.291  0.00  0.00    +0.000 A 
ATOM     19  C   UNL     1       0.720   9.350  20.659  0.00  0.00    +0.000 A 
ATOM     20  C   UNL     1       0.719   8.926  22.004  0.00  0.00    +0.000 A 
ATOM     21  C   UNL     1      -0.031   9.613  22.958  0.00  0.00    +0.000 A 
ENDBRANCH   1  19
TORSDOF 1
ENDMDL
MODEL 8
REMARK VINA RESULT:      -7.5      5.527      8.483
REMARK  Name = 
REMARK  1 active torsions:
REMARK  status: ('A' for Active; 'I' for Inactive)
REMARK    1  A    between atoms: C_5  and  C_6
REMARK                            x       y       z     vdW  Elec       q    Type
REMARK                         _______ _______ _______ _____ _____    ______ ____
ROOT
ATOM      1  C   UNL     1       2.324   7.284  19.182  0.00  0.00    +0.000 A 
ATOM      2  N   UNL     1       2.755   7.632  17.907  0.00  0.00    +0.000 NA
ATOM      3  N   UNL     1       2.498   8.776  17.446  0.00  0.00    +0.000 NA
ATOM      4  C   UNL     1       1.799   9.661  18.198  0.00  0.00    +0.000 A 
ATOM      5  N   UNL     1       1.344  10.872  17.961  0.00  0.00    +0.000 NA
ATOM      6  N   UNL     1       0.645  11.289  19.079  0.00  0.00    +0.000 NA
ATOM      7  C   UNL     1       0.720  10.340  19.996  0.00  0.00    +0.000 A 
ATOM      8  N   UNL     1       0.128  10.296  21.219  0.00  0.00    +0.000 N 
ATOM      9  C   UNL     1       0.685   9.620  22.376  0.00  0.00    +0.000 C 
ATOM     10  C   UNL     1      -0.505   9.597  23.320  0.00  0.00    +0.000 C 
ATOM     11  C   UNL     1      -1.168  10.947  23.080  0.00  0.00    +0.000 C 
ATOM     12  C   UNL     1      -0.828  11.313  21.628  0.00  0.00    +0.000 C 
ATOM     13  N   UNL     1       1.436   9.283  19.461  0.00  0.00    +0.000 N 
ATOM     14  N   UNL     1       1.685   8.063  19.999  0.00  0.00    +0.000 NA
ENDROOT
BRANCH   1  19
ATOM     15  F   UNL     1       3.390   2.023  20.875  0.00  0.00    +0.000 F 
ATOM     16  C   UNL     1       3.142   3.278  20.474  0.00  0.00    +0.000 A 
ATOM     17  C   UNL     1       3.951   3.857  19.502  0.00  0.00    +0.000 A 
ATOM     18  C   UNL     1       3.698   5.164  19.076  0.00  0.00    +0.000 A 
ATOM     19  C   UNL     1       2.630   5.886  19.628  0.00  0.00    +0.000 A 
ATOM     20  C   UNL     1       1.822   5.281  20.611  0.00  0.00    +0.000 A 
ATOM     21  C   UNL     1       2.081   3.977  21.031  0.00  0.00    +0.000 A 
ENDBRANCH   1  19
TORSDOF 1
ENDMDL
MODEL 9
REMARK VINA RESULT:      -7.5      5.522      8.507
REMARK  Name = 
REMARK  1 active torsions:
REMARK  status: ('A' for Active; 'I' for Inactive)
REMARK    1  A    between atoms: C_5  and  C_6
REMARK                            x       y       z     vdW  Elec       q    Type
REMARK                         _______ _______ _______ _____ _____    ______ ____
ROOT
ATOM      1  C   UNL     1       2.325   7.269  19.180  0.00  0.00    +0.000 A 
ATOM      2  N   UNL     1       2.753   7.619  17.905  0.00  0.00    +0.000 NA
ATOM      3  N   UNL     1       2.494   8.764  17.446  0.00  0.00    +0.000 NA
ATOM      4  C   UNL     1       1.797   9.647  18.200  0.00  0.00    +0.000 A 
ATOM      5  N   UNL     1       1.340  10.859  17.965  0.00  0.00    +0.000 NA
ATOM      6  N   UNL     1       0.643  11.274  19.085  0.00  0.00    +0.000 NA
ATOM      7  C   UNL     1       0.721  10.324  20.001  0.00  0.00    +0.000 A 
ATOM      8  N   UNL     1       0.132  10.278  21.226  0.00  0.00    +0.000 N 
ATOM      9  C   UNL     1       0.691   9.601  22.380  0.00  0.00    +0.000 C 
ATOM     10  C   UNL     1      -0.497   9.576  23.326  0.00  0.00    +0.000 C 
ATOM     11  C   UNL     1      -1.161  10.926  23.090  0.00  0.00    +0.000 C 
ATOM     12  C   UNL     1      -0.824  11.294  21.638  0.00  0.00    +0.000 C 
ATOM     13  N   UNL     1       1.436   9.268  19.464  0.00  0.00    +0.000 N 
ATOM     14  N   UNL     1       1.687   8.047  20.000  0.00  0.00    +0.000 NA
ENDROOT
BRANCH   1  19
ATOM     15  F   UNL     1       3.565   2.033  20.829  0.00  0.00    +0.000 F 
ATOM     16  C   UNL     1       3.264   3.278  20.434  0.00  0.00    +0.000 A 
ATOM     17  C   UNL     1       2.193   3.941  21.024  0.00  0.00    +0.000 A 
ATOM     18  C   UNL     1       1.874   5.242  20.621  0.00  0.00    +0.000 A 
ATOM     19  C   UNL     1       2.633   5.872  19.624  0.00  0.00    +0.000 A 
ATOM     20  C   UNL     1       3.714   5.182  19.039  0.00  0.00    +0.000 A 
ATOM     21  C   UNL     1       4.026   3.886  19.447  0.00  0.00    +0.000 A 
ENDBRANCH   1  19
TORSDOF 1
ENDMDL
