MODEL 1
REMARK VINA RESULT:      -4.9      0.000      0.000
REMARK  Name = 
REMARK  1 active torsions:
REMARK  status: ('A' for Active; 'I' for Inactive)
REMARK    1  A    between atoms: S_1  and  C_2
REMARK                            x       y       z     vdW  Elec       q    Type
REMARK                         _______ _______ _______ _____ _____    ______ ____
ROOT
ATOM      1  C   UNL     1       5.256   4.141  18.010  0.00  0.00    +0.000 A 
ATOM      2  N   UNL     1       5.754   4.673  19.195  0.00  0.00    +0.000 N 
ATOM      3  C   UNL     1       6.846   5.508  19.247  0.00  0.00    +0.000 A 
ATOM      4  C   UNL     1       7.536   5.889  18.162  0.00  0.00    +0.000 A 
ATOM      5  C   UNL     1       7.041   5.350  16.890  0.00  0.00    +0.000 A 
ATOM      6  N   UNL     1       7.481   5.527  15.682  0.00  0.00    +0.000 NA
ATOM      7  C   UNL     1       6.607   4.766  14.916  0.00  0.00    +0.000 A 
ATOM      8  N   UNL     1       5.660   4.129  15.541  0.00  0.00    +0.000 NA
ATOM      9  C   UNL     1       5.870   4.458  16.855  0.00  0.00    +0.000 A 
ATOM     10  H   UNL     1       5.281   4.423  20.056  0.00  0.00    +0.000 HD
ENDROOT
BRANCH   1  11
ATOM     11  S   UNL     1       3.865   3.082  17.966  0.00  0.00    +0.000 S 
ATOM     12  H   UNL     1       3.823   2.851  16.650  0.00  0.00    +0.000 HD
ENDBRANCH   1  11
TORSDOF 1
ENDMDL
MODEL 2
REMARK VINA RESULT:      -4.8      1.842      3.224
REMARK  Name = 
REMARK  1 active torsions:
REMARK  status: ('A' for Active; 'I' for Inactive)
REMARK    1  A    between atoms: S_1  and  C_2
REMARK                            x       y       z     vdW  Elec       q    Type
REMARK                         _______ _______ _______ _____ _____    ______ ____
ROOT
ATOM      1  C   UNL     1       5.840   4.189  16.525  0.00  0.00    +0.000 A 
ATOM      2  N   UNL     1       4.708   3.453  16.859  0.00  0.00    +0.000 N 
ATOM      3  C   UNL     1       4.233   3.340  18.146  0.00  0.00    +0.000 A 
ATOM      4  C   UNL     1       4.815   3.928  19.201  0.00  0.00    +0.000 A 
ATOM      5  C   UNL     1       6.014   4.717  18.891  0.00  0.00    +0.000 A 
ATOM      6  N   UNL     1       6.790   5.396  19.677  0.00  0.00    +0.000 NA
ATOM      7  C   UNL     1       7.741   5.915  18.807  0.00  0.00    +0.000 A 
ATOM      8  N   UNL     1       7.624   5.617  17.545  0.00  0.00    +0.000 NA
ATOM      9  C   UNL     1       6.506   4.826  17.507  0.00  0.00    +0.000 A 
ATOM     10  H   UNL     1       4.220   2.979  16.109  0.00  0.00    +0.000 HD
ENDROOT
BRANCH   1  11
ATOM     11  S   UNL     1       6.426   4.321  14.883  0.00  0.00    +0.000 S 
ATOM     12  H   UNL     1       7.592   3.682  15.029  0.00  0.00    +0.000 HD
ENDBRANCH   1  11
TORSDOF 1
ENDMDL
MODEL 3
REMARK VINA RESULT:      -4.7      1.754      2.629
REMARK  Name = 
REMARK  1 active torsions:
REMARK  status: ('A' for Active; 'I' for Inactive)
REMARK    1  A    between atoms: S_1  and  C_2
REMARK                            x       y       z     vdW  Elec       q    Type
REMARK                         _______ _______ _______ _____ _____    ______ ____
ROOT
ATOM      1  C   UNL     1       6.563   4.906  18.345  0.00  0.00    +0.000 A 
ATOM      2  N   UNL     1       5.495   4.356  19.047  0.00  0.00    +0.000 N 
ATOM      3  C   UNL     1       4.464   3.675  18.441  0.00  0.00    +0.000 A 
ATOM      4  C   UNL     1       4.389   3.474  17.118  0.00  0.00    +0.000 A 
ATOM      5  C   UNL     1       5.499   4.039  16.339  0.00  0.00    +0.000 A 
ATOM      6  N   UNL     1       5.717   4.016  15.061  0.00  0.00    +0.000 NA
ATOM      7  C   UNL     1       6.914   4.708  14.934  0.00  0.00    +0.000 A 
ATOM      8  N   UNL     1       7.462   5.162  16.024  0.00  0.00    +0.000 NA
ATOM      9  C   UNL     1       6.593   4.764  17.006  0.00  0.00    +0.000 A 
ATOM     10  H   UNL     1       5.486   4.473  20.053  0.00  0.00    +0.000 HD
ENDROOT
BRANCH   1  11
ATOM     11  S   UNL     1       7.863   5.767  19.134  0.00  0.00    +0.000 S 
ATOM     12  H   UNL     1       8.441   4.738  19.763  0.00  0.00    +0.000 HD
ENDBRANCH   1  11
TORSDOF 1
ENDMDL
MODEL 4
REMARK VINA RESULT:      -4.7      3.805      4.953
REMARK  Name = 
REMARK  1 active torsions:
REMARK  status: ('A' for Active; 'I' for Inactive)
REMARK    1  A    between atoms: S_1  and  C_2
REMARK                            x       y       z     vdW  Elec       q    Type
REMARK                         _______ _______ _______ _____ _____    ______ ____
ROOT
ATOM      1  C   UNL     1       3.798   4.805  19.461  0.00  0.00    +0.000 A 
ATOM      2  N   UNL     1       3.053   5.539  20.379  0.00  0.00    +0.000 N 
ATOM      3  C   UNL     1       1.760   5.222  20.726  0.00  0.00    +0.000 A 
ATOM      4  C   UNL     1       1.094   4.176  20.215  0.00  0.00    +0.000 A 
ATOM      5  C   UNL     1       1.846   3.375  19.242  0.00  0.00    +0.000 A 
ATOM      6  N   UNL     1       1.490   2.317  18.581  0.00  0.00    +0.000 NA
ATOM      7  C   UNL     1       2.620   2.022  17.830  0.00  0.00    +0.000 A 
ATOM      8  N   UNL     1       3.652   2.805  17.966  0.00  0.00    +0.000 NA
ATOM      9  C   UNL     1       3.229   3.730  18.884  0.00  0.00    +0.000 A 
ATOM     10  H   UNL     1       3.495   6.346  20.802  0.00  0.00    +0.000 HD
ENDROOT
BRANCH   1  11
ATOM     11  S   UNL     1       5.441   5.225  19.034  0.00  0.00    +0.000 S 
ATOM     12  H   UNL     1       5.250   5.519  17.743  0.00  0.00    +0.000 HD
ENDBRANCH   1  11
TORSDOF 1
ENDMDL
MODEL 5
REMARK VINA RESULT:      -4.7      2.088      3.727
REMARK  Name = 
REMARK  1 active torsions:
REMARK  status: ('A' for Active; 'I' for Inactive)
REMARK    1  A    between atoms: S_1  and  C_2
REMARK                            x       y       z     vdW  Elec       q    Type
REMARK                         _______ _______ _______ _____ _____    ______ ____
ROOT
ATOM      1  C   UNL     1       6.983   5.862  16.889  0.00  0.00    +0.000 A 
ATOM      2  N   UNL     1       7.427   5.672  15.584  0.00  0.00    +0.000 N 
ATOM      3  C   UNL     1       6.890   4.733  14.734  0.00  0.00    +0.000 A 
ATOM      4  C   UNL     1       5.888   3.913  15.079  0.00  0.00    +0.000 A 
ATOM      5  C   UNL     1       5.389   4.082  16.449  0.00  0.00    +0.000 A 
ATOM      6  N   UNL     1       4.442   3.453  17.075  0.00  0.00    +0.000 NA
ATOM      7  C   UNL     1       4.441   4.055  18.327  0.00  0.00    +0.000 A 
ATOM      8  N   UNL     1       5.306   5.006  18.536  0.00  0.00    +0.000 NA
ATOM      9  C   UNL     1       5.977   5.093  17.344  0.00  0.00    +0.000 A 
ATOM     10  H   UNL     1       8.187   6.258  15.258  0.00  0.00    +0.000 HD
ENDROOT
BRANCH   1  11
ATOM     11  S   UNL     1       7.679   7.061  17.954  0.00  0.00    +0.000 S 
ATOM     12  H   UNL     1       6.553   7.526  18.506  0.00  0.00    +0.000 HD
ENDBRANCH   1  11
TORSDOF 1
ENDMDL
MODEL 6
REMARK VINA RESULT:      -4.7      3.450      5.444
REMARK  Name = 
REMARK  1 active torsions:
REMARK  status: ('A' for Active; 'I' for Inactive)
REMARK    1  A    between atoms: S_1  and  C_2
REMARK                            x       y       z     vdW  Elec       q    Type
REMARK                         _______ _______ _______ _____ _____    ______ ____
ROOT
ATOM      1  C   UNL     1       4.293   3.893  18.934  0.00  0.00    +0.000 A 
ATOM      2  N   UNL     1       4.399   2.695  18.235  0.00  0.00    +0.000 N 
ATOM      3  C   UNL     1       3.376   1.780  18.147  0.00  0.00    +0.000 A 
ATOM      4  C   UNL     1       2.179   1.953  18.726  0.00  0.00    +0.000 A 
ATOM      5  C   UNL     1       2.026   3.207  19.474  0.00  0.00    +0.000 A 
ATOM      6  N   UNL     1       1.007   3.664  20.135  0.00  0.00    +0.000 NA
ATOM      7  C   UNL     1       1.467   4.883  20.616  0.00  0.00    +0.000 A 
ATOM      8  N   UNL     1       2.686   5.226  20.312  0.00  0.00    +0.000 NA
ATOM      9  C   UNL     1       3.133   4.175  19.556  0.00  0.00    +0.000 A 
ATOM     10  H   UNL     1       5.280   2.498  17.774  0.00  0.00    +0.000 HD
ENDROOT
BRANCH   1  11
ATOM     11  S   UNL     1       5.606   5.044  19.033  0.00  0.00    +0.000 S 
ATOM     12  H   UNL     1       6.634   4.191  18.957  0.00  0.00    +0.000 HD
ENDBRANCH   1  11
TORSDOF 1
ENDMDL
MODEL 7
REMARK VINA RESULT:      -4.6      1.288      2.840
REMARK  Name = 
REMARK  1 active torsions:
REMARK  status: ('A' for Active; 'I' for Inactive)
REMARK    1  A    between atoms: S_1  and  C_2
REMARK                            x       y       z     vdW  Elec       q    Type
REMARK                         _______ _______ _______ _____ _____    ______ ____
ROOT
ATOM      1  C   UNL     1       5.035   3.818  18.193  0.00  0.00    +0.000 A 
ATOM      2  N   UNL     1       4.848   3.413  16.876  0.00  0.00    +0.000 N 
ATOM      3  C   UNL     1       5.676   3.793  15.845  0.00  0.00    +0.000 A 
ATOM      4  C   UNL     1       6.743   4.588  16.010  0.00  0.00    +0.000 A 
ATOM      5  C   UNL     1       6.977   5.037  17.388  0.00  0.00    +0.000 A 
ATOM      6  N   UNL     1       7.909   5.800  17.869  0.00  0.00    +0.000 NA
ATOM      7  C   UNL     1       7.600   5.857  19.222  0.00  0.00    +0.000 A 
ATOM      8  N   UNL     1       6.555   5.195  19.627  0.00  0.00    +0.000 NA
ATOM      9  C   UNL     1       6.079   4.620  18.478  0.00  0.00    +0.000 A 
ATOM     10  H   UNL     1       4.057   2.812  16.679  0.00  0.00    +0.000 HD
ENDROOT
BRANCH   1  11
ATOM     11  S   UNL     1       3.971   3.324  19.489  0.00  0.00    +0.000 S 
ATOM     12  H   UNL     1       4.216   4.318  20.349  0.00  0.00    +0.000 HD
ENDBRANCH   1  11
TORSDOF 1
ENDMDL
MODEL 8
REMARK VINA RESULT:      -4.6      1.634      1.634
REMARK  Name = 
REMARK  1 active torsions:
REMARK  status: ('A' for Active; 'I' for Inactive)
REMARK    1  A    between atoms: S_1  and  C_2
REMARK                            x       y       z     vdW  Elec       q    Type
REMARK                         _______ _______ _______ _____ _____    ______ ____
ROOT
ATOM      1  C   UNL     1       5.698   4.745  18.892  0.00  0.00    +0.000 A 
ATOM      2  N   UNL     1       6.841   4.958  19.656  0.00  0.00    +0.000 N 
ATOM      3  C   UNL     1       7.807   5.881  19.326  0.00  0.00    +0.000 A 
ATOM      4  C   UNL     1       7.739   6.664  18.240  0.00  0.00    +0.000 A 
ATOM      5  C   UNL     1       6.545   6.470  17.407  0.00  0.00    +0.000 A 
ATOM      6  N   UNL     1       6.191   7.063  16.309  0.00  0.00    +0.000 NA
ATOM      7  C   UNL     1       4.980   6.455  16.002  0.00  0.00    +0.000 A 
ATOM      8  N   UNL     1       4.548   5.534  16.815  0.00  0.00    +0.000 NA
ATOM      9  C   UNL     1       5.523   5.477  17.776  0.00  0.00    +0.000 A 
ATOM     10  H   UNL     1       6.958   4.397  20.491  0.00  0.00    +0.000 HD
ENDROOT
BRANCH   1  11
ATOM     11  S   UNL     1       4.482   3.566  19.329  0.00  0.00    +0.000 S 
ATOM     12  H   UNL     1       3.407   4.182  18.825  0.00  0.00    +0.000 HD
ENDBRANCH   1  11
TORSDOF 1
ENDMDL
MODEL 9
REMARK VINA RESULT:      -4.5      3.304      4.825
REMARK  Name = 
REMARK  1 active torsions:
REMARK  status: ('A' for Active; 'I' for Inactive)
REMARK    1  A    between atoms: S_1  and  C_2
REMARK                            x       y       z     vdW  Elec       q    Type
REMARK                         _______ _______ _______ _____ _____    ______ ____
ROOT
ATOM      1  C   UNL     1       5.003   4.225  19.075  0.00  0.00    +0.000 A 
ATOM      2  N   UNL     1       5.140   2.891  19.444  0.00  0.00    +0.000 N 
ATOM      3  C   UNL     1       4.195   2.210  20.177  0.00  0.00    +0.000 A 
ATOM      4  C   UNL     1       3.052   2.765  20.605  0.00  0.00    +0.000 A 
ATOM      5  C   UNL     1       2.868   4.174  20.234  0.00  0.00    +0.000 A 
ATOM      6  N   UNL     1       1.886   4.982  20.491  0.00  0.00    +0.000 NA
ATOM      7  C   UNL     1       2.286   6.164  19.883  0.00  0.00    +0.000 A 
ATOM      8  N   UNL     1       3.434   6.164  19.268  0.00  0.00    +0.000 NA
ATOM      9  C   UNL     1       3.891   4.885  19.449  0.00  0.00    +0.000 A 
ATOM     10  H   UNL     1       5.983   2.409  19.156  0.00  0.00    +0.000 HD
ENDROOT
BRANCH   1  11
ATOM     11  S   UNL     1       6.215   5.072  18.142  0.00  0.00    +0.000 S 
ATOM     12  H   UNL     1       6.406   4.164  17.179  0.00  0.00    +0.000 HD
ENDBRANCH   1  11
TORSDOF 1
ENDMDL
