MODEL 1
REMARK VINA RESULT:      -8.1      0.000      0.000
REMARK  Name = 
REMARK  10 active torsions:
REMARK  status: ('A' for Active; 'I' for Inactive)
REMARK    1  A    between atoms: C_2  and  C_3
REMARK    2  A    between atoms: C_3  and  N_4
REMARK    3  A    between atoms: N_4  and  C_5
REMARK    4  A    between atoms: N_4  and  C_22
REMARK    5  A    between atoms: C_5  and  C_6
REMARK    6  A    between atoms: C_9  and  O_10
REMARK    7  A    between atoms: O_10  and  C_11
REMARK    8  A    between atoms: C_11  and  C_12
REMARK    9  A    between atoms: C_22  and  C_23
REMARK   10  A    between atoms: C_22  and  C_24
REMARK                            x       y       z     vdW  Elec       q    Type
REMARK                         _______ _______ _______ _____ _____    ______ ____
ROOT
ATOM      1  C   UNL     1       2.673   7.092  19.202  0.00  0.00    +0.000 A 
ATOM      2  C   UNL     1       1.858   7.587  20.226  0.00  0.00    +0.000 A 
ATOM      3  C   UNL     1       1.135   8.771  20.038  0.00  0.00    +0.000 A 
ATOM      4  C   UNL     1       1.226   9.494  18.845  0.00  0.00    +0.000 A 
ATOM      5  C   UNL     1       2.112   9.068  17.863  0.00  0.00    +0.000 A 
ATOM      6  C   UNL     1       2.831   7.884  18.055  0.00  0.00    +0.000 A 
ATOM      7  F   UNL     1       3.621   7.473  17.055  0.00  0.00    +0.000 F 
ENDROOT
BRANCH   1   8
ATOM      8  C   UNL     1       3.186   5.660  19.249  0.00  0.00    +0.000 C 
BRANCH   8   9
ATOM      9  N   UNL     1       2.807   4.766  18.128  0.00  0.00    +0.000 NA
BRANCH   9  10
ATOM     10  C   UNL     1       3.972   3.897  17.712  0.00  0.00    +0.000 C 
ATOM     11  C   UNL     1       4.769   4.398  16.504  0.00  0.00    +0.000 C 
BRANCH  10  12
ATOM     12  C   UNL     1       4.990   3.667  18.863  0.00  0.00    +0.000 C 
ATOM     13  N   UNL     1       4.770   2.614  19.693  0.00  0.00    +0.000 N 
ATOM     14  O   UNL     1       6.010   4.340  19.016  0.00  0.00    +0.000 OA
ATOM     15  H   UNL     1       3.982   1.995  19.559  0.00  0.00    +0.000 HD
ATOM     16  H   UNL     1       5.459   2.426  20.409  0.00  0.00    +0.000 HD
ENDBRANCH  10  12
ENDBRANCH   9  10
BRANCH   9  17
ATOM     17  C   UNL     1       1.596   3.978  18.459  0.00  0.00    +0.000 C 
BRANCH  17  19
ATOM     18  C   UNL     1       1.259   3.310  21.030  0.00  0.00    +0.000 C 
ATOM     19  C   UNL     1       1.384   3.660  19.899  0.00  0.00    +0.000 C 
ENDBRANCH  17  19
ENDBRANCH   9  17
ENDBRANCH   8   9
ENDBRANCH   1   8
BRANCH   4  20
ATOM     20  O   UNL     1       0.314  10.503  18.720  0.00  0.00    +0.000 OA
BRANCH  20  21
ATOM     21  C   UNL     1      -0.993  10.284  19.251  0.00  0.00    +0.000 C 
BRANCH  21  22
ATOM     22  C   UNL     1      -2.035  10.512  18.172  0.00  0.00    +0.000 A 
ATOM     23  C   UNL     1      -3.107  11.404  18.346  0.00  0.00    +0.000 A 
ATOM     24  C   UNL     1      -4.031  11.627  17.319  0.00  0.00    +0.000 A 
ATOM     25  C   UNL     1      -3.889  10.970  16.099  0.00  0.00    +0.000 A 
ATOM     26  C   UNL     1      -2.825  10.096  15.918  0.00  0.00    +0.000 A 
ATOM     27  F   UNL     1      -2.681   9.467  14.743  0.00  0.00    +0.000 F 
ATOM     28  C   UNL     1      -1.901   9.864  16.934  0.00  0.00    +0.000 A 
ENDBRANCH  21  22
ENDBRANCH  20  21
ENDBRANCH   4  20
TORSDOF 9
ENDMDL
MODEL 2
REMARK VINA RESULT:      -7.8      5.218      8.468
REMARK  Name = 
REMARK  10 active torsions:
REMARK  status: ('A' for Active; 'I' for Inactive)
REMARK    1  A    between atoms: C_2  and  C_3
REMARK    2  A    between atoms: C_3  and  N_4
REMARK    3  A    between atoms: N_4  and  C_5
REMARK    4  A    between atoms: N_4  and  C_22
REMARK    5  A    between atoms: C_5  and  C_6
REMARK    6  A    between atoms: C_9  and  O_10
REMARK    7  A    between atoms: O_10  and  C_11
REMARK    8  A    between atoms: C_11  and  C_12
REMARK    9  A    between atoms: C_22  and  C_23
REMARK   10  A    between atoms: C_22  and  C_24
REMARK                            x       y       z     vdW  Elec       q    Type
REMARK                         _______ _______ _______ _____ _____    ______ ____
ROOT
ATOM      1  C   UNL     1       5.987   5.236  17.648  0.00  0.00    +0.000 A 
ATOM      2  C   UNL     1       6.868   5.148  18.732  0.00  0.00    +0.000 A 
ATOM      3  C   UNL     1       7.782   6.178  18.981  0.00  0.00    +0.000 A 
ATOM      4  C   UNL     1       7.856   7.298  18.149  0.00  0.00    +0.000 A 
ATOM      5  C   UNL     1       7.059   7.348  17.011  0.00  0.00    +0.000 A 
ATOM      6  C   UNL     1       6.147   6.317  16.768  0.00  0.00    +0.000 A 
ATOM      7  F   UNL     1       5.350   6.438  15.698  0.00  0.00    +0.000 F 
ENDROOT
BRANCH   1   8
ATOM      8  C   UNL     1       4.776   4.318  17.561  0.00  0.00    +0.000 C 
BRANCH   8   9
ATOM      9  N   UNL     1       3.503   4.819  18.130  0.00  0.00    +0.000 NA
BRANCH   9  10
ATOM     10  C   UNL     1       2.861   3.775  19.017  0.00  0.00    +0.000 C 
ATOM     11  C   UNL     1       1.805   4.301  19.994  0.00  0.00    +0.000 C 
BRANCH  10  12
ATOM     12  C   UNL     1       2.199   2.626  18.208  0.00  0.00    +0.000 C 
ATOM     13  N   UNL     1       1.693   1.577  18.910  0.00  0.00    +0.000 N 
ATOM     14  O   UNL     1       2.050   2.649  16.986  0.00  0.00    +0.000 OA
ATOM     15  H   UNL     1       1.732   1.552  19.919  0.00  0.00    +0.000 HD
ATOM     16  H   UNL     1       1.211   0.853  18.393  0.00  0.00    +0.000 HD
ENDBRANCH  10  12
ENDBRANCH   9  10
BRANCH   9  17
ATOM     17  C   UNL     1       3.699   6.114  18.824  0.00  0.00    +0.000 C 
BRANCH  17  19
ATOM     18  C   UNL     1       2.374   8.230  17.855  0.00  0.00    +0.000 C 
ATOM     19  C   UNL     1       3.001   7.293  18.239  0.00  0.00    +0.000 C 
ENDBRANCH  17  19
ENDBRANCH   9  17
ENDBRANCH   8   9
ENDBRANCH   1   8
BRANCH   4  20
ATOM     20  O   UNL     1       8.638   8.311  18.627  0.00  0.00    +0.000 OA
BRANCH  20  21
ATOM     21  C   UNL     1       8.386   9.629  18.140  0.00  0.00    +0.000 C 
BRANCH  21  22
ATOM     22  C   UNL     1       9.400  10.597  18.719  0.00  0.00    +0.000 A 
ATOM     23  C   UNL     1       9.478  10.862  20.098  0.00  0.00    +0.000 A 
ATOM     24  C   UNL     1      10.451  11.728  20.610  0.00  0.00    +0.000 A 
ATOM     25  C   UNL     1      11.367  12.332  19.753  0.00  0.00    +0.000 A 
ATOM     26  C   UNL     1      11.301  12.066  18.391  0.00  0.00    +0.000 A 
ATOM     27  F   UNL     1      12.186  12.640  17.564  0.00  0.00    +0.000 F 
ATOM     28  C   UNL     1      10.336  11.208  17.870  0.00  0.00    +0.000 A 
ENDBRANCH  21  22
ENDBRANCH  20  21
ENDBRANCH   4  20
TORSDOF 9
ENDMDL
MODEL 3
REMARK VINA RESULT:      -7.8      5.123      8.409
REMARK  Name = 
REMARK  10 active torsions:
REMARK  status: ('A' for Active; 'I' for Inactive)
REMARK    1  A    between atoms: C_2  and  C_3
REMARK    2  A    between atoms: C_3  and  N_4
REMARK    3  A    between atoms: N_4  and  C_5
REMARK    4  A    between atoms: N_4  and  C_22
REMARK    5  A    between atoms: C_5  and  C_6
REMARK    6  A    between atoms: C_9  and  O_10
REMARK    7  A    between atoms: O_10  and  C_11
REMARK    8  A    between atoms: C_11  and  C_12
REMARK    9  A    between atoms: C_22  and  C_23
REMARK   10  A    between atoms: C_22  and  C_24
REMARK                            x       y       z     vdW  Elec       q    Type
REMARK                         _______ _______ _______ _____ _____    ______ ____
ROOT
ATOM      1  C   UNL     1       6.023   5.111  17.668  0.00  0.00    +0.000 A 
ATOM      2  C   UNL     1       6.933   5.021  18.726  0.00  0.00    +0.000 A 
ATOM      3  C   UNL     1       7.825   6.070  18.978  0.00  0.00    +0.000 A 
ATOM      4  C   UNL     1       7.846   7.212  18.172  0.00  0.00    +0.000 A 
ATOM      5  C   UNL     1       7.019   7.267  17.056  0.00  0.00    +0.000 A 
ATOM      6  C   UNL     1       6.130   6.217  16.811  0.00  0.00    +0.000 A 
ATOM      7  F   UNL     1       5.302   6.341  15.765  0.00  0.00    +0.000 F 
ENDROOT
BRANCH   1   8
ATOM      8  C   UNL     1       4.836   4.162  17.588  0.00  0.00    +0.000 C 
BRANCH   8   9
ATOM      9  N   UNL     1       3.666   4.464  18.447  0.00  0.00    +0.000 NA
BRANCH   9  10
ATOM     10  C   UNL     1       3.464   3.383  19.485  0.00  0.00    +0.000 C 
ATOM     11  C   UNL     1       2.511   3.739  20.630  0.00  0.00    +0.000 C 
BRANCH  10  12
ATOM     12  C   UNL     1       2.956   2.049  18.871  0.00  0.00    +0.000 C 
ATOM     13  N   UNL     1       1.613   1.894  18.733  0.00  0.00    +0.000 N 
ATOM     14  O   UNL     1       3.702   1.167  18.445  0.00  0.00    +0.000 OA
ATOM     15  H   UNL     1       0.969   2.624  19.005  0.00  0.00    +0.000 HD
ATOM     16  H   UNL     1       1.280   1.052  18.282  0.00  0.00    +0.000 HD
ENDBRANCH  10  12
ENDBRANCH   9  10
BRANCH   9  17
ATOM     17  C   UNL     1       3.777   5.816  19.045  0.00  0.00    +0.000 C 
BRANCH  17  19
ATOM     18  C   UNL     1       2.339   7.775  17.921  0.00  0.00    +0.000 C 
ATOM     19  C   UNL     1       3.014   6.904  18.372  0.00  0.00    +0.000 C 
ENDBRANCH  17  19
ENDBRANCH   9  17
ENDBRANCH   8   9
ENDBRANCH   1   8
BRANCH   4  20
ATOM     20  O   UNL     1       8.612   8.235  18.655  0.00  0.00    +0.000 OA
BRANCH  20  21
ATOM     21  C   UNL     1       8.384   9.541  18.126  0.00  0.00    +0.000 C 
BRANCH  21  22
ATOM     22  C   UNL     1       9.403  10.513  18.690  0.00  0.00    +0.000 A 
ATOM     23  C   UNL     1      10.379  11.124  17.884  0.00  0.00    +0.000 A 
ATOM     24  C   UNL     1      11.280  12.050  18.421  0.00  0.00    +0.000 A 
ATOM     25  C   UNL     1      11.210  12.387  19.771  0.00  0.00    +0.000 A 
ATOM     26  C   UNL     1      10.241  11.794  20.570  0.00  0.00    +0.000 A 
ATOM     27  F   UNL     1      10.166  12.122  21.868  0.00  0.00    +0.000 F 
ATOM     28  C   UNL     1       9.341  10.870  20.046  0.00  0.00    +0.000 A 
ENDBRANCH  21  22
ENDBRANCH  20  21
ENDBRANCH   4  20
TORSDOF 9
ENDMDL
MODEL 4
REMARK VINA RESULT:      -7.6      5.179      8.361
REMARK  Name = 
REMARK  10 active torsions:
REMARK  status: ('A' for Active; 'I' for Inactive)
REMARK    1  A    between atoms: C_2  and  C_3
REMARK    2  A    between atoms: C_3  and  N_4
REMARK    3  A    between atoms: N_4  and  C_5
REMARK    4  A    between atoms: N_4  and  C_22
REMARK    5  A    between atoms: C_5  and  C_6
REMARK    6  A    between atoms: C_9  and  O_10
REMARK    7  A    between atoms: O_10  and  C_11
REMARK    8  A    between atoms: C_11  and  C_12
REMARK    9  A    between atoms: C_22  and  C_23
REMARK   10  A    between atoms: C_22  and  C_24
REMARK                            x       y       z     vdW  Elec       q    Type
REMARK                         _______ _______ _______ _____ _____    ______ ____
ROOT
ATOM      1  C   UNL     1       5.598   5.434  18.017  0.00  0.00    +0.000 A 
ATOM      2  C   UNL     1       6.623   5.290  18.957  0.00  0.00    +0.000 A 
ATOM      3  C   UNL     1       7.648   6.241  19.033  0.00  0.00    +0.000 A 
ATOM      4  C   UNL     1       7.686   7.334  18.163  0.00  0.00    +0.000 A 
ATOM      5  C   UNL     1       6.731   7.431  17.157  0.00  0.00    +0.000 A 
ATOM      6  C   UNL     1       5.710   6.479  17.088  0.00  0.00    +0.000 A 
ATOM      7  F   UNL     1       4.771   6.649  16.148  0.00  0.00    +0.000 F 
ENDROOT
BRANCH   1   8
ATOM      8  C   UNL     1       4.316   4.624  18.143  0.00  0.00    +0.000 C 
BRANCH   8   9
ATOM      9  N   UNL     1       3.665   4.584  19.475  0.00  0.00    +0.000 NA
BRANCH   9  10
ATOM     10  C   UNL     1       2.278   5.184  19.416  0.00  0.00    +0.000 C 
ATOM     11  C   UNL     1       1.248   4.553  20.357  0.00  0.00    +0.000 C 
BRANCH  10  12
ATOM     12  C   UNL     1       2.273   6.712  19.697  0.00  0.00    +0.000 C 
ATOM     13  N   UNL     1       1.903   7.119  20.940  0.00  0.00    +0.000 N 
ATOM     14  O   UNL     1       2.647   7.556  18.882  0.00  0.00    +0.000 OA
ATOM     15  H   UNL     1       1.656   6.454  21.659  0.00  0.00    +0.000 HD
ATOM     16  H   UNL     1       1.952   8.109  21.145  0.00  0.00    +0.000 HD
ENDBRANCH  10  12
ENDBRANCH   9  10
BRANCH   9  17
ATOM     17  C   UNL     1       3.670   3.211  20.032  0.00  0.00    +0.000 C 
BRANCH  17  19
ATOM     18  C   UNL     1       3.506   1.257  18.208  0.00  0.00    +0.000 C 
ATOM     19  C   UNL     1       3.622   2.095  19.047  0.00  0.00    +0.000 C 
ENDBRANCH  17  19
ENDBRANCH   9  17
ENDBRANCH   8   9
ENDBRANCH   1   8
BRANCH   4  20
ATOM     20  O   UNL     1       8.613   8.284  18.484  0.00  0.00    +0.000 OA
BRANCH  20  21
ATOM     21  C   UNL     1       8.494   9.564  17.864  0.00  0.00    +0.000 C 
BRANCH  21  22
ATOM     22  C   UNL     1       9.358  10.576  18.592  0.00  0.00    +0.000 A 
ATOM     23  C   UNL     1       9.378  10.669  19.995  0.00  0.00    +0.000 A 
ATOM     24  C   UNL     1      10.216  11.582  20.644  0.00  0.00    +0.000 A 
ATOM     25  C   UNL     1      11.055  12.408  19.900  0.00  0.00    +0.000 A 
ATOM     26  C   UNL     1      11.048  12.313  18.514  0.00  0.00    +0.000 A 
ATOM     27  F   UNL     1      11.860  13.100  17.795  0.00  0.00    +0.000 F 
ATOM     28  C   UNL     1      10.217  11.409  17.858  0.00  0.00    +0.000 A 
ENDBRANCH  21  22
ENDBRANCH  20  21
ENDBRANCH   4  20
TORSDOF 9
ENDMDL
MODEL 5
REMARK VINA RESULT:      -7.5      1.703      2.273
REMARK  Name = 
REMARK  10 active torsions:
REMARK  status: ('A' for Active; 'I' for Inactive)
REMARK    1  A    between atoms: C_2  and  C_3
REMARK    2  A    between atoms: C_3  and  N_4
REMARK    3  A    between atoms: N_4  and  C_5
REMARK    4  A    between atoms: N_4  and  C_22
REMARK    5  A    between atoms: C_5  and  C_6
REMARK    6  A    between atoms: C_9  and  O_10
REMARK    7  A    between atoms: O_10  and  C_11
REMARK    8  A    between atoms: C_11  and  C_12
REMARK    9  A    between atoms: C_22  and  C_23
REMARK   10  A    between atoms: C_22  and  C_24
REMARK                            x       y       z     vdW  Elec       q    Type
REMARK                         _______ _______ _______ _____ _____    ______ ____
ROOT
ATOM      1  C   UNL     1       3.355   6.530  18.463  0.00  0.00    +0.000 A 
ATOM      2  C   UNL     1       3.110   7.624  17.626  0.00  0.00    +0.000 A 
ATOM      3  C   UNL     1       2.269   8.660  18.051  0.00  0.00    +0.000 A 
ATOM      4  C   UNL     1       1.640   8.616  19.299  0.00  0.00    +0.000 A 
ATOM      5  C   UNL     1       1.793   7.487  20.094  0.00  0.00    +0.000 A 
ATOM      6  C   UNL     1       2.635   6.456  19.665  0.00  0.00    +0.000 A 
ATOM      7  F   UNL     1       2.809   5.418  20.492  0.00  0.00    +0.000 F 
ENDROOT
BRANCH   1   8
ATOM      8  C   UNL     1       4.511   5.583  18.175  0.00  0.00    +0.000 C 
BRANCH   8   9
ATOM      9  N   UNL     1       4.350   4.639  17.043  0.00  0.00    +0.000 NA
BRANCH   9  10
ATOM     10  C   UNL     1       5.607   4.583  16.204  0.00  0.00    +0.000 C 
ATOM     11  C   UNL     1       5.565   5.390  14.902  0.00  0.00    +0.000 C 
BRANCH  10  12
ATOM     12  C   UNL     1       6.870   5.043  16.982  0.00  0.00    +0.000 C 
ATOM     13  N   UNL     1       7.361   4.202  17.931  0.00  0.00    +0.000 N 
ATOM     14  O   UNL     1       7.479   6.084  16.739  0.00  0.00    +0.000 OA
ATOM     15  H   UNL     1       6.931   3.306  18.113  0.00  0.00    +0.000 HD
ATOM     16  H   UNL     1       8.215   4.471  18.401  0.00  0.00    +0.000 HD
ENDBRANCH  10  12
ENDBRANCH   9  10
BRANCH   9  17
ATOM     17  C   UNL     1       3.921   3.302  17.519  0.00  0.00    +0.000 C 
BRANCH  17  19
ATOM     18  C   UNL     1       1.366   3.113  18.299  0.00  0.00    +0.000 C 
ATOM     19  C   UNL     1       2.489   3.163  17.904  0.00  0.00    +0.000 C 
ENDBRANCH  17  19
ENDBRANCH   9  17
ENDBRANCH   8   9
ENDBRANCH   1   8
BRANCH   4  20
ATOM     20  O   UNL     1       1.025   9.779  19.666  0.00  0.00    +0.000 OA
BRANCH  20  21
ATOM     21  C   UNL     1       0.729  10.726  18.639  0.00  0.00    +0.000 C 
BRANCH  21  22
ATOM     22  C   UNL     1      -0.770  10.799  18.418  0.00  0.00    +0.000 A 
ATOM     23  C   UNL     1      -1.589  11.685  19.138  0.00  0.00    +0.000 A 
ATOM     24  C   UNL     1      -2.963  11.763  18.886  0.00  0.00    +0.000 A 
ATOM     25  C   UNL     1      -3.536  10.963  17.900  0.00  0.00    +0.000 A 
ATOM     26  C   UNL     1      -2.730  10.092  17.177  0.00  0.00    +0.000 A 
ATOM     27  F   UNL     1      -3.276   9.326  16.223  0.00  0.00    +0.000 F 
ATOM     28  C   UNL     1      -1.362  10.005  17.422  0.00  0.00    +0.000 A 
ENDBRANCH  21  22
ENDBRANCH  20  21
ENDBRANCH   4  20
TORSDOF 9
ENDMDL
MODEL 6
REMARK VINA RESULT:      -7.5      5.251      8.159
REMARK  Name = 
REMARK  10 active torsions:
REMARK  status: ('A' for Active; 'I' for Inactive)
REMARK    1  A    between atoms: C_2  and  C_3
REMARK    2  A    between atoms: C_3  and  N_4
REMARK    3  A    between atoms: N_4  and  C_5
REMARK    4  A    between atoms: N_4  and  C_22
REMARK    5  A    between atoms: C_5  and  C_6
REMARK    6  A    between atoms: C_9  and  O_10
REMARK    7  A    between atoms: O_10  and  C_11
REMARK    8  A    between atoms: C_11  and  C_12
REMARK    9  A    between atoms: C_22  and  C_23
REMARK   10  A    between atoms: C_22  and  C_24
REMARK                            x       y       z     vdW  Elec       q    Type
REMARK                         _______ _______ _______ _____ _____    ______ ____
ROOT
ATOM      1  C   UNL     1       6.413   5.334  17.919  0.00  0.00    +0.000 A 
ATOM      2  C   UNL     1       7.467   5.632  18.788  0.00  0.00    +0.000 A 
ATOM      3  C   UNL     1       8.115   6.870  18.709  0.00  0.00    +0.000 A 
ATOM      4  C   UNL     1       7.745   7.822  17.754  0.00  0.00    +0.000 A 
ATOM      5  C   UNL     1       6.770   7.496  16.818  0.00  0.00    +0.000 A 
ATOM      6  C   UNL     1       6.126   6.258  16.903  0.00  0.00    +0.000 A 
ATOM      7  F   UNL     1       5.145   6.013  16.025  0.00  0.00    +0.000 F 
ENDROOT
BRANCH   1   8
ATOM      8  C   UNL     1       5.484   4.162  18.205  0.00  0.00    +0.000 C 
BRANCH   8   9
ATOM      9  N   UNL     1       4.055   4.473  18.445  0.00  0.00    +0.000 NA
BRANCH   9  10
ATOM     10  C   UNL     1       3.259   3.207  18.678  0.00  0.00    +0.000 C 
ATOM     11  C   UNL     1       2.540   2.646  17.448  0.00  0.00    +0.000 C 
BRANCH  10  12
ATOM     12  C   UNL     1       4.121   2.056  19.264  0.00  0.00    +0.000 C 
ATOM     13  N   UNL     1       4.245   0.925  18.520  0.00  0.00    +0.000 N 
ATOM     14  O   UNL     1       4.745   2.142  20.322  0.00  0.00    +0.000 OA
ATOM     15  H   UNL     1       3.807   0.841  17.614  0.00  0.00    +0.000 HD
ATOM     16  H   UNL     1       4.851   0.195  18.872  0.00  0.00    +0.000 HD
ENDBRANCH  10  12
ENDBRANCH   9  10
BRANCH   9  17
ATOM     17  C   UNL     1       3.898   5.456  19.543  0.00  0.00    +0.000 C 
BRANCH  17  19
ATOM     18  C   UNL     1       1.536   5.486  20.805  0.00  0.00    +0.000 C 
ATOM     19  C   UNL     1       2.563   5.508  20.202  0.00  0.00    +0.000 C 
ENDBRANCH  17  19
ENDBRANCH   9  17
ENDBRANCH   8   9
ENDBRANCH   1   8
BRANCH   4  20
ATOM     20  O   UNL     1       8.313   9.052  17.928  0.00  0.00    +0.000 OA
BRANCH  20  21
ATOM     21  C   UNL     1       8.938   9.323  19.182  0.00  0.00    +0.000 C 
BRANCH  21  22
ATOM     22  C   UNL     1       9.623  10.675  19.138  0.00  0.00    +0.000 A 
ATOM     23  C   UNL     1      10.006  11.357  20.306  0.00  0.00    +0.000 A 
ATOM     24  C   UNL     1      10.674  12.585  20.237  0.00  0.00    +0.000 A 
ATOM     25  C   UNL     1      10.980  13.142  18.997  0.00  0.00    +0.000 A 
ATOM     26  C   UNL     1      10.614  12.468  17.840  0.00  0.00    +0.000 A 
ATOM     27  F   UNL     1      10.913  12.997  16.645  0.00  0.00    +0.000 F 
ATOM     28  C   UNL     1       9.947  11.247  17.897  0.00  0.00    +0.000 A 
ENDBRANCH  21  22
ENDBRANCH  20  21
ENDBRANCH   4  20
TORSDOF 9
ENDMDL
MODEL 7
REMARK VINA RESULT:      -7.5      4.732      8.095
REMARK  Name = 
REMARK  10 active torsions:
REMARK  status: ('A' for Active; 'I' for Inactive)
REMARK    1  A    between atoms: C_2  and  C_3
REMARK    2  A    between atoms: C_3  and  N_4
REMARK    3  A    between atoms: N_4  and  C_5
REMARK    4  A    between atoms: N_4  and  C_22
REMARK    5  A    between atoms: C_5  and  C_6
REMARK    6  A    between atoms: C_9  and  O_10
REMARK    7  A    between atoms: O_10  and  C_11
REMARK    8  A    between atoms: C_11  and  C_12
REMARK    9  A    between atoms: C_22  and  C_23
REMARK   10  A    between atoms: C_22  and  C_24
REMARK                            x       y       z     vdW  Elec       q    Type
REMARK                         _______ _______ _______ _____ _____    ______ ____
ROOT
ATOM      1  C   UNL     1       5.016   5.446  18.534  0.00  0.00    +0.000 A 
ATOM      2  C   UNL     1       4.476   5.351  17.247  0.00  0.00    +0.000 A 
ATOM      3  C   UNL     1       5.305   5.071  16.155  0.00  0.00    +0.000 A 
ATOM      4  C   UNL     1       6.684   4.906  16.316  0.00  0.00    +0.000 A 
ATOM      5  C   UNL     1       7.246   5.102  17.573  0.00  0.00    +0.000 A 
ATOM      6  C   UNL     1       6.412   5.380  18.660  0.00  0.00    +0.000 A 
ATOM      7  F   UNL     1       6.986   5.493  19.864  0.00  0.00    +0.000 F 
ENDROOT
BRANCH   1   8
ATOM      8  C   UNL     1       4.110   5.404  19.756  0.00  0.00    +0.000 C 
BRANCH   8   9
ATOM      9  N   UNL     1       2.868   4.601  19.653  0.00  0.00    +0.000 NA
BRANCH   9  10
ATOM     10  C   UNL     1       3.131   3.153  20.000  0.00  0.00    +0.000 C 
ATOM     11  C   UNL     1       2.375   2.621  21.221  0.00  0.00    +0.000 C 
BRANCH  10  12
ATOM     12  C   UNL     1       2.826   2.188  18.821  0.00  0.00    +0.000 C 
ATOM     13  N   UNL     1       1.583   1.639  18.768  0.00  0.00    +0.000 N 
ATOM     14  O   UNL     1       3.619   1.954  17.909  0.00  0.00    +0.000 OA
ATOM     15  H   UNL     1       0.881   1.860  19.459  0.00  0.00    +0.000 HD
ATOM     16  H   UNL     1       1.361   1.054  17.972  0.00  0.00    +0.000 HD
ENDBRANCH  10  12
ENDBRANCH   9  10
BRANCH   9  17
ATOM     17  C   UNL     1       1.779   5.194  20.465  0.00  0.00    +0.000 C 
BRANCH  17  19
ATOM     18  C   UNL     1       1.683   7.870  20.498  0.00  0.00    +0.000 C 
ATOM     19  C   UNL     1       1.674   6.680  20.452  0.00  0.00    +0.000 C 
ENDBRANCH  17  19
ENDBRANCH   9  17
ENDBRANCH   8   9
ENDBRANCH   1   8
BRANCH   4  20
ATOM     20  O   UNL     1       7.333   4.433  15.212  0.00  0.00    +0.000 OA
BRANCH  20  21
ATOM     21  C   UNL     1       7.049   5.054  13.959  0.00  0.00    +0.000 C 
BRANCH  21  22
ATOM     22  C   UNL     1       6.420   4.049  13.013  0.00  0.00    +0.000 A 
ATOM     23  C   UNL     1       5.036   4.019  12.767  0.00  0.00    +0.000 A 
ATOM     24  C   UNL     1       4.485   3.109  11.858  0.00  0.00    +0.000 A 
ATOM     25  C   UNL     1       5.313   2.224  11.172  0.00  0.00    +0.000 A 
ATOM     26  C   UNL     1       6.682   2.256  11.402  0.00  0.00    +0.000 A 
ATOM     27  F   UNL     1       7.483   1.410  10.739  0.00  0.00    +0.000 F 
ATOM     28  C   UNL     1       7.240   3.155  12.307  0.00  0.00    +0.000 A 
ENDBRANCH  21  22
ENDBRANCH  20  21
ENDBRANCH   4  20
TORSDOF 9
ENDMDL
MODEL 8
REMARK VINA RESULT:      -7.4      5.080      8.349
REMARK  Name = 
REMARK  10 active torsions:
REMARK  status: ('A' for Active; 'I' for Inactive)
REMARK    1  A    between atoms: C_2  and  C_3
REMARK    2  A    between atoms: C_3  and  N_4
REMARK    3  A    between atoms: N_4  and  C_5
REMARK    4  A    between atoms: N_4  and  C_22
REMARK    5  A    between atoms: C_5  and  C_6
REMARK    6  A    between atoms: C_9  and  O_10
REMARK    7  A    between atoms: O_10  and  C_11
REMARK    8  A    between atoms: C_11  and  C_12
REMARK    9  A    between atoms: C_22  and  C_23
REMARK   10  A    between atoms: C_22  and  C_24
REMARK                            x       y       z     vdW  Elec       q    Type
REMARK                         _______ _______ _______ _____ _____    ______ ____
ROOT
ATOM      1  C   UNL     1       5.690   5.285  18.342  0.00  0.00    +0.000 A 
ATOM      2  C   UNL     1       6.769   5.255  19.232  0.00  0.00    +0.000 A 
ATOM      3  C   UNL     1       7.783   6.215  19.139  0.00  0.00    +0.000 A 
ATOM      4  C   UNL     1       7.758   7.203  18.150  0.00  0.00    +0.000 A 
ATOM      5  C   UNL     1       6.747   7.178  17.197  0.00  0.00    +0.000 A 
ATOM      6  C   UNL     1       5.735   6.218  17.295  0.00  0.00    +0.000 A 
ATOM      7  F   UNL     1       4.743   6.274  16.398  0.00  0.00    +0.000 F 
ENDROOT
BRANCH   1   8
ATOM      8  C   UNL     1       4.427   4.485  18.632  0.00  0.00    +0.000 C 
BRANCH   8   9
ATOM      9  N   UNL     1       3.132   5.108  18.269  0.00  0.00    +0.000 NA
BRANCH   9  10
ATOM     10  C   UNL     1       2.026   4.076  18.242  0.00  0.00    +0.000 C 
ATOM     11  C   UNL     1       2.344   2.790  17.473  0.00  0.00    +0.000 C 
BRANCH  10  12
ATOM     12  C   UNL     1       1.566   3.652  19.664  0.00  0.00    +0.000 C 
ATOM     13  N   UNL     1       2.145   2.548  20.206  0.00  0.00    +0.000 N 
ATOM     14  O   UNL     1       0.766   4.297  20.342  0.00  0.00    +0.000 OA
ATOM     15  H   UNL     1       2.857   2.030  19.711  0.00  0.00    +0.000 HD
ATOM     16  H   UNL     1       1.890   2.300  21.154  0.00  0.00    +0.000 HD
ENDBRANCH  10  12
ENDBRANCH   9  10
BRANCH   9  17
ATOM     17  C   UNL     1       2.821   6.254  19.155  0.00  0.00    +0.000 C 
BRANCH  17  19
ATOM     18  C   UNL     1       2.270   8.602  17.991  0.00  0.00    +0.000 C 
ATOM     19  C   UNL     1       2.465   7.535  18.484  0.00  0.00    +0.000 C 
ENDBRANCH  17  19
ENDBRANCH   9  17
ENDBRANCH   8   9
ENDBRANCH   1   8
BRANCH   4  20
ATOM     20  O   UNL     1       8.690   8.189  18.308  0.00  0.00    +0.000 OA
BRANCH  20  21
ATOM     21  C   UNL     1       8.264   9.539  18.124  0.00  0.00    +0.000 C 
BRANCH  21  22
ATOM     22  C   UNL     1       9.310  10.491  18.671  0.00  0.00    +0.000 A 
ATOM     23  C   UNL     1      10.278  11.092  17.847  0.00  0.00    +0.000 A 
ATOM     24  C   UNL     1      11.206  11.999  18.370  0.00  0.00    +0.000 A 
ATOM     25  C   UNL     1      11.171  12.328  19.723  0.00  0.00    +0.000 A 
ATOM     26  C   UNL     1      10.211  11.746  20.540  0.00  0.00    +0.000 A 
ATOM     27  F   UNL     1      10.170  12.066  21.841  0.00  0.00    +0.000 F 
ATOM     28  C   UNL     1       9.284  10.840  20.031  0.00  0.00    +0.000 A 
ENDBRANCH  21  22
ENDBRANCH  20  21
ENDBRANCH   4  20
TORSDOF 9
ENDMDL
MODEL 9
REMARK VINA RESULT:      -7.4      5.351      8.401
REMARK  Name = 
REMARK  10 active torsions:
REMARK  status: ('A' for Active; 'I' for Inactive)
REMARK    1  A    between atoms: C_2  and  C_3
REMARK    2  A    between atoms: C_3  and  N_4
REMARK    3  A    between atoms: N_4  and  C_5
REMARK    4  A    between atoms: N_4  and  C_22
REMARK    5  A    between atoms: C_5  and  C_6
REMARK    6  A    between atoms: C_9  and  O_10
REMARK    7  A    between atoms: O_10  and  C_11
REMARK    8  A    between atoms: C_11  and  C_12
REMARK    9  A    between atoms: C_22  and  C_23
REMARK   10  A    between atoms: C_22  and  C_24
REMARK                            x       y       z     vdW  Elec       q    Type
REMARK                         _______ _______ _______ _____ _____    ______ ____
ROOT
ATOM      1  C   UNL     1       6.347   5.397  18.035  0.00  0.00    +0.000 A 
ATOM      2  C   UNL     1       7.399   5.707  18.903  0.00  0.00    +0.000 A 
ATOM      3  C   UNL     1       8.086   6.919  18.771  0.00  0.00    +0.000 A 
ATOM      4  C   UNL     1       7.759   7.831  17.763  0.00  0.00    +0.000 A 
ATOM      5  C   UNL     1       6.786   7.488  16.832  0.00  0.00    +0.000 A 
ATOM      6  C   UNL     1       6.102   6.276  16.969  0.00  0.00    +0.000 A 
ATOM      7  F   UNL     1       5.125   6.017  16.091  0.00  0.00    +0.000 F 
ENDROOT
BRANCH   1   8
ATOM      8  C   UNL     1       5.379   4.270  18.367  0.00  0.00    +0.000 C 
BRANCH   8   9
ATOM      9  N   UNL     1       3.952   4.632  18.541  0.00  0.00    +0.000 NA
BRANCH   9  10
ATOM     10  C   UNL     1       3.179   3.491  19.165  0.00  0.00    +0.000 C 
ATOM     11  C   UNL     1       2.538   3.795  20.522  0.00  0.00    +0.000 C 
BRANCH  10  12
ATOM     12  C   UNL     1       2.051   2.954  18.241  0.00  0.00    +0.000 C 
ATOM     13  N   UNL     1       1.787   1.621  18.286  0.00  0.00    +0.000 N 
ATOM     14  O   UNL     1       1.350   3.675  17.531  0.00  0.00    +0.000 OA
ATOM     15  H   UNL     1       2.293   1.005  18.907  0.00  0.00    +0.000 HD
ATOM     16  H   UNL     1       1.017   1.275  17.729  0.00  0.00    +0.000 HD
ENDBRANCH  10  12
ENDBRANCH   9  10
BRANCH   9  17
ATOM     17  C   UNL     1       3.810   5.899  19.297  0.00  0.00    +0.000 C 
BRANCH  17  19
ATOM     18  C   UNL     1       2.301   7.742  18.073  0.00  0.00    +0.000 C 
ATOM     19  C   UNL     1       2.974   6.958  18.665  0.00  0.00    +0.000 C 
ENDBRANCH  17  19
ENDBRANCH   9  17
ENDBRANCH   8   9
ENDBRANCH   1   8
BRANCH   4  20
ATOM     20  O   UNL     1       8.362   9.051  17.883  0.00  0.00    +0.000 OA
BRANCH  20  21
ATOM     21  C   UNL     1       8.972   9.369  19.133  0.00  0.00    +0.000 C 
BRANCH  21  22
ATOM     22  C   UNL     1       9.622  10.738  19.059  0.00  0.00    +0.000 A 
ATOM     23  C   UNL     1       9.956  11.341  17.834  0.00  0.00    +0.000 A 
ATOM     24  C   UNL     1      10.517  12.622  17.791  0.00  0.00    +0.000 A 
ATOM     25  C   UNL     1      10.739  13.325  18.973  0.00  0.00    +0.000 A 
ATOM     26  C   UNL     1      10.401  12.738  20.186  0.00  0.00    +0.000 A 
ATOM     27  F   UNL     1      10.607  13.414  21.325  0.00  0.00    +0.000 F 
ATOM     28  C   UNL     1       9.845  11.463  20.240  0.00  0.00    +0.000 A 
ENDBRANCH  21  22
ENDBRANCH  20  21
ENDBRANCH   4  20
TORSDOF 9
ENDMDL
