MODEL 1
REMARK VINA RESULT:      -5.8      0.000      0.000
REMARK  Name = 
REMARK  7 active torsions:
REMARK  status: ('A' for Active; 'I' for Inactive)
REMARK    1  A    between atoms: C_1  and  S_2
REMARK    2  A    between atoms: S_2  and  C_3
REMARK    3  A    between atoms: S_2  and  C_4
REMARK    4  A    between atoms: C_4  and  C_5
REMARK    5  A    between atoms: C_5  and  C_6
REMARK    6  A    between atoms: C_9  and  O_10
REMARK    7  A    between atoms: C_11  and  O_12
REMARK                            x       y       z     vdW  Elec       q    Type
REMARK                         _______ _______ _______ _____ _____    ______ ____
ROOT
ATOM      1  C   UNL     1       4.911   5.407  18.240  0.00  0.00    +0.000 A 
ATOM      2  C   UNL     1       4.562   6.080  17.042  0.00  0.00    +0.000 A 
ATOM      3  C   UNL     1       5.446   6.072  15.953  0.00  0.00    +0.000 A 
ATOM      4  C   UNL     1       6.676   5.402  16.034  0.00  0.00    +0.000 A 
ATOM      5  C   UNL     1       7.014   4.731  17.232  0.00  0.00    +0.000 A 
ATOM      6  C   UNL     1       6.120   4.743  18.321  0.00  0.00    +0.000 A 
ENDROOT
BRANCH   4   7
ATOM      7  O   UNL     1       7.529   5.388  14.999  0.00  0.00    +0.000 OA
ATOM      8  H   UNL     1       8.309   5.955  14.952  0.00  0.00    +0.000 HD
ENDBRANCH   4   7
BRANCH   5   9
ATOM      9  O   UNL     1       8.189   4.074  17.354  0.00  0.00    +0.000 OA
ATOM     10  H   UNL     1       8.389   3.249  16.902  0.00  0.00    +0.000 HD
ENDBRANCH   5   9
BRANCH   1  11
ATOM     11  C   UNL     1       4.021   5.439  19.462  0.00  0.00    +0.000 C 
BRANCH  11  12
ATOM     12  C   UNL     1       2.920   4.341  19.561  0.00  0.00    +0.000 C 
BRANCH  12  14
ATOM     13  C   UNL     1       3.467   1.716  18.257  0.00  0.00    +0.000 C 
ATOM     14  S   UNL     1       2.409   3.227  18.134  0.00  0.00    +0.000 S 
ATOM     15  C   UNL     1       0.868   2.379  18.801  0.00  0.00    +0.000 C 
ENDBRANCH  12  14
ENDBRANCH  11  12
ENDBRANCH   1  11
TORSDOF 5
ENDMDL
MODEL 2
REMARK VINA RESULT:      -5.7      1.538      1.915
REMARK  Name = 
REMARK  7 active torsions:
REMARK  status: ('A' for Active; 'I' for Inactive)
REMARK    1  A    between atoms: C_1  and  S_2
REMARK    2  A    between atoms: S_2  and  C_3
REMARK    3  A    between atoms: S_2  and  C_4
REMARK    4  A    between atoms: C_4  and  C_5
REMARK    5  A    between atoms: C_5  and  C_6
REMARK    6  A    between atoms: C_9  and  O_10
REMARK    7  A    between atoms: C_11  and  O_12
REMARK                            x       y       z     vdW  Elec       q    Type
REMARK                         _______ _______ _______ _____ _____    ______ ____
ROOT
ATOM      1  C   UNL     1       4.027   5.065  17.973  0.00  0.00    +0.000 A 
ATOM      2  C   UNL     1       4.510   4.562  16.739  0.00  0.00    +0.000 A 
ATOM      3  C   UNL     1       5.884   4.334  16.566  0.00  0.00    +0.000 A 
ATOM      4  C   UNL     1       6.789   4.597  17.605  0.00  0.00    +0.000 A 
ATOM      5  C   UNL     1       6.298   5.096  18.834  0.00  0.00    +0.000 A 
ATOM      6  C   UNL     1       4.917   5.321  18.999  0.00  0.00    +0.000 A 
ENDROOT
BRANCH   4   7
ATOM      7  O   UNL     1       8.105   4.383  17.450  0.00  0.00    +0.000 OA
ATOM      8  H   UNL     1       8.728   5.083  17.220  0.00  0.00    +0.000 HD
ENDBRANCH   4   7
BRANCH   5   9
ATOM      9  O   UNL     1       7.136   5.364  19.860  0.00  0.00    +0.000 OA
ATOM     10  H   UNL     1       6.962   5.112  20.772  0.00  0.00    +0.000 HD
ENDBRANCH   5   9
BRANCH   1  11
ATOM     11  C   UNL     1       2.566   5.386  18.187  0.00  0.00    +0.000 C 
BRANCH  11  12
ATOM     12  C   UNL     1       1.535   4.304  17.748  0.00  0.00    +0.000 C 
BRANCH  12  14
ATOM     13  C   UNL     1       2.794   1.834  18.846  0.00  0.00    +0.000 C 
ATOM     14  S   UNL     1       1.181   2.730  18.715  0.00  0.00    +0.000 S 
ATOM     15  C   UNL     1       1.202   3.324  20.499  0.00  0.00    +0.000 C 
ENDBRANCH  12  14
ENDBRANCH  11  12
ENDBRANCH   1  11
TORSDOF 5
ENDMDL
MODEL 3
REMARK VINA RESULT:      -5.7      1.001      1.286
REMARK  Name = 
REMARK  7 active torsions:
REMARK  status: ('A' for Active; 'I' for Inactive)
REMARK    1  A    between atoms: C_1  and  S_2
REMARK    2  A    between atoms: S_2  and  C_3
REMARK    3  A    between atoms: S_2  and  C_4
REMARK    4  A    between atoms: C_4  and  C_5
REMARK    5  A    between atoms: C_5  and  C_6
REMARK    6  A    between atoms: C_9  and  O_10
REMARK    7  A    between atoms: C_11  and  O_12
REMARK                            x       y       z     vdW  Elec       q    Type
REMARK                         _______ _______ _______ _____ _____    ______ ____
ROOT
ATOM      1  C   UNL     1       4.833   5.320  18.368  0.00  0.00    +0.000 A 
ATOM      2  C   UNL     1       4.516   6.013  17.172  0.00  0.00    +0.000 A 
ATOM      3  C   UNL     1       5.442   6.051  16.120  0.00  0.00    +0.000 A 
ATOM      4  C   UNL     1       6.682   5.406  16.234  0.00  0.00    +0.000 A 
ATOM      5  C   UNL     1       6.989   4.714  17.428  0.00  0.00    +0.000 A 
ATOM      6  C   UNL     1       6.053   4.680  18.481  0.00  0.00    +0.000 A 
ENDROOT
BRANCH   4   7
ATOM      7  O   UNL     1       7.575   5.435  15.232  0.00  0.00    +0.000 OA
ATOM      8  H   UNL     1       8.407   5.922  15.284  0.00  0.00    +0.000 HD
ENDBRANCH   4   7
BRANCH   5   9
ATOM      9  O   UNL     1       8.173   4.080  17.581  0.00  0.00    +0.000 OA
ATOM     10  H   UNL     1       9.027   4.513  17.482  0.00  0.00    +0.000 HD
ENDBRANCH   5   9
BRANCH   1  11
ATOM     11  C   UNL     1       3.896   5.303  19.554  0.00  0.00    +0.000 C 
BRANCH  11  12
ATOM     12  C   UNL     1       2.372   5.199  19.247  0.00  0.00    +0.000 C 
BRANCH  12  14
ATOM     13  C   UNL     1       1.657   2.307  19.133  0.00  0.00    +0.000 C 
ATOM     14  S   UNL     1       1.234   3.895  19.981  0.00  0.00    +0.000 S 
ATOM     15  C   UNL     1       2.106   3.438  21.584  0.00  0.00    +0.000 C 
ENDBRANCH  12  14
ENDBRANCH  11  12
ENDBRANCH   1  11
TORSDOF 5
ENDMDL
MODEL 4
REMARK VINA RESULT:      -5.7      0.922      1.188
REMARK  Name = 
REMARK  7 active torsions:
REMARK  status: ('A' for Active; 'I' for Inactive)
REMARK    1  A    between atoms: C_1  and  S_2
REMARK    2  A    between atoms: S_2  and  C_3
REMARK    3  A    between atoms: S_2  and  C_4
REMARK    4  A    between atoms: C_4  and  C_5
REMARK    5  A    between atoms: C_5  and  C_6
REMARK    6  A    between atoms: C_9  and  O_10
REMARK    7  A    between atoms: C_11  and  O_12
REMARK                            x       y       z     vdW  Elec       q    Type
REMARK                         _______ _______ _______ _____ _____    ______ ____
ROOT
ATOM      1  C   UNL     1       4.903   5.548  18.223  0.00  0.00    +0.000 A 
ATOM      2  C   UNL     1       4.561   6.167  16.993  0.00  0.00    +0.000 A 
ATOM      3  C   UNL     1       5.441   6.088  15.903  0.00  0.00    +0.000 A 
ATOM      4  C   UNL     1       6.658   5.400  16.013  0.00  0.00    +0.000 A 
ATOM      5  C   UNL     1       6.989   4.784  17.242  0.00  0.00    +0.000 A 
ATOM      6  C   UNL     1       6.101   4.866  18.332  0.00  0.00    +0.000 A 
ENDROOT
BRANCH   4   7
ATOM      7  O   UNL     1       7.506   5.318  14.976  0.00  0.00    +0.000 OA
ATOM      8  H   UNL     1       7.272   4.905  14.136  0.00  0.00    +0.000 HD
ENDBRANCH   4   7
BRANCH   5   9
ATOM      9  O   UNL     1       8.153   4.112  17.392  0.00  0.00    +0.000 OA
ATOM     10  H   UNL     1       8.842   4.370  18.012  0.00  0.00    +0.000 HD
ENDBRANCH   5   9
BRANCH   1  11
ATOM     11  C   UNL     1       4.020   5.658  19.444  0.00  0.00    +0.000 C 
BRANCH  11  12
ATOM     12  C   UNL     1       2.723   4.794  19.456  0.00  0.00    +0.000 C 
BRANCH  12  14
ATOM     13  C   UNL     1       1.767   2.837  21.491  0.00  0.00    +0.000 C 
ATOM     14  S   UNL     1       2.678   2.964  19.887  0.00  0.00    +0.000 S 
ATOM     15  C   UNL     1       1.241   2.328  18.854  0.00  0.00    +0.000 C 
ENDBRANCH  12  14
ENDBRANCH  11  12
ENDBRANCH   1  11
TORSDOF 5
ENDMDL
MODEL 5
REMARK VINA RESULT:      -5.6      0.709      1.167
REMARK  Name = 
REMARK  7 active torsions:
REMARK  status: ('A' for Active; 'I' for Inactive)
REMARK    1  A    between atoms: C_1  and  S_2
REMARK    2  A    between atoms: S_2  and  C_3
REMARK    3  A    between atoms: S_2  and  C_4
REMARK    4  A    between atoms: C_4  and  C_5
REMARK    5  A    between atoms: C_5  and  C_6
REMARK    6  A    between atoms: C_9  and  O_10
REMARK    7  A    between atoms: C_11  and  O_12
REMARK                            x       y       z     vdW  Elec       q    Type
REMARK                         _______ _______ _______ _____ _____    ______ ____
ROOT
ATOM      1  C   UNL     1       4.895   5.461  18.198  0.00  0.00    +0.000 A 
ATOM      2  C   UNL     1       4.581   6.108  16.975  0.00  0.00    +0.000 A 
ATOM      3  C   UNL     1       5.492   6.069  15.909  0.00  0.00    +0.000 A 
ATOM      4  C   UNL     1       6.714   5.393  16.036  0.00  0.00    +0.000 A 
ATOM      5  C   UNL     1       7.018   4.747  17.257  0.00  0.00    +0.000 A 
ATOM      6  C   UNL     1       6.098   4.790  18.323  0.00  0.00    +0.000 A 
ENDROOT
BRANCH   4   7
ATOM      7  O   UNL     1       7.592   5.349  15.022  0.00  0.00    +0.000 OA
ATOM      8  H   UNL     1       7.421   5.749  14.161  0.00  0.00    +0.000 HD
ENDBRANCH   4   7
BRANCH   5   9
ATOM      9  O   UNL     1       8.185   4.086  17.423  0.00  0.00    +0.000 OA
ATOM     10  H   UNL     1       8.756   3.819  16.696  0.00  0.00    +0.000 HD
ENDBRANCH   5   9
BRANCH   1  11
ATOM     11  C   UNL     1       3.976   5.527  19.395  0.00  0.00    +0.000 C 
BRANCH  11  12
ATOM     12  C   UNL     1       3.444   4.173  19.952  0.00  0.00    +0.000 C 
BRANCH  12  14
ATOM     13  C   UNL     1       1.461   4.168  17.725  0.00  0.00    +0.000 C 
ATOM     14  S   UNL     1       2.115   3.138  19.114  0.00  0.00    +0.000 S 
ATOM     15  C   UNL     1       3.115   2.004  17.995  0.00  0.00    +0.000 C 
ENDBRANCH  12  14
ENDBRANCH  11  12
ENDBRANCH   1  11
TORSDOF 5
ENDMDL
MODEL 6
REMARK VINA RESULT:      -5.5      1.572      2.207
REMARK  Name = 
REMARK  7 active torsions:
REMARK  status: ('A' for Active; 'I' for Inactive)
REMARK    1  A    between atoms: C_1  and  S_2
REMARK    2  A    between atoms: S_2  and  C_3
REMARK    3  A    between atoms: S_2  and  C_4
REMARK    4  A    between atoms: C_4  and  C_5
REMARK    5  A    between atoms: C_5  and  C_6
REMARK    6  A    between atoms: C_9  and  O_10
REMARK    7  A    between atoms: C_11  and  O_12
REMARK                            x       y       z     vdW  Elec       q    Type
REMARK                         _______ _______ _______ _____ _____    ______ ____
ROOT
ATOM      1  C   UNL     1       4.089   5.073  17.931  0.00  0.00    +0.000 A 
ATOM      2  C   UNL     1       5.090   5.547  18.817  0.00  0.00    +0.000 A 
ATOM      3  C   UNL     1       6.437   5.237  18.580  0.00  0.00    +0.000 A 
ATOM      4  C   UNL     1       6.809   4.463  17.471  0.00  0.00    +0.000 A 
ATOM      5  C   UNL     1       5.806   3.998  16.591  0.00  0.00    +0.000 A 
ATOM      6  C   UNL     1       4.455   4.314  16.835  0.00  0.00    +0.000 A 
ENDROOT
BRANCH   4   7
ATOM      7  O   UNL     1       8.096   4.161  17.235  0.00  0.00    +0.000 OA
ATOM      8  H   UNL     1       8.793   4.827  17.195  0.00  0.00    +0.000 HD
ENDBRANCH   4   7
BRANCH   5   9
ATOM      9  O   UNL     1       6.121   3.248  15.511  0.00  0.00    +0.000 OA
ATOM     10  H   UNL     1       6.841   2.611  15.495  0.00  0.00    +0.000 HD
ENDBRANCH   5   9
BRANCH   1  11
ATOM     11  C   UNL     1       2.620   5.326  18.177  0.00  0.00    +0.000 C 
BRANCH  11  12
ATOM     12  C   UNL     1       2.089   5.054  19.616  0.00  0.00    +0.000 C 
BRANCH  12  14
ATOM     13  C   UNL     1       1.470   2.214  18.952  0.00  0.00    +0.000 C 
ATOM     14  S   UNL     1       0.989   3.600  20.078  0.00  0.00    +0.000 S 
ATOM     15  C   UNL     1       1.863   2.877  21.578  0.00  0.00    +0.000 C 
ENDBRANCH  12  14
ENDBRANCH  11  12
ENDBRANCH   1  11
TORSDOF 5
ENDMDL
MODEL 7
REMARK VINA RESULT:      -5.5      3.286      5.184
REMARK  Name = 
REMARK  7 active torsions:
REMARK  status: ('A' for Active; 'I' for Inactive)
REMARK    1  A    between atoms: C_1  and  S_2
REMARK    2  A    between atoms: S_2  and  C_3
REMARK    3  A    between atoms: S_2  and  C_4
REMARK    4  A    between atoms: C_4  and  C_5
REMARK    5  A    between atoms: C_5  and  C_6
REMARK    6  A    between atoms: C_9  and  O_10
REMARK    7  A    between atoms: C_11  and  O_12
REMARK                            x       y       z     vdW  Elec       q    Type
REMARK                         _______ _______ _______ _____ _____    ______ ____
ROOT
ATOM      1  C   UNL     1       3.462   4.943  17.702  0.00  0.00    +0.000 A 
ATOM      2  C   UNL     1       2.062   4.998  17.919  0.00  0.00    +0.000 A 
ATOM      3  C   UNL     1       1.352   3.822  18.202  0.00  0.00    +0.000 A 
ATOM      4  C   UNL     1       2.013   2.587  18.276  0.00  0.00    +0.000 A 
ATOM      5  C   UNL     1       3.410   2.542  18.062  0.00  0.00    +0.000 A 
ATOM      6  C   UNL     1       4.116   3.728  17.779  0.00  0.00    +0.000 A 
ENDROOT
BRANCH   4   7
ATOM      7  O   UNL     1       1.344   1.455  18.546  0.00  0.00    +0.000 OA
ATOM      8  H   UNL     1       0.885   0.942  17.870  0.00  0.00    +0.000 HD
ENDBRANCH   4   7
BRANCH   5   9
ATOM      9  O   UNL     1       4.086   1.373  18.122  0.00  0.00    +0.000 OA
ATOM     10  H   UNL     1       4.365   0.876  17.346  0.00  0.00    +0.000 HD
ENDBRANCH   5   9
BRANCH   1  11
ATOM     11  C   UNL     1       4.261   6.172  17.333  0.00  0.00    +0.000 C 
BRANCH  11  12
ATOM     12  C   UNL     1       5.558   5.946  16.499  0.00  0.00    +0.000 C 
BRANCH  12  14
ATOM     13  C   UNL     1       7.519   7.927  17.556  0.00  0.00    +0.000 C 
ATOM     14  S   UNL     1       7.299   6.129  17.185  0.00  0.00    +0.000 S 
ATOM     15  C   UNL     1       7.089   5.635  18.988  0.00  0.00    +0.000 C 
ENDBRANCH  12  14
ENDBRANCH  11  12
ENDBRANCH   1  11
TORSDOF 5
ENDMDL
MODEL 8
REMARK VINA RESULT:      -5.5      1.677      2.147
REMARK  Name = 
REMARK  7 active torsions:
REMARK  status: ('A' for Active; 'I' for Inactive)
REMARK    1  A    between atoms: C_1  and  S_2
REMARK    2  A    between atoms: S_2  and  C_3
REMARK    3  A    between atoms: S_2  and  C_4
REMARK    4  A    between atoms: C_4  and  C_5
REMARK    5  A    between atoms: C_5  and  C_6
REMARK    6  A    between atoms: C_9  and  O_10
REMARK    7  A    between atoms: C_11  and  O_12
REMARK                            x       y       z     vdW  Elec       q    Type
REMARK                         _______ _______ _______ _____ _____    ______ ____
ROOT
ATOM      1  C   UNL     1       3.852   5.365  17.503  0.00  0.00    +0.000 A 
ATOM      2  C   UNL     1       4.182   4.122  16.907  0.00  0.00    +0.000 A 
ATOM      3  C   UNL     1       5.417   3.962  16.262  0.00  0.00    +0.000 A 
ATOM      4  C   UNL     1       6.335   5.021  16.202  0.00  0.00    +0.000 A 
ATOM      5  C   UNL     1       6.000   6.256  16.803  0.00  0.00    +0.000 A 
ATOM      6  C   UNL     1       4.757   6.408  17.449  0.00  0.00    +0.000 A 
ENDROOT
BRANCH   4   7
ATOM      7  O   UNL     1       7.521   4.879  15.588  0.00  0.00    +0.000 OA
ATOM      8  H   UNL     1       7.627   4.401  14.756  0.00  0.00    +0.000 HD
ENDBRANCH   4   7
BRANCH   5   9
ATOM      9  O   UNL     1       6.854   7.303  16.766  0.00  0.00    +0.000 OA
ATOM     10  H   UNL     1       7.697   7.321  17.231  0.00  0.00    +0.000 HD
ENDBRANCH   5   9
BRANCH   1  11
ATOM     11  C   UNL     1       2.509   5.607  18.154  0.00  0.00    +0.000 C 
BRANCH  11  12
ATOM     12  C   UNL     1       2.346   5.134  19.630  0.00  0.00    +0.000 C 
BRANCH  12  14
ATOM     13  C   UNL     1       1.072   2.521  18.965  0.00  0.00    +0.000 C 
ATOM     14  S   UNL     1       1.053   3.894  20.203  0.00  0.00    +0.000 S 
ATOM     15  C   UNL     1       1.972   2.914  21.520  0.00  0.00    +0.000 C 
ENDBRANCH  12  14
ENDBRANCH  11  12
ENDBRANCH   1  11
TORSDOF 5
ENDMDL
MODEL 9
REMARK VINA RESULT:      -5.5      1.650      1.923
REMARK  Name = 
REMARK  7 active torsions:
REMARK  status: ('A' for Active; 'I' for Inactive)
REMARK    1  A    between atoms: C_1  and  S_2
REMARK    2  A    between atoms: S_2  and  C_3
REMARK    3  A    between atoms: S_2  and  C_4
REMARK    4  A    between atoms: C_4  and  C_5
REMARK    5  A    between atoms: C_5  and  C_6
REMARK    6  A    between atoms: C_9  and  O_10
REMARK    7  A    between atoms: C_11  and  O_12
REMARK                            x       y       z     vdW  Elec       q    Type
REMARK                         _______ _______ _______ _____ _____    ______ ____
ROOT
ATOM      1  C   UNL     1       3.612   5.147  17.407  0.00  0.00    +0.000 A 
ATOM      2  C   UNL     1       4.246   6.413  17.478  0.00  0.00    +0.000 A 
ATOM      3  C   UNL     1       5.526   6.586  16.931  0.00  0.00    +0.000 A 
ATOM      4  C   UNL     1       6.189   5.518  16.310  0.00  0.00    +0.000 A 
ATOM      5  C   UNL     1       5.548   4.259  16.240  0.00  0.00    +0.000 A 
ATOM      6  C   UNL     1       4.262   4.094  16.791  0.00  0.00    +0.000 A 
ENDROOT
BRANCH   4   7
ATOM      7  O   UNL     1       7.414   5.672  15.783  0.00  0.00    +0.000 OA
ATOM      8  H   UNL     1       8.047   6.325  16.107  0.00  0.00    +0.000 HD
ENDBRANCH   4   7
BRANCH   5   9
ATOM      9  O   UNL     1       6.152   3.202  15.652  0.00  0.00    +0.000 OA
ATOM     10  H   UNL     1       6.851   2.687  16.067  0.00  0.00    +0.000 HD
ENDBRANCH   5   9
BRANCH   1  11
ATOM     11  C   UNL     1       2.261   4.894  18.036  0.00  0.00    +0.000 C 
BRANCH  11  12
ATOM     12  C   UNL     1       1.863   3.407  18.277  0.00  0.00    +0.000 C 
BRANCH  12  14
ATOM     13  C   UNL     1       4.075   2.461  20.038  0.00  0.00    +0.000 C 
ATOM     14  S   UNL     1       2.235   2.459  19.858  0.00  0.00    +0.000 S 
ATOM     15  C   UNL     1       1.957   3.753  21.194  0.00  0.00    +0.000 C 
ENDBRANCH  12  14
ENDBRANCH  11  12
ENDBRANCH   1  11
TORSDOF 5
ENDMDL
