MODEL 1
REMARK VINA RESULT:      -8.1      0.000      0.000
REMARK  Name = 
REMARK  9 active torsions:
REMARK  status: ('A' for Active; 'I' for Inactive)
REMARK    1  A    between atoms: C_2  and  C_3
REMARK    2  A    between atoms: C_3  and  O_4
REMARK    3  A    between atoms: O_4  and  C_5
REMARK    4  A    between atoms: C_5  and  C_6
REMARK    5  A    between atoms: C_6  and  O_7
REMARK    6  A    between atoms: O_7  and  C_8
REMARK    7  A    between atoms: C_8  and  C_9
REMARK    8  A    between atoms: N_11  and  C_12
REMARK    9  A    between atoms: N_22  and  C_23
REMARK                            x       y       z     vdW  Elec       q    Type
REMARK                         _______ _______ _______ _____ _____    ______ ____
ROOT
ATOM      1  C   UNL     1       0.909   4.900  20.179  0.00  0.00    +0.000 C 
ENDROOT
BRANCH   1   2
ATOM      2  O   UNL     1       2.094   5.521  20.640  0.00  0.00    +0.000 OA
BRANCH   2   3
ATOM      3  C   UNL     1       2.333   6.706  19.911  0.00  0.00    +0.000 C 
BRANCH   3   5
ATOM      4  O   UNL     1       1.152   8.050  21.473  0.00  0.00    +0.000 OA
ATOM      5  C   UNL     1       1.584   7.978  20.341  0.00  0.00    +0.000 C 
ATOM      6  N   UNL     1       1.469   8.991  19.426  0.00  0.00    +0.000 N 
ATOM      7  H   UNL     1       1.843   8.779  18.534  0.00  0.00    +0.000 HD
BRANCH   6   8
ATOM      8  C   UNL     1       0.781  10.300  19.610  0.00  0.00    +0.000 C 
ATOM      9  C   UNL     1       0.911  10.838  21.045  0.00  0.00    +0.000 C 
ATOM     10  C   UNL     1       0.140  12.172  21.186  0.00  0.00    +0.000 C 
ATOM     11  C   UNL     1       0.734  13.197  20.203  0.00  0.00    +0.000 C 
ATOM     12  C   UNL     1       0.624  12.690  18.756  0.00  0.00    +0.000 C 
ATOM     13  C   UNL     1      -0.863  12.488  18.416  0.00  0.00    +0.000 C 
ATOM     14  C   UNL     1      -1.481  11.501  19.404  0.00  0.00    +0.000 C 
ATOM     15  C   UNL     1      -1.348  11.973  20.848  0.00  0.00    +0.000 C 
ATOM     16  C   UNL     1      -0.717  10.191  19.281  0.00  0.00    +0.000 C 
ATOM     17  C   UNL     1       1.388  11.348  18.635  0.00  0.00    +0.000 C 
ENDBRANCH   6   8
ENDBRANCH   3   5
ENDBRANCH   2   3
ENDBRANCH   1   2
BRANCH   1  18
ATOM     18  C   UNL     1       1.053   3.458  20.562  0.00  0.00    +0.000 C 
BRANCH  18  19
ATOM     19  O   UNL     1       0.815   2.666  19.418  0.00  0.00    +0.000 OA
BRANCH  19  20
ATOM     20  C   UNL     1       2.007   2.010  19.034  0.00  0.00    +0.000 C 
BRANCH  20  21
ATOM     21  C   UNL     1       2.794   2.897  18.097  0.00  0.00    +0.000 C 
ATOM     22  O   UNL     1       2.342   3.086  16.938  0.00  0.00    +0.000 OA
ATOM     23  N   UNL     1       3.951   3.466  18.592  0.00  0.00    +0.000 N 
ATOM     24  H   UNL     1       4.216   3.243  19.534  0.00  0.00    +0.000 HD
BRANCH  23  25
ATOM     25  C   UNL     1       4.804   4.317  17.747  0.00  0.00    +0.000 C 
ATOM     26  C   UNL     1       6.071   4.746  18.534  0.00  0.00    +0.000 C 
ATOM     27  C   UNL     1       6.978   5.631  17.671  0.00  0.00    +0.000 C 
ATOM     28  C   UNL     1       7.406   4.845  16.425  0.00  0.00    +0.000 C 
ATOM     29  C   UNL     1       6.169   4.436  15.608  0.00  0.00    +0.000 C 
ATOM     30  C   UNL     1       5.403   5.698  15.186  0.00  0.00    +0.000 C 
ATOM     31  C   UNL     1       4.963   6.484  16.429  0.00  0.00    +0.000 C 
ATOM     32  C   UNL     1       6.204   6.885  17.242  0.00  0.00    +0.000 C 
ATOM     33  C   UNL     1       4.057   5.596  17.288  0.00  0.00    +0.000 C 
ATOM     34  C   UNL     1       5.254   3.554  16.478  0.00  0.00    +0.000 C 
ENDBRANCH  23  25
ENDBRANCH  20  21
ENDBRANCH  19  20
ENDBRANCH  18  19
ENDBRANCH   1  18
TORSDOF 9
ENDMDL
MODEL 2
REMARK VINA RESULT:      -8.0      5.330      8.775
REMARK  Name = 
REMARK  9 active torsions:
REMARK  status: ('A' for Active; 'I' for Inactive)
REMARK    1  A    between atoms: C_2  and  C_3
REMARK    2  A    between atoms: C_3  and  O_4
REMARK    3  A    between atoms: O_4  and  C_5
REMARK    4  A    between atoms: C_5  and  C_6
REMARK    5  A    between atoms: C_6  and  O_7
REMARK    6  A    between atoms: O_7  and  C_8
REMARK    7  A    between atoms: C_8  and  C_9
REMARK    8  A    between atoms: N_11  and  C_12
REMARK    9  A    between atoms: N_22  and  C_23
REMARK                            x       y       z     vdW  Elec       q    Type
REMARK                         _______ _______ _______ _____ _____    ______ ____
ROOT
ATOM      1  C   UNL     1       6.861   5.907  16.320  0.00  0.00    +0.000 C 
ENDROOT
BRANCH   1   2
ATOM      2  O   UNL     1       7.759   4.843  16.570  0.00  0.00    +0.000 OA
BRANCH   2   3
ATOM      3  C   UNL     1       7.745   4.510  17.942  0.00  0.00    +0.000 C 
BRANCH   3   5
ATOM      4  O   UNL     1       6.269   5.132  19.696  0.00  0.00    +0.000 OA
ATOM      5  C   UNL     1       6.387   4.501  18.665  0.00  0.00    +0.000 C 
ATOM      6  N   UNL     1       5.361   3.803  18.088  0.00  0.00    +0.000 N 
ATOM      7  H   UNL     1       5.613   3.312  17.265  0.00  0.00    +0.000 HD
BRANCH   6   8
ATOM      8  C   UNL     1       3.973   3.642  18.608  0.00  0.00    +0.000 C 
ATOM      9  C   UNL     1       3.209   4.975  18.671  0.00  0.00    +0.000 C 
ATOM     10  C   UNL     1       1.795   4.752  19.259  0.00  0.00    +0.000 C 
ATOM     11  C   UNL     1       1.030   3.768  18.357  0.00  0.00    +0.000 C 
ATOM     12  C   UNL     1       1.768   2.422  18.269  0.00  0.00    +0.000 C 
ATOM     13  C   UNL     1       1.866   1.819  19.681  0.00  0.00    +0.000 C 
ATOM     14  C   UNL     1       2.591   2.797  20.602  0.00  0.00    +0.000 C 
ATOM     15  C   UNL     1       1.890   4.150  20.673  0.00  0.00    +0.000 C 
ATOM     16  C   UNL     1       3.977   3.033  20.020  0.00  0.00    +0.000 C 
ATOM     17  C   UNL     1       3.185   2.664  17.692  0.00  0.00    +0.000 C 
ENDBRANCH   6   8
ENDBRANCH   3   5
ENDBRANCH   2   3
ENDBRANCH   1   2
BRANCH   1  18
ATOM     18  C   UNL     1       7.698   7.148  16.403  0.00  0.00    +0.000 C 
BRANCH  18  19
ATOM     19  O   UNL     1       7.172   7.975  17.418  0.00  0.00    +0.000 OA
BRANCH  19  20
ATOM     20  C   UNL     1       8.171   8.243  18.382  0.00  0.00    +0.000 C 
BRANCH  20  21
ATOM     21  C   UNL     1       8.602   9.688  18.278  0.00  0.00    +0.000 C 
ATOM     22  O   UNL     1       7.949  10.448  17.516  0.00  0.00    +0.000 OA
ATOM     23  N   UNL     1       9.674  10.083  19.053  0.00  0.00    +0.000 N 
ATOM     24  H   UNL     1      10.120   9.388  19.624  0.00  0.00    +0.000 HD
BRANCH  23  25
ATOM     25  C   UNL     1      10.190  11.460  18.996  0.00  0.00    +0.000 C 
ATOM     26  C   UNL     1       9.137  12.445  19.571  0.00  0.00    +0.000 C 
ATOM     27  C   UNL     1       9.654  13.887  19.526  0.00  0.00    +0.000 C 
ATOM     28  C   UNL     1      10.938  13.985  20.361  0.00  0.00    +0.000 C 
ATOM     29  C   UNL     1      12.011  13.042  19.792  0.00  0.00    +0.000 C 
ATOM     30  C   UNL     1      12.308  13.435  18.337  0.00  0.00    +0.000 C 
ATOM     31  C   UNL     1      11.030  13.330  17.494  0.00  0.00    +0.000 C 
ATOM     32  C   UNL     1       9.962  14.271  18.072  0.00  0.00    +0.000 C 
ATOM     33  C   UNL     1      10.517  11.887  17.542  0.00  0.00    +0.000 C 
ATOM     34  C   UNL     1      11.488  11.594  19.830  0.00  0.00    +0.000 C 
ENDBRANCH  23  25
ENDBRANCH  20  21
ENDBRANCH  19  20
ENDBRANCH  18  19
ENDBRANCH   1  18
TORSDOF 9
ENDMDL
MODEL 3
REMARK VINA RESULT:      -8.0      6.511      9.858
REMARK  Name = 
REMARK  9 active torsions:
REMARK  status: ('A' for Active; 'I' for Inactive)
REMARK    1  A    between atoms: C_2  and  C_3
REMARK    2  A    between atoms: C_3  and  O_4
REMARK    3  A    between atoms: O_4  and  C_5
REMARK    4  A    between atoms: C_5  and  C_6
REMARK    5  A    between atoms: C_6  and  O_7
REMARK    6  A    between atoms: O_7  and  C_8
REMARK    7  A    between atoms: C_8  and  C_9
REMARK    8  A    between atoms: N_11  and  C_12
REMARK    9  A    between atoms: N_22  and  C_23
REMARK                            x       y       z     vdW  Elec       q    Type
REMARK                         _______ _______ _______ _____ _____    ______ ____
ROOT
ATOM      1  C   UNL     1       7.800   7.751  18.041  0.00  0.00    +0.000 C 
ENDROOT
BRANCH   1   2
ATOM      2  O   UNL     1       7.110   7.266  16.905  0.00  0.00    +0.000 OA
BRANCH   2   3
ATOM      3  C   UNL     1       5.719   7.266  17.148  0.00  0.00    +0.000 C 
BRANCH   3   5
ATOM      4  O   UNL     1       5.375   4.937  16.832  0.00  0.00    +0.000 OA
ATOM      5  C   UNL     1       5.045   5.920  17.464  0.00  0.00    +0.000 C 
ATOM      6  N   UNL     1       4.121   5.890  18.475  0.00  0.00    +0.000 N 
ATOM      7  H   UNL     1       3.931   6.774  18.880  0.00  0.00    +0.000 HD
BRANCH   6   8
ATOM      8  C   UNL     1       3.336   4.715  18.946  0.00  0.00    +0.000 C 
ATOM      9  C   UNL     1       2.501   4.075  17.824  0.00  0.00    +0.000 C 
ATOM     10  C   UNL     1       1.675   2.892  18.382  0.00  0.00    +0.000 C 
ATOM     11  C   UNL     1       2.638   1.842  18.963  0.00  0.00    +0.000 C 
ATOM     12  C   UNL     1       3.492   2.448  20.088  0.00  0.00    +0.000 C 
ATOM     13  C   UNL     1       2.557   2.931  21.211  0.00  0.00    +0.000 C 
ATOM     14  C   UNL     1       1.568   3.948  20.647  0.00  0.00    +0.000 C 
ATOM     15  C   UNL     1       0.737   3.372  19.505  0.00  0.00    +0.000 C 
ATOM     16  C   UNL     1       2.376   5.108  20.082  0.00  0.00    +0.000 C 
ATOM     17  C   UNL     1       4.302   3.639  19.517  0.00  0.00    +0.000 C 
ENDBRANCH   6   8
ENDBRANCH   3   5
ENDBRANCH   2   3
ENDBRANCH   1   2
BRANCH   1  18
ATOM     18  C   UNL     1       7.828   9.240  17.870  0.00  0.00    +0.000 C 
BRANCH  18  19
ATOM     19  O   UNL     1       9.151   9.689  18.073  0.00  0.00    +0.000 OA
BRANCH  19  20
ATOM     20  C   UNL     1       9.262  10.290  19.347  0.00  0.00    +0.000 C 
BRANCH  20  21
ATOM     21  C   UNL     1      10.006  11.600  19.227  0.00  0.00    +0.000 C 
ATOM     22  O   UNL     1      11.188  11.652  19.655  0.00  0.00    +0.000 OA
ATOM     23  N   UNL     1       9.340  12.650  18.626  0.00  0.00    +0.000 N 
ATOM     24  H   UNL     1       8.396  12.493  18.324  0.00  0.00    +0.000 HD
BRANCH  23  25
ATOM     25  C   UNL     1       9.967  13.974  18.494  0.00  0.00    +0.000 C 
ATOM     26  C   UNL     1       8.894  15.036  18.134  0.00  0.00    +0.000 C 
ATOM     27  C   UNL     1       9.524  16.426  17.994  0.00  0.00    +0.000 C 
ATOM     28  C   UNL     1      10.183  16.813  19.325  0.00  0.00    +0.000 C 
ATOM     29  C   UNL     1      11.275  15.794  19.689  0.00  0.00    +0.000 C 
ATOM     30  C   UNL     1      12.333  15.769  18.575  0.00  0.00    +0.000 C 
ATOM     31  C   UNL     1      11.682  15.373  17.243  0.00  0.00    +0.000 C 
ATOM     32  C   UNL     1      10.589  16.393  16.889  0.00  0.00    +0.000 C 
ATOM     33  C   UNL     1      11.053  13.982  17.387  0.00  0.00    +0.000 C 
ATOM     34  C   UNL     1      10.643  14.397  19.821  0.00  0.00    +0.000 C 
ENDBRANCH  23  25
ENDBRANCH  20  21
ENDBRANCH  19  20
ENDBRANCH  18  19
ENDBRANCH   1  18
TORSDOF 9
ENDMDL
MODEL 4
REMARK VINA RESULT:      -8.0      0.426      7.993
REMARK  Name = 
REMARK  9 active torsions:
REMARK  status: ('A' for Active; 'I' for Inactive)
REMARK    1  A    between atoms: C_2  and  C_3
REMARK    2  A    between atoms: C_3  and  O_4
REMARK    3  A    between atoms: O_4  and  C_5
REMARK    4  A    between atoms: C_5  and  C_6
REMARK    5  A    between atoms: C_6  and  O_7
REMARK    6  A    between atoms: O_7  and  C_8
REMARK    7  A    between atoms: C_8  and  C_9
REMARK    8  A    between atoms: N_11  and  C_12
REMARK    9  A    between atoms: N_22  and  C_23
REMARK                            x       y       z     vdW  Elec       q    Type
REMARK                         _______ _______ _______ _____ _____    ______ ____
ROOT
ATOM      1  C   UNL     1       1.308   3.304  21.231  0.00  0.00    +0.000 C 
ENDROOT
BRANCH   1   2
ATOM      2  O   UNL     1       2.117   2.459  20.436  0.00  0.00    +0.000 OA
BRANCH   2   3
ATOM      3  C   UNL     1       1.672   2.486  19.096  0.00  0.00    +0.000 C 
BRANCH   3   5
ATOM      4  O   UNL     1       2.145   3.312  16.920  0.00  0.00    +0.000 OA
ATOM      5  C   UNL     1       2.545   3.217  18.063  0.00  0.00    +0.000 C 
ATOM      6  N   UNL     1       3.726   3.759  18.494  0.00  0.00    +0.000 N 
ATOM      7  H   UNL     1       3.936   3.576  19.445  0.00  0.00    +0.000 HD
BRANCH   6   8
ATOM      8  C   UNL     1       4.734   4.495  17.679  0.00  0.00    +0.000 C 
ATOM      9  C   UNL     1       4.204   5.843  17.162  0.00  0.00    +0.000 C 
ATOM     10  C   UNL     1       5.275   6.537  16.287  0.00  0.00    +0.000 C 
ATOM     11  C   UNL     1       6.535   6.777  17.138  0.00  0.00    +0.000 C 
ATOM     12  C   UNL     1       7.091   5.448  17.675  0.00  0.00    +0.000 C 
ATOM     13  C   UNL     1       7.469   4.554  16.481  0.00  0.00    +0.000 C 
ATOM     14  C   UNL     1       6.240   4.333  15.603  0.00  0.00    +0.000 C 
ATOM     15  C   UNL     1       5.654   5.645  15.091  0.00  0.00    +0.000 C 
ATOM     16  C   UNL     1       5.177   3.664  16.462  0.00  0.00    +0.000 C 
ATOM     17  C   UNL     1       6.003   4.760  18.536  0.00  0.00    +0.000 C 
ENDBRANCH   6   8
ENDBRANCH   3   5
ENDBRANCH   2   3
ENDBRANCH   1   2
BRANCH   1  18
ATOM     18  C   UNL     1       1.101   4.535  20.401  0.00  0.00    +0.000 C 
BRANCH  18  19
ATOM     19  O   UNL     1       1.729   5.621  21.047  0.00  0.00    +0.000 OA
BRANCH  19  20
ATOM     20  C   UNL     1       2.110   6.592  20.093  0.00  0.00    +0.000 C 
BRANCH  20  21
ATOM     21  C   UNL     1       1.377   7.886  20.364  0.00  0.00    +0.000 C 
ATOM     22  O   UNL     1       0.701   7.974  21.422  0.00  0.00    +0.000 OA
ATOM     23  N   UNL     1       1.523   8.899  19.437  0.00  0.00    +0.000 N 
ATOM     24  H   UNL     1       2.087   8.714  18.628  0.00  0.00    +0.000 HD
BRANCH  23  25
ATOM     25  C   UNL     1       0.822  10.183  19.595  0.00  0.00    +0.000 C 
ATOM     26  C   UNL     1       1.450  11.249  18.658  0.00  0.00    +0.000 C 
ATOM     27  C   UNL     1       0.733  12.596  18.802  0.00  0.00    +0.000 C 
ATOM     28  C   UNL     1      -0.746  12.417  18.435  0.00  0.00    +0.000 C 
ATOM     29  C   UNL     1      -1.402  11.390  19.372  0.00  0.00    +0.000 C 
ATOM     30  C   UNL     1      -1.284  11.881  20.822  0.00  0.00    +0.000 C 
ATOM     31  C   UNL     1       0.194  12.052  21.199  0.00  0.00    +0.000 C 
ATOM     32  C   UNL     1       0.843  13.077  20.256  0.00  0.00    +0.000 C 
ATOM     33  C   UNL     1       0.907  10.703  21.054  0.00  0.00    +0.000 C 
ATOM     34  C   UNL     1      -0.676  10.039  19.233  0.00  0.00    +0.000 C 
ENDBRANCH  23  25
ENDBRANCH  20  21
ENDBRANCH  19  20
ENDBRANCH  18  19
ENDBRANCH   1  18
TORSDOF 9
ENDMDL
MODEL 5
REMARK VINA RESULT:      -8.0      5.952      7.977
REMARK  Name = 
REMARK  9 active torsions:
REMARK  status: ('A' for Active; 'I' for Inactive)
REMARK    1  A    between atoms: C_2  and  C_3
REMARK    2  A    between atoms: C_3  and  O_4
REMARK    3  A    between atoms: O_4  and  C_5
REMARK    4  A    between atoms: C_5  and  C_6
REMARK    5  A    between atoms: C_6  and  O_7
REMARK    6  A    between atoms: O_7  and  C_8
REMARK    7  A    between atoms: C_8  and  C_9
REMARK    8  A    between atoms: N_11  and  C_12
REMARK    9  A    between atoms: N_22  and  C_23
REMARK                            x       y       z     vdW  Elec       q    Type
REMARK                         _______ _______ _______ _____ _____    ______ ____
ROOT
ATOM      1  C   UNL     1       8.148   7.365  18.466  0.00  0.00    +0.000 C 
ENDROOT
BRANCH   1   2
ATOM      2  O   UNL     1       8.823   8.533  18.892  0.00  0.00    +0.000 OA
BRANCH   2   3
ATOM      3  C   UNL     1       8.472   9.623  18.065  0.00  0.00    +0.000 C 
BRANCH   3   5
ATOM      4  O   UNL     1      10.333  11.018  17.581  0.00  0.00    +0.000 OA
ATOM      5  C   UNL     1       9.291  10.918  18.197  0.00  0.00    +0.000 C 
ATOM      6  N   UNL     1       8.783  11.917  18.983  0.00  0.00    +0.000 N 
ATOM      7  H   UNL     1       7.940  11.682  19.448  0.00  0.00    +0.000 HD
BRANCH   6   8
ATOM      8  C   UNL     1       9.399  13.244  19.269  0.00  0.00    +0.000 C 
ATOM      9  C   UNL     1       8.496  14.140  20.134  0.00  0.00    +0.000 C 
ATOM     10  C   UNL     1       9.168  15.516  20.358  0.00  0.00    +0.000 C 
ATOM     11  C   UNL     1      10.512  15.303  21.076  0.00  0.00    +0.000 C 
ATOM     12  C   UNL     1      11.441  14.407  20.241  0.00  0.00    +0.000 C 
ATOM     13  C   UNL     1      11.709  15.098  18.892  0.00  0.00    +0.000 C 
ATOM     14  C   UNL     1      10.384  15.352  18.178  0.00  0.00    +0.000 C 
ATOM     15  C   UNL     1       9.436  16.210  19.010  0.00  0.00    +0.000 C 
ATOM     16  C   UNL     1       9.711  14.003  17.968  0.00  0.00    +0.000 C 
ATOM     17  C   UNL     1      10.749  13.040  20.013  0.00  0.00    +0.000 C 
ENDBRANCH   6   8
ENDBRANCH   3   5
ENDBRANCH   2   3
ENDBRANCH   1   2
BRANCH   1  18
ATOM     18  C   UNL     1       7.155   7.842  17.449  0.00  0.00    +0.000 C 
BRANCH  18  19
ATOM     19  O   UNL     1       6.679   6.724  16.731  0.00  0.00    +0.000 OA
BRANCH  19  20
ATOM     20  C   UNL     1       5.287   6.850  16.517  0.00  0.00    +0.000 C 
BRANCH  20  21
ATOM     21  C   UNL     1       4.575   5.644  17.088  0.00  0.00    +0.000 C 
ATOM     22  O   UNL     1       4.650   4.558  16.457  0.00  0.00    +0.000 OA
ATOM     23  N   UNL     1       3.909   5.814  18.285  0.00  0.00    +0.000 N 
ATOM     24  H   UNL     1       3.916   6.729  18.698  0.00  0.00    +0.000 HD
BRANCH  23  25
ATOM     25  C   UNL     1       3.159   4.710  18.903  0.00  0.00    +0.000 C 
ATOM     26  C   UNL     1       4.116   3.532  19.224  0.00  0.00    +0.000 C 
ATOM     27  C   UNL     1       3.357   2.370  19.874  0.00  0.00    +0.000 C 
ATOM     28  C   UNL     1       2.712   2.860  21.178  0.00  0.00    +0.000 C 
ATOM     29  C   UNL     1       1.731   4.006  20.883  0.00  0.00    +0.000 C 
ATOM     30  C   UNL     1       0.642   3.505  19.923  0.00  0.00    +0.000 C 
ATOM     31  C   UNL     1       1.280   3.023  18.613  0.00  0.00    +0.000 C 
ATOM     32  C   UNL     1       2.261   1.881  18.916  0.00  0.00    +0.000 C 
ATOM     33  C   UNL     1       2.038   4.188  17.967  0.00  0.00    +0.000 C 
ATOM     34  C   UNL     1       2.493   5.170  20.223  0.00  0.00    +0.000 C 
ENDBRANCH  23  25
ENDBRANCH  20  21
ENDBRANCH  19  20
ENDBRANCH  18  19
ENDBRANCH   1  18
TORSDOF 9
ENDMDL
MODEL 6
REMARK VINA RESULT:      -7.9      6.020      9.320
REMARK  Name = 
REMARK  9 active torsions:
REMARK  status: ('A' for Active; 'I' for Inactive)
REMARK    1  A    between atoms: C_2  and  C_3
REMARK    2  A    between atoms: C_3  and  O_4
REMARK    3  A    between atoms: O_4  and  C_5
REMARK    4  A    between atoms: C_5  and  C_6
REMARK    5  A    between atoms: C_6  and  O_7
REMARK    6  A    between atoms: O_7  and  C_8
REMARK    7  A    between atoms: C_8  and  C_9
REMARK    8  A    between atoms: N_11  and  C_12
REMARK    9  A    between atoms: N_22  and  C_23
REMARK                            x       y       z     vdW  Elec       q    Type
REMARK                         _______ _______ _______ _____ _____    ______ ____
ROOT
ATOM      1  C   UNL     1       7.911   6.335  18.755  0.00  0.00    +0.000 C 
ENDROOT
BRANCH   1   2
ATOM      2  O   UNL     1       7.761   5.213  17.906  0.00  0.00    +0.000 OA
BRANCH   2   3
ATOM      3  C   UNL     1       6.688   5.423  17.013  0.00  0.00    +0.000 C 
BRANCH   3   5
ATOM      4  O   UNL     1       4.503   6.239  17.463  0.00  0.00    +0.000 OA
ATOM      5  C   UNL     1       5.258   5.294  17.566  0.00  0.00    +0.000 C 
ATOM      6  N   UNL     1       4.894   4.096  18.121  0.00  0.00    +0.000 N 
ATOM      7  H   UNL     1       5.623   3.428  18.165  0.00  0.00    +0.000 HD
BRANCH   6   8
ATOM      8  C   UNL     1       3.579   3.745  18.728  0.00  0.00    +0.000 C 
ATOM      9  C   UNL     1       2.392   4.140  17.833  0.00  0.00    +0.000 C 
ATOM     10  C   UNL     1       1.057   3.793  18.534  0.00  0.00    +0.000 C 
ATOM     11  C   UNL     1       1.012   2.278  18.799  0.00  0.00    +0.000 C 
ATOM     12  C   UNL     1       2.188   1.846  19.690  0.00  0.00    +0.000 C 
ATOM     13  C   UNL     1       2.083   2.584  21.037  0.00  0.00    +0.000 C 
ATOM     14  C   UNL     1       2.088   4.091  20.793  0.00  0.00    +0.000 C 
ATOM     15  C   UNL     1       0.948   4.531  19.881  0.00  0.00    +0.000 C 
ATOM     16  C   UNL     1       3.393   4.436  20.090  0.00  0.00    +0.000 C 
ATOM     17  C   UNL     1       3.516   2.213  18.982  0.00  0.00    +0.000 C 
ENDBRANCH   6   8
ENDBRANCH   3   5
ENDBRANCH   2   3
ENDBRANCH   1   2
BRANCH   1  18
ATOM     18  C   UNL     1       7.962   7.515  17.832  0.00  0.00    +0.000 C 
BRANCH  18  19
ATOM     19  O   UNL     1       8.498   8.612  18.539  0.00  0.00    +0.000 OA
BRANCH  19  20
ATOM     20  C   UNL     1       8.203   9.813  17.855  0.00  0.00    +0.000 C 
BRANCH  20  21
ATOM     21  C   UNL     1       9.152  10.900  18.305  0.00  0.00    +0.000 C 
ATOM     22  O   UNL     1      10.072  10.590  19.105  0.00  0.00    +0.000 OA
ATOM     23  N   UNL     1       8.957  12.163  17.781  0.00  0.00    +0.000 N 
ATOM     24  H   UNL     1       8.188  12.294  17.151  0.00  0.00    +0.000 HD
BRANCH  23  25
ATOM     25  C   UNL     1       9.808  13.294  18.184  0.00  0.00    +0.000 C 
ATOM     26  C   UNL     1      10.130  13.202  19.699  0.00  0.00    +0.000 C 
ATOM     27  C   UNL     1      11.020  14.369  20.142  0.00  0.00    +0.000 C 
ATOM     28  C   UNL     1      12.333  14.327  19.348  0.00  0.00    +0.000 C 
ATOM     29  C   UNL     1      12.043  14.451  17.843  0.00  0.00    +0.000 C 
ATOM     30  C   UNL     1      11.319  15.779  17.576  0.00  0.00    +0.000 C 
ATOM     31  C   UNL     1      10.000  15.823  18.359  0.00  0.00    +0.000 C 
ATOM     32  C   UNL     1      10.297  15.694  19.861  0.00  0.00    +0.000 C 
ATOM     33  C   UNL     1       9.113  14.655  17.914  0.00  0.00    +0.000 C 
ATOM     34  C   UNL     1      11.143  13.283  17.401  0.00  0.00    +0.000 C 
ENDBRANCH  23  25
ENDBRANCH  20  21
ENDBRANCH  19  20
ENDBRANCH  18  19
ENDBRANCH   1  18
TORSDOF 9
ENDMDL
MODEL 7
REMARK VINA RESULT:      -7.9      6.028      9.344
REMARK  Name = 
REMARK  9 active torsions:
REMARK  status: ('A' for Active; 'I' for Inactive)
REMARK    1  A    between atoms: C_2  and  C_3
REMARK    2  A    between atoms: C_3  and  O_4
REMARK    3  A    between atoms: O_4  and  C_5
REMARK    4  A    between atoms: C_5  and  C_6
REMARK    5  A    between atoms: C_6  and  O_7
REMARK    6  A    between atoms: O_7  and  C_8
REMARK    7  A    between atoms: C_8  and  C_9
REMARK    8  A    between atoms: N_11  and  C_12
REMARK    9  A    between atoms: N_22  and  C_23
REMARK                            x       y       z     vdW  Elec       q    Type
REMARK                         _______ _______ _______ _____ _____    ______ ____
ROOT
ATOM      1  C   UNL     1       7.242   6.873  18.491  0.00  0.00    +0.000 C 
ENDROOT
BRANCH   1   2
ATOM      2  O   UNL     1       7.991   5.672  18.487  0.00  0.00    +0.000 OA
BRANCH   2   3
ATOM      3  C   UNL     1       7.465   4.778  17.530  0.00  0.00    +0.000 C 
BRANCH   3   5
ATOM      4  O   UNL     1       5.310   4.735  16.531  0.00  0.00    +0.000 OA
ATOM      5  C   UNL     1       5.948   4.522  17.542  0.00  0.00    +0.000 C 
ATOM      6  N   UNL     1       5.392   4.032  18.693  0.00  0.00    +0.000 N 
ATOM      7  H   UNL     1       6.029   3.937  19.445  0.00  0.00    +0.000 HD
BRANCH   6   8
ATOM      8  C   UNL     1       3.956   3.722  18.942  0.00  0.00    +0.000 C 
ATOM      9  C   UNL     1       3.079   4.986  18.983  0.00  0.00    +0.000 C 
ATOM     10  C   UNL     1       1.611   4.606  19.289  0.00  0.00    +0.000 C 
ATOM     11  C   UNL     1       1.098   3.666  18.184  0.00  0.00    +0.000 C 
ATOM     12  C   UNL     1       1.955   2.392  18.111  0.00  0.00    +0.000 C 
ATOM     13  C   UNL     1       1.861   1.658  19.461  0.00  0.00    +0.000 C 
ATOM     14  C   UNL     1       2.332   2.587  20.578  0.00  0.00    +0.000 C 
ATOM     15  C   UNL     1       1.514   3.874  20.640  0.00  0.00    +0.000 C 
ATOM     16  C   UNL     1       3.771   2.976  20.274  0.00  0.00    +0.000 C 
ATOM     17  C   UNL     1       3.423   2.789  17.819  0.00  0.00    +0.000 C 
ENDBRANCH   6   8
ENDBRANCH   3   5
ENDBRANCH   2   3
ENDBRANCH   1   2
BRANCH   1  18
ATOM     18  C   UNL     1       7.805   7.683  17.362  0.00  0.00    +0.000 C 
BRANCH  18  19
ATOM     19  O   UNL     1       7.688   9.050  17.691  0.00  0.00    +0.000 OA
BRANCH  19  20
ATOM     20  C   UNL     1       8.764   9.436  18.523  0.00  0.00    +0.000 C 
BRANCH  20  21
ATOM     21  C   UNL     1       9.019  10.918  18.367  0.00  0.00    +0.000 C 
ATOM     22  O   UNL     1       8.215  11.588  17.668  0.00  0.00    +0.000 OA
ATOM     23  N   UNL     1      10.112  11.442  19.030  0.00  0.00    +0.000 N 
ATOM     24  H   UNL     1      10.685  10.810  19.558  0.00  0.00    +0.000 HD
BRANCH  23  25
ATOM     25  C   UNL     1      10.463  12.866  18.913  0.00  0.00    +0.000 C 
ATOM     26  C   UNL     1      11.855  13.123  19.548  0.00  0.00    +0.000 C 
ATOM     27  C   UNL     1      12.245  14.601  19.434  0.00  0.00    +0.000 C 
ATOM     28  C   UNL     1      12.292  14.993  17.951  0.00  0.00    +0.000 C 
ATOM     29  C   UNL     1      10.914  14.780  17.304  0.00  0.00    +0.000 C 
ATOM     30  C   UNL     1       9.874  15.643  18.035  0.00  0.00    +0.000 C 
ATOM     31  C   UNL     1       9.815  15.248  19.517  0.00  0.00    +0.000 C 
ATOM     32  C   UNL     1      11.197  15.460  20.155  0.00  0.00    +0.000 C 
ATOM     33  C   UNL     1       9.425  13.770  19.627  0.00  0.00    +0.000 C 
ATOM     34  C   UNL     1      10.519  13.297  17.427  0.00  0.00    +0.000 C 
ENDBRANCH  23  25
ENDBRANCH  20  21
ENDBRANCH  19  20
ENDBRANCH  18  19
ENDBRANCH   1  18
TORSDOF 9
ENDMDL
MODEL 8
REMARK VINA RESULT:      -7.8      5.798      7.688
REMARK  Name = 
REMARK  9 active torsions:
REMARK  status: ('A' for Active; 'I' for Inactive)
REMARK    1  A    between atoms: C_2  and  C_3
REMARK    2  A    between atoms: C_3  and  O_4
REMARK    3  A    between atoms: O_4  and  C_5
REMARK    4  A    between atoms: C_5  and  C_6
REMARK    5  A    between atoms: C_6  and  O_7
REMARK    6  A    between atoms: O_7  and  C_8
REMARK    7  A    between atoms: C_8  and  C_9
REMARK    8  A    between atoms: N_11  and  C_12
REMARK    9  A    between atoms: N_22  and  C_23
REMARK                            x       y       z     vdW  Elec       q    Type
REMARK                         _______ _______ _______ _____ _____    ______ ____
ROOT
ATOM      1  C   UNL     1       6.984   7.703  17.760  0.00  0.00    +0.000 C 
ENDROOT
BRANCH   1   2
ATOM      2  O   UNL     1       7.890   8.735  17.417  0.00  0.00    +0.000 OA
BRANCH   2   3
ATOM      3  C   UNL     1       8.589   9.164  18.566  0.00  0.00    +0.000 C 
BRANCH   3   5
ATOM      4  O   UNL     1       9.962  10.865  17.637  0.00  0.00    +0.000 OA
ATOM      5  C   UNL     1       9.212  10.570  18.545  0.00  0.00    +0.000 C 
ATOM      6  N   UNL     1       8.860  11.439  19.543  0.00  0.00    +0.000 N 
ATOM      7  H   UNL     1       8.265  11.049  20.232  0.00  0.00    +0.000 HD
BRANCH   6   8
ATOM      8  C   UNL     1       9.342  12.836  19.736  0.00  0.00    +0.000 C 
ATOM      9  C   UNL     1       8.584  13.572  20.854  0.00  0.00    +0.000 C 
ATOM     10  C   UNL     1       9.096  15.027  20.976  0.00  0.00    +0.000 C 
ATOM     11  C   UNL     1      10.598  15.001  21.310  0.00  0.00    +0.000 C 
ATOM     12  C   UNL     1      11.388  14.269  20.214  0.00  0.00    +0.000 C 
ATOM     13  C   UNL     1      11.194  15.017  18.884  0.00  0.00    +0.000 C 
ATOM     14  C   UNL     1       9.706  15.086  18.551  0.00  0.00    +0.000 C 
ATOM     15  C   UNL     1       8.902  15.779  19.647  0.00  0.00    +0.000 C 
ATOM     16  C   UNL     1       9.193  13.658  18.445  0.00  0.00    +0.000 C 
ATOM     17  C   UNL     1      10.855  12.819  20.094  0.00  0.00    +0.000 C 
ENDBRANCH   6   8
ENDBRANCH   3   5
ENDBRANCH   2   3
ENDBRANCH   1   2
BRANCH   1  18
ATOM     18  C   UNL     1       7.749   6.431  17.551  0.00  0.00    +0.000 C 
BRANCH  18  19
ATOM     19  O   UNL     1       7.530   5.988  16.229  0.00  0.00    +0.000 OA
BRANCH  19  20
ATOM     20  C   UNL     1       7.162   4.623  16.236  0.00  0.00    +0.000 C 
BRANCH  20  21
ATOM     21  C   UNL     1       5.731   4.486  16.703  0.00  0.00    +0.000 C 
ATOM     22  O   UNL     1       4.821   4.953  15.971  0.00  0.00    +0.000 OA
ATOM     23  N   UNL     1       5.519   3.827  17.898  0.00  0.00    +0.000 N 
ATOM     24  H   UNL     1       6.323   3.496  18.398  0.00  0.00    +0.000 HD
BRANCH  23  25
ATOM     25  C   UNL     1       4.165   3.671  18.452  0.00  0.00    +0.000 C 
ATOM     26  C   UNL     1       4.237   2.992  19.846  0.00  0.00    +0.000 C 
ATOM     27  C   UNL     1       2.837   2.824  20.446  0.00  0.00    +0.000 C 
ATOM     28  C   UNL     1       2.187   4.206  20.597  0.00  0.00    +0.000 C 
ATOM     29  C   UNL     1       2.073   4.888  19.224  0.00  0.00    +0.000 C 
ATOM     30  C   UNL     1       1.218   4.013  18.295  0.00  0.00    +0.000 C 
ATOM     31  C   UNL     1       1.868   2.632  18.132  0.00  0.00    +0.000 C 
ATOM     32  C   UNL     1       1.983   1.959  19.509  0.00  0.00    +0.000 C 
ATOM     33  C   UNL     1       3.267   2.804  17.532  0.00  0.00    +0.000 C 
ATOM     34  C   UNL     1       3.479   5.049  18.617  0.00  0.00    +0.000 C 
ENDBRANCH  23  25
ENDBRANCH  20  21
ENDBRANCH  19  20
ENDBRANCH  18  19
ENDBRANCH   1  18
TORSDOF 9
ENDMDL
MODEL 9
REMARK VINA RESULT:      -7.8      6.197      8.209
REMARK  Name = 
REMARK  9 active torsions:
REMARK  status: ('A' for Active; 'I' for Inactive)
REMARK    1  A    between atoms: C_2  and  C_3
REMARK    2  A    between atoms: C_3  and  O_4
REMARK    3  A    between atoms: O_4  and  C_5
REMARK    4  A    between atoms: C_5  and  C_6
REMARK    5  A    between atoms: C_6  and  O_7
REMARK    6  A    between atoms: O_7  and  C_8
REMARK    7  A    between atoms: C_8  and  C_9
REMARK    8  A    between atoms: N_11  and  C_12
REMARK    9  A    between atoms: N_22  and  C_23
REMARK                            x       y       z     vdW  Elec       q    Type
REMARK                         _______ _______ _______ _____ _____    ______ ____
ROOT
ATOM      1  C   UNL     1       8.263   7.605  18.597  0.00  0.00    +0.000 C 
ENDROOT
BRANCH   1   2
ATOM      2  O   UNL     1       8.890   8.786  19.061  0.00  0.00    +0.000 OA
BRANCH   2   3
ATOM      3  C   UNL     1       8.567   9.868  18.213  0.00  0.00    +0.000 C 
BRANCH   3   5
ATOM      4  O   UNL     1      10.633  10.949  17.760  0.00  0.00    +0.000 OA
ATOM      5  C   UNL     1       9.511  11.082  18.206  0.00  0.00    +0.000 C 
ATOM      6  N   UNL     1       9.024  12.272  18.676  0.00  0.00    +0.000 N 
ATOM      7  H   UNL     1       8.103  12.222  19.037  0.00  0.00    +0.000 HD
BRANCH   6   8
ATOM      8  C   UNL     1       9.752  13.568  18.779  0.00  0.00    +0.000 C 
ATOM      9  C   UNL     1      10.807  13.565  19.898  0.00  0.00    +0.000 C 
ATOM     10  C   UNL     1      11.496  14.948  19.985  0.00  0.00    +0.000 C 
ATOM     11  C   UNL     1      12.180  15.250  18.641  0.00  0.00    +0.000 C 
ATOM     12  C   UNL     1      11.154  15.258  17.496  0.00  0.00    +0.000 C 
ATOM     13  C   UNL     1      10.114  16.357  17.775  0.00  0.00    +0.000 C 
ATOM     14  C   UNL     1       9.448  16.097  19.124  0.00  0.00    +0.000 C 
ATOM     15  C   UNL     1      10.458  16.050  20.266  0.00  0.00    +0.000 C 
ATOM     16  C   UNL     1       8.781  14.730  19.049  0.00  0.00    +0.000 C 
ATOM     17  C   UNL     1      10.464  13.873  17.431  0.00  0.00    +0.000 C 
ENDBRANCH   6   8
ENDBRANCH   3   5
ENDBRANCH   2   3
ENDBRANCH   1   2
BRANCH   1  18
ATOM     18  C   UNL     1       7.686   7.971  17.263  0.00  0.00    +0.000 C 
BRANCH  18  19
ATOM     19  O   UNL     1       6.894   6.895  16.808  0.00  0.00    +0.000 OA
BRANCH  19  20
ATOM     20  C   UNL     1       5.550   7.089  17.200  0.00  0.00    +0.000 C 
BRANCH  20  21
ATOM     21  C   UNL     1       4.975   5.786  17.705  0.00  0.00    +0.000 C 
ATOM     22  O   UNL     1       5.638   4.733  17.517  0.00  0.00    +0.000 OA
ATOM     23  N   UNL     1       3.765   5.846  18.367  0.00  0.00    +0.000 N 
ATOM     24  H   UNL     1       3.325   6.743  18.457  0.00  0.00    +0.000 HD
BRANCH  23  25
ATOM     25  C   UNL     1       3.109   4.627  18.866  0.00  0.00    +0.000 C 
ATOM     26  C   UNL     1       2.549   3.801  17.678  0.00  0.00    +0.000 C 
ATOM     27  C   UNL     1       1.863   2.523  18.174  0.00  0.00    +0.000 C 
ATOM     28  C   UNL     1       2.886   1.671  18.938  0.00  0.00    +0.000 C 
ATOM     29  C   UNL     1       3.432   2.454  20.142  0.00  0.00    +0.000 C 
ATOM     30  C   UNL     1       2.268   2.825  21.074  0.00  0.00    +0.000 C 
ATOM     31  C   UNL     1       1.246   3.686  20.318  0.00  0.00    +0.000 C 
ATOM     32  C   UNL     1       0.709   2.898  19.114  0.00  0.00    +0.000 C 
ATOM     33  C   UNL     1       1.935   4.963  19.824  0.00  0.00    +0.000 C 
ATOM     34  C   UNL     1       4.113   3.742  19.644  0.00  0.00    +0.000 C 
ENDBRANCH  23  25
ENDBRANCH  20  21
ENDBRANCH  19  20
ENDBRANCH  18  19
ENDBRANCH   1  18
TORSDOF 9
ENDMDL
