MODEL 1
REMARK VINA RESULT:      -5.8      0.000      0.000
REMARK  Name = 
REMARK  4 active torsions:
REMARK  status: ('A' for Active; 'I' for Inactive)
REMARK    1  A    between atoms: N_1  and  N_2
REMARK    2  A    between atoms: N_2  and  C_3
REMARK    3  A    between atoms: C_3  and  N_5
REMARK    4  A    between atoms: N_5  and  C_6
REMARK                            x       y       z     vdW  Elec       q    Type
REMARK                         _______ _______ _______ _____ _____    ______ ____
ROOT
ATOM      1  N   UNL     1       5.617   3.618  16.809  0.00  0.00    +0.000 N 
ATOM      2  H   UNL     1       6.058   2.926  17.408  0.00  0.00    +0.000 HD
ENDROOT
BRANCH   1   3
ATOM      3  C   UNL     1       4.421   4.207  17.255  0.00  0.00    +0.000 A 
ATOM      4  C   UNL     1       3.256   3.431  17.207  0.00  0.00    +0.000 A 
ATOM      5  C   UNL     1       2.034   3.966  17.622  0.00  0.00    +0.000 A 
ATOM      6  C   UNL     1       1.958   5.291  18.055  0.00  0.00    +0.000 A 
ATOM      7  C   UNL     1       3.104   6.085  18.056  0.00  0.00    +0.000 A 
ATOM      8  C   UNL     1       4.321   5.545  17.651  0.00  0.00    +0.000 A 
ATOM      9  F   UNL     1       5.369   6.377  17.547  0.00  0.00    +0.000 F 
ENDBRANCH   1   3
BRANCH   1  10
ATOM     10  C   UNL     1       6.485   4.053  15.828  0.00  0.00    +0.000 C 
ATOM     11  S   UNL     1       6.209   4.183  14.188  0.00  0.00    +0.000 S 
BRANCH  10  12
ATOM     12  N   UNL     1       7.693   4.494  16.345  0.00  0.00    +0.000 N 
ATOM     13  H   UNL     1       8.346   4.925  15.689  0.00  0.00    +0.000 HD
BRANCH  12  14
ATOM     14  N   UNL     1       8.102   4.154  17.654  0.00  0.00    +0.000 NA
ATOM     15  H   UNL     1       7.354   3.606  18.089  0.00  0.00    +0.000 HD
ATOM     16  H   UNL     1       8.116   5.024  18.202  0.00  0.00    +0.000 HD
ENDBRANCH  12  14
ENDBRANCH  10  12
ENDBRANCH   1  10
TORSDOF 4
ENDMDL
MODEL 2
REMARK VINA RESULT:      -5.8      2.750      3.144
REMARK  Name = 
REMARK  4 active torsions:
REMARK  status: ('A' for Active; 'I' for Inactive)
REMARK    1  A    between atoms: N_1  and  N_2
REMARK    2  A    between atoms: N_2  and  C_3
REMARK    3  A    between atoms: C_3  and  N_5
REMARK    4  A    between atoms: N_5  and  C_6
REMARK                            x       y       z     vdW  Elec       q    Type
REMARK                         _______ _______ _______ _____ _____    ______ ____
ROOT
ATOM      1  N   UNL     1       4.257   3.107  18.169  0.00  0.00    +0.000 N 
ATOM      2  H   UNL     1       4.560   2.190  17.852  0.00  0.00    +0.000 HD
ENDROOT
BRANCH   1   3
ATOM      3  C   UNL     1       3.243   3.164  19.141  0.00  0.00    +0.000 A 
ATOM      4  C   UNL     1       3.528   2.645  20.410  0.00  0.00    +0.000 A 
ATOM      5  C   UNL     1       2.554   2.659  21.412  0.00  0.00    +0.000 A 
ATOM      6  C   UNL     1       1.279   3.161  21.148  0.00  0.00    +0.000 A 
ATOM      7  C   UNL     1       0.974   3.631  19.871  0.00  0.00    +0.000 A 
ATOM      8  C   UNL     1       1.947   3.624  18.878  0.00  0.00    +0.000 A 
ATOM      9  F   UNL     1       1.575   3.966  17.635  0.00  0.00    +0.000 F 
ENDBRANCH   1   3
BRANCH   1  10
ATOM     10  C   UNL     1       5.153   4.085  17.792  0.00  0.00    +0.000 C 
ATOM     11  S   UNL     1       4.952   5.290  16.656  0.00  0.00    +0.000 S 
BRANCH  10  12
ATOM     12  N   UNL     1       6.318   4.057  18.543  0.00  0.00    +0.000 N 
ATOM     13  H   UNL     1       6.214   4.026  19.557  0.00  0.00    +0.000 HD
BRANCH  12  14
ATOM     14  N   UNL     1       7.581   4.298  17.954  0.00  0.00    +0.000 NA
ATOM     15  H   UNL     1       7.474   4.235  16.937  0.00  0.00    +0.000 HD
ATOM     16  H   UNL     1       8.180   3.496  18.186  0.00  0.00    +0.000 HD
ENDBRANCH  12  14
ENDBRANCH  10  12
ENDBRANCH   1  10
TORSDOF 4
ENDMDL
MODEL 3
REMARK VINA RESULT:      -5.8      1.809      1.969
REMARK  Name = 
REMARK  4 active torsions:
REMARK  status: ('A' for Active; 'I' for Inactive)
REMARK    1  A    between atoms: N_1  and  N_2
REMARK    2  A    between atoms: N_2  and  C_3
REMARK    3  A    between atoms: C_3  and  N_5
REMARK    4  A    between atoms: N_5  and  C_6
REMARK                            x       y       z     vdW  Elec       q    Type
REMARK                         _______ _______ _______ _____ _____    ______ ____
ROOT
ATOM      1  N   UNL     1       5.910   3.908  18.528  0.00  0.00    +0.000 N 
ATOM      2  H   UNL     1       6.271   3.356  19.300  0.00  0.00    +0.000 HD
ENDROOT
BRANCH   1   3
ATOM      3  C   UNL     1       4.515   3.999  18.379  0.00  0.00    +0.000 A 
ATOM      4  C   UNL     1       3.905   3.165  17.434  0.00  0.00    +0.000 A 
ATOM      5  C   UNL     1       2.524   3.222  17.230  0.00  0.00    +0.000 A 
ATOM      6  C   UNL     1       1.744   4.134  17.944  0.00  0.00    +0.000 A 
ATOM      7  C   UNL     1       2.353   5.003  18.849  0.00  0.00    +0.000 A 
ATOM      8  C   UNL     1       3.727   4.938  19.056  0.00  0.00    +0.000 A 
ATOM      9  F   UNL     1       4.287   5.874  19.838  0.00  0.00    +0.000 F 
ENDBRANCH   1   3
BRANCH   1  10
ATOM     10  C   UNL     1       6.894   4.710  17.987  0.00  0.00    +0.000 C 
ATOM     11  S   UNL     1       6.898   5.490  16.512  0.00  0.00    +0.000 S 
BRANCH  10  12
ATOM     12  N   UNL     1       7.951   4.915  18.860  0.00  0.00    +0.000 N 
ATOM     13  H   UNL     1       8.850   4.509  18.601  0.00  0.00    +0.000 HD
BRANCH  12  14
ATOM     14  N   UNL     1       7.745   5.449  20.153  0.00  0.00    +0.000 NA
ATOM     15  H   UNL     1       8.615   5.899  20.453  0.00  0.00    +0.000 HD
ATOM     16  H   UNL     1       7.648   4.653  20.796  0.00  0.00    +0.000 HD
ENDBRANCH  12  14
ENDBRANCH  10  12
ENDBRANCH   1  10
TORSDOF 4
ENDMDL
MODEL 4
REMARK VINA RESULT:      -5.8      2.489      2.981
REMARK  Name = 
REMARK  4 active torsions:
REMARK  status: ('A' for Active; 'I' for Inactive)
REMARK    1  A    between atoms: N_1  and  N_2
REMARK    2  A    between atoms: N_2  and  C_3
REMARK    3  A    between atoms: C_3  and  N_5
REMARK    4  A    between atoms: N_5  and  C_6
REMARK                            x       y       z     vdW  Elec       q    Type
REMARK                         _______ _______ _______ _____ _____    ______ ____
ROOT
ATOM      1  N   UNL     1       4.652   3.378  18.026  0.00  0.00    +0.000 N 
ATOM      2  H   UNL     1       5.135   2.485  18.046  0.00  0.00    +0.000 HD
ENDROOT
BRANCH   1   3
ATOM      3  C   UNL     1       3.406   3.467  18.671  0.00  0.00    +0.000 A 
ATOM      4  C   UNL     1       3.316   4.288  19.802  0.00  0.00    +0.000 A 
ATOM      5  C   UNL     1       2.108   4.404  20.494  0.00  0.00    +0.000 A 
ATOM      6  C   UNL     1       0.989   3.677  20.085  0.00  0.00    +0.000 A 
ATOM      7  C   UNL     1       1.087   2.817  18.992  0.00  0.00    +0.000 A 
ATOM      8  C   UNL     1       2.289   2.710  18.299  0.00  0.00    +0.000 A 
ATOM      9  F   UNL     1       2.374   1.780  17.335  0.00  0.00    +0.000 F 
ENDBRANCH   1   3
BRANCH   1  10
ATOM     10  C   UNL     1       5.500   4.393  17.634  0.00  0.00    +0.000 C 
ATOM     11  S   UNL     1       5.146   5.742  16.718  0.00  0.00    +0.000 S 
BRANCH  10  12
ATOM     12  N   UNL     1       6.773   4.256  18.166  0.00  0.00    +0.000 N 
ATOM     13  H   UNL     1       6.868   4.373  19.176  0.00  0.00    +0.000 HD
BRANCH  12  14
ATOM     14  N   UNL     1       7.916   4.198  17.336  0.00  0.00    +0.000 NA
ATOM     15  H   UNL     1       7.959   3.263  16.919  0.00  0.00    +0.000 HD
ATOM     16  H   UNL     1       8.738   4.227  17.952  0.00  0.00    +0.000 HD
ENDBRANCH  12  14
ENDBRANCH  10  12
ENDBRANCH   1  10
TORSDOF 4
ENDMDL
MODEL 5
REMARK VINA RESULT:      -5.7      2.295      2.741
REMARK  Name = 
REMARK  4 active torsions:
REMARK  status: ('A' for Active; 'I' for Inactive)
REMARK    1  A    between atoms: N_1  and  N_2
REMARK    2  A    between atoms: N_2  and  C_3
REMARK    3  A    between atoms: C_3  and  N_5
REMARK    4  A    between atoms: N_5  and  C_6
REMARK                            x       y       z     vdW  Elec       q    Type
REMARK                         _______ _______ _______ _____ _____    ______ ____
ROOT
ATOM      1  N   UNL     1       5.938   3.882  18.218  0.00  0.00    +0.000 N 
ATOM      2  H   UNL     1       6.229   3.123  18.828  0.00  0.00    +0.000 HD
ENDROOT
BRANCH   1   3
ATOM      3  C   UNL     1       4.559   4.092  18.041  0.00  0.00    +0.000 A 
ATOM      4  C   UNL     1       4.061   5.379  18.280  0.00  0.00    +0.000 A 
ATOM      5  C   UNL     1       2.697   5.644  18.137  0.00  0.00    +0.000 A 
ATOM      6  C   UNL     1       1.814   4.622  17.787  0.00  0.00    +0.000 A 
ATOM      7  C   UNL     1       2.296   3.327  17.599  0.00  0.00    +0.000 A 
ATOM      8  C   UNL     1       3.656   3.068  17.734  0.00  0.00    +0.000 A 
ATOM      9  F   UNL     1       4.058   1.789  17.669  0.00  0.00    +0.000 F 
ENDBRANCH   1   3
BRANCH   1  10
ATOM     10  C   UNL     1       6.987   4.739  17.956  0.00  0.00    +0.000 C 
ATOM     11  S   UNL     1       7.729   5.814  18.994  0.00  0.00    +0.000 S 
BRANCH  10  12
ATOM     12  N   UNL     1       7.492   4.584  16.674  0.00  0.00    +0.000 N 
ATOM     13  H   UNL     1       8.086   3.771  16.506  0.00  0.00    +0.000 HD
BRANCH  12  14
ATOM     14  N   UNL     1       7.392   5.616  15.713  0.00  0.00    +0.000 NA
ATOM     15  H   UNL     1       6.659   6.264  16.017  0.00  0.00    +0.000 HD
ATOM     16  H   UNL     1       7.005   5.195  14.858  0.00  0.00    +0.000 HD
ENDBRANCH  12  14
ENDBRANCH  10  12
ENDBRANCH   1  10
TORSDOF 4
ENDMDL
MODEL 6
REMARK VINA RESULT:      -5.6      1.952      2.201
REMARK  Name = 
REMARK  4 active torsions:
REMARK  status: ('A' for Active; 'I' for Inactive)
REMARK    1  A    between atoms: N_1  and  N_2
REMARK    2  A    between atoms: N_2  and  C_3
REMARK    3  A    between atoms: C_3  and  N_5
REMARK    4  A    between atoms: N_5  and  C_6
REMARK                            x       y       z     vdW  Elec       q    Type
REMARK                         _______ _______ _______ _____ _____    ______ ____
ROOT
ATOM      1  N   UNL     1       5.608   3.968  17.674  0.00  0.00    +0.000 N 
ATOM      2  H   UNL     1       6.149   3.151  17.407  0.00  0.00    +0.000 HD
ENDROOT
BRANCH   1   3
ATOM      3  C   UNL     1       4.221   3.813  17.840  0.00  0.00    +0.000 A 
ATOM      4  C   UNL     1       3.734   2.520  18.074  0.00  0.00    +0.000 A 
ATOM      5  C   UNL     1       2.363   2.301  18.230  0.00  0.00    +0.000 A 
ATOM      6  C   UNL     1       1.464   3.363  18.122  0.00  0.00    +0.000 A 
ATOM      7  C   UNL     1       1.938   4.643  17.837  0.00  0.00    +0.000 A 
ATOM      8  C   UNL     1       3.304   4.860  17.690  0.00  0.00    +0.000 A 
ATOM      9  F   UNL     1       3.705   6.077  17.293  0.00  0.00    +0.000 F 
ENDBRANCH   1   3
BRANCH   1  10
ATOM     10  C   UNL     1       6.428   4.981  18.126  0.00  0.00    +0.000 C 
ATOM     11  S   UNL     1       7.127   6.216  17.249  0.00  0.00    +0.000 S 
BRANCH  10  12
ATOM     12  N   UNL     1       6.589   4.959  19.503  0.00  0.00    +0.000 N 
ATOM     13  H   UNL     1       5.765   4.733  20.061  0.00  0.00    +0.000 HD
BRANCH  12  14
ATOM     14  N   UNL     1       7.762   5.456  20.116  0.00  0.00    +0.000 NA
ATOM     15  H   UNL     1       8.533   4.820  19.890  0.00  0.00    +0.000 HD
ATOM     16  H   UNL     1       7.644   5.343  21.131  0.00  0.00    +0.000 HD
ENDBRANCH  12  14
ENDBRANCH  10  12
ENDBRANCH   1  10
TORSDOF 4
ENDMDL
MODEL 7
REMARK VINA RESULT:      -5.6      2.849      3.335
REMARK  Name = 
REMARK  4 active torsions:
REMARK  status: ('A' for Active; 'I' for Inactive)
REMARK    1  A    between atoms: N_1  and  N_2
REMARK    2  A    between atoms: N_2  and  C_3
REMARK    3  A    between atoms: C_3  and  N_5
REMARK    4  A    between atoms: N_5  and  C_6
REMARK                            x       y       z     vdW  Elec       q    Type
REMARK                         _______ _______ _______ _____ _____    ______ ____
ROOT
ATOM      1  N   UNL     1       5.197   3.556  19.112  0.00  0.00    +0.000 N 
ATOM      2  H   UNL     1       5.834   3.005  19.679  0.00  0.00    +0.000 HD
ENDROOT
BRANCH   1   3
ATOM      3  C   UNL     1       3.817   3.350  19.284  0.00  0.00    +0.000 A 
ATOM      4  C   UNL     1       3.139   4.193  20.174  0.00  0.00    +0.000 A 
ATOM      5  C   UNL     1       1.771   4.027  20.399  0.00  0.00    +0.000 A 
ATOM      6  C   UNL     1       1.073   2.998  19.764  0.00  0.00    +0.000 A 
ATOM      7  C   UNL     1       1.753   2.123  18.918  0.00  0.00    +0.000 A 
ATOM      8  C   UNL     1       3.114   2.297  18.689  0.00  0.00    +0.000 A 
ATOM      9  F   UNL     1       3.752   1.359  17.970  0.00  0.00    +0.000 F 
ENDBRANCH   1   3
BRANCH   1  10
ATOM     10  C   UNL     1       5.848   4.621  18.524  0.00  0.00    +0.000 C 
ATOM     11  S   UNL     1       5.212   5.804  17.535  0.00  0.00    +0.000 S 
BRANCH  10  12
ATOM     12  N   UNL     1       7.178   4.707  18.906  0.00  0.00    +0.000 N 
ATOM     13  H   UNL     1       7.830   4.061  18.458  0.00  0.00    +0.000 HD
BRANCH  12  14
ATOM     14  N   UNL     1       7.576   5.475  20.024  0.00  0.00    +0.000 NA
ATOM     15  H   UNL     1       6.748   5.949  20.395  0.00  0.00    +0.000 HD
ATOM     16  H   UNL     1       8.158   6.245  19.669  0.00  0.00    +0.000 HD
ENDBRANCH  12  14
ENDBRANCH  10  12
ENDBRANCH   1  10
TORSDOF 4
ENDMDL
MODEL 8
REMARK VINA RESULT:      -5.6      0.918      1.158
REMARK  Name = 
REMARK  4 active torsions:
REMARK  status: ('A' for Active; 'I' for Inactive)
REMARK    1  A    between atoms: N_1  and  N_2
REMARK    2  A    between atoms: N_2  and  C_3
REMARK    3  A    between atoms: C_3  and  N_5
REMARK    4  A    between atoms: N_5  and  C_6
REMARK                            x       y       z     vdW  Elec       q    Type
REMARK                         _______ _______ _______ _____ _____    ______ ____
ROOT
ATOM      1  N   UNL     1       5.769   3.923  17.355  0.00  0.00    +0.000 N 
ATOM      2  H   UNL     1       6.381   3.800  18.156  0.00  0.00    +0.000 HD
ENDROOT
BRANCH   1   3
ATOM      3  C   UNL     1       4.384   3.990  17.590  0.00  0.00    +0.000 A 
ATOM      4  C   UNL     1       3.661   2.792  17.561  0.00  0.00    +0.000 A 
ATOM      5  C   UNL     1       2.279   2.797  17.771  0.00  0.00    +0.000 A 
ATOM      6  C   UNL     1       1.604   4.000  17.978  0.00  0.00    +0.000 A 
ATOM      7  C   UNL     1       2.311   5.202  17.955  0.00  0.00    +0.000 A 
ATOM      8  C   UNL     1       3.688   5.193  17.755  0.00  0.00    +0.000 A 
ATOM      9  F   UNL     1       4.307   6.375  17.614  0.00  0.00    +0.000 F 
ENDBRANCH   1   3
BRANCH   1  10
ATOM     10  C   UNL     1       6.480   4.320  16.241  0.00  0.00    +0.000 C 
ATOM     11  S   UNL     1       6.146   4.010  14.636  0.00  0.00    +0.000 S 
BRANCH  10  12
ATOM     12  N   UNL     1       7.551   5.141  16.559  0.00  0.00    +0.000 N 
ATOM     13  H   UNL     1       8.356   4.700  17.004  0.00  0.00    +0.000 HD
BRANCH  12  14
ATOM     14  N   UNL     1       7.444   6.550  16.495  0.00  0.00    +0.000 NA
ATOM     15  H   UNL     1       6.684   6.782  15.848  0.00  0.00    +0.000 HD
ATOM     16  H   UNL     1       8.285   6.894  16.015  0.00  0.00    +0.000 HD
ENDBRANCH  12  14
ENDBRANCH  10  12
ENDBRANCH   1  10
TORSDOF 4
ENDMDL
MODEL 9
REMARK VINA RESULT:      -5.6      2.474      2.857
REMARK  Name = 
REMARK  4 active torsions:
REMARK  status: ('A' for Active; 'I' for Inactive)
REMARK    1  A    between atoms: N_1  and  N_2
REMARK    2  A    between atoms: N_2  and  C_3
REMARK    3  A    between atoms: C_3  and  N_5
REMARK    4  A    between atoms: N_5  and  C_6
REMARK                            x       y       z     vdW  Elec       q    Type
REMARK                         _______ _______ _______ _____ _____    ______ ____
ROOT
ATOM      1  N   UNL     1       5.645   3.829  17.873  0.00  0.00    +0.000 N 
ATOM      2  H   UNL     1       6.204   3.030  17.590  0.00  0.00    +0.000 HD
ENDROOT
BRANCH   1   3
ATOM      3  C   UNL     1       4.283   3.615  18.149  0.00  0.00    +0.000 A 
ATOM      4  C   UNL     1       3.350   4.418  17.481  0.00  0.00    +0.000 A 
ATOM      5  C   UNL     1       1.983   4.262  17.726  0.00  0.00    +0.000 A 
ATOM      6  C   UNL     1       1.538   3.328  18.662  0.00  0.00    +0.000 A 
ATOM      7  C   UNL     1       2.465   2.562  19.368  0.00  0.00    +0.000 A 
ATOM      8  C   UNL     1       3.825   2.713  19.116  0.00  0.00    +0.000 A 
ATOM      9  F   UNL     1       4.684   2.050  19.905  0.00  0.00    +0.000 F 
ENDBRANCH   1   3
BRANCH   1  10
ATOM     10  C   UNL     1       6.446   4.894  18.232  0.00  0.00    +0.000 C 
ATOM     11  S   UNL     1       7.082   6.086  17.254  0.00  0.00    +0.000 S 
BRANCH  10  12
ATOM     12  N   UNL     1       6.645   4.970  19.602  0.00  0.00    +0.000 N 
ATOM     13  H   UNL     1       5.838   4.783  20.198  0.00  0.00    +0.000 HD
BRANCH  12  14
ATOM     14  N   UNL     1       7.834   5.509  20.145  0.00  0.00    +0.000 NA
ATOM     15  H   UNL     1       8.389   5.894  19.375  0.00  0.00    +0.000 HD
ATOM     16  H   UNL     1       8.399   4.718  20.480  0.00  0.00    +0.000 HD
ENDBRANCH  12  14
ENDBRANCH  10  12
ENDBRANCH   1  10
TORSDOF 4
ENDMDL
