MODEL 1
REMARK VINA RESULT:      -6.8      0.000      0.000
REMARK  Name = 
REMARK  7 active torsions:
REMARK  status: ('A' for Active; 'I' for Inactive)
REMARK    1  A    between atoms: C_2  and  C_3
REMARK    2  A    between atoms: C_3  and  S_4
REMARK    3  A    between atoms: S_4  and  C_5
REMARK    4  A    between atoms: C_5  and  C_6
REMARK    5  A    between atoms: C_6  and  C_7
REMARK    6  A    between atoms: C_7  and  N_8
REMARK    7  A    between atoms: C_12  and  C_14
REMARK                            x       y       z     vdW  Elec       q    Type
REMARK                         _______ _______ _______ _____ _____    ______ ____
ROOT
ATOM      1  N   UNL     1       5.966   6.585  16.433  0.00  0.00    +0.000 NA
ATOM      2  C   UNL     1       5.589   5.383  15.651  0.00  0.00    +0.000 C 
ATOM      3  C   UNL     1       5.516   4.076  16.466  0.00  0.00    +0.000 C 
ATOM      4  N   UNL     1       4.656   4.220  17.647  0.00  0.00    +0.000 N 
ATOM      5  C   UNL     1       3.798   3.164  17.974  0.00  0.00    +0.000 C 
ATOM      6  O   UNL     1       3.692   2.163  17.266  0.00  0.00    +0.000 OA
ATOM      7  C   UNL     1       4.886   5.444  18.429  0.00  0.00    +0.000 C 
ATOM      8  C   UNL     1       5.012   6.704  17.555  0.00  0.00    +0.000 C 
ENDROOT
BRANCH   5   9
ATOM      9  C   UNL     1       2.963   3.231  19.199  0.00  0.00    +0.000 A 
ATOM     10  C   UNL     1       1.740   3.915  19.223  0.00  0.00    +0.000 A 
ATOM     11  C   UNL     1       0.915   3.851  20.347  0.00  0.00    +0.000 A 
ATOM     12  C   UNL     1       1.351   3.188  21.493  0.00  0.00    +0.000 A 
ATOM     13  C   UNL     1       2.614   2.599  21.515  0.00  0.00    +0.000 A 
ATOM     14  C   UNL     1       3.410   2.612  20.369  0.00  0.00    +0.000 A 
ATOM     15  F   UNL     1       4.595   1.989  20.422  0.00  0.00    +0.000 F 
ENDBRANCH   5   9
BRANCH   1  16
ATOM     16  C   UNL     1       7.354   6.563  16.921  0.00  0.00    +0.000 C 
BRANCH  16  17
ATOM     17  C   UNL     1       7.591   7.547  18.073  0.00  0.00    +0.000 C 
BRANCH  17  18
ATOM     18  C   UNL     1       8.093   8.893  17.555  0.00  0.00    +0.000 C 
BRANCH  18  19
ATOM     19  S   UNL     1       8.965   9.745  18.913  0.00  0.00    +0.000 S 
BRANCH  19  20
ATOM     20  C   UNL     1       9.663  11.160  18.001  0.00  0.00    +0.000 C 
BRANCH  20  22
ATOM     21  N   UNL     1       7.960  13.104  17.526  0.00  0.00    +0.000 NA
ATOM     22  C   UNL     1       8.708  12.243  17.750  0.00  0.00    +0.000 C 
ENDBRANCH  20  22
ENDBRANCH  19  20
ENDBRANCH  18  19
ENDBRANCH  17  18
ENDBRANCH  16  17
ENDBRANCH   1  16
TORSDOF 7
ENDMDL
MODEL 2
REMARK VINA RESULT:      -6.7      4.018      5.988
REMARK  Name = 
REMARK  7 active torsions:
REMARK  status: ('A' for Active; 'I' for Inactive)
REMARK    1  A    between atoms: C_2  and  C_3
REMARK    2  A    between atoms: C_3  and  S_4
REMARK    3  A    between atoms: S_4  and  C_5
REMARK    4  A    between atoms: C_5  and  C_6
REMARK    5  A    between atoms: C_6  and  C_7
REMARK    6  A    between atoms: C_7  and  N_8
REMARK    7  A    between atoms: C_12  and  C_14
REMARK                            x       y       z     vdW  Elec       q    Type
REMARK                         _______ _______ _______ _____ _____    ______ ____
ROOT
ATOM      1  N   UNL     1       6.485   5.119  15.930  0.00  0.00    +0.000 NA
ATOM      2  C   UNL     1       6.128   6.398  16.590  0.00  0.00    +0.000 C 
ATOM      3  C   UNL     1       4.615   6.666  16.709  0.00  0.00    +0.000 C 
ATOM      4  N   UNL     1       3.911   5.541  17.337  0.00  0.00    +0.000 N 
ATOM      5  C   UNL     1       2.904   5.826  18.267  0.00  0.00    +0.000 C 
ATOM      6  O   UNL     1       2.648   6.975  18.622  0.00  0.00    +0.000 OA
ATOM      7  C   UNL     1       4.283   4.217  16.817  0.00  0.00    +0.000 C 
ATOM      8  C   UNL     1       5.803   4.033  16.664  0.00  0.00    +0.000 C 
ENDROOT
BRANCH   5   9
ATOM      9  C   UNL     1       2.115   4.726  18.874  0.00  0.00    +0.000 A 
ATOM     10  C   UNL     1       1.419   3.795  18.091  0.00  0.00    +0.000 A 
ATOM     11  C   UNL     1       0.795   2.697  18.685  0.00  0.00    +0.000 A 
ATOM     12  C   UNL     1       0.772   2.575  20.073  0.00  0.00    +0.000 A 
ATOM     13  C   UNL     1       1.367   3.557  20.864  0.00  0.00    +0.000 A 
ATOM     14  C   UNL     1       2.043   4.621  20.265  0.00  0.00    +0.000 A 
ATOM     15  F   UNL     1       2.643   5.512  21.067  0.00  0.00    +0.000 F 
ENDBRANCH   5   9
BRANCH   1  16
ATOM     16  C   UNL     1       6.151   5.079  14.498  0.00  0.00    +0.000 C 
BRANCH  16  17
ATOM     17  C   UNL     1       6.241   3.665  13.910  0.00  0.00    +0.000 C 
BRANCH  17  18
ATOM     18  C   UNL     1       6.601   3.705  12.427  0.00  0.00    +0.000 C 
BRANCH  18  19
ATOM     19  S   UNL     1       5.546   2.505  11.544  0.00  0.00    +0.000 S 
BRANCH  19  20
ATOM     20  C   UNL     1       3.959   3.400  11.570  0.00  0.00    +0.000 C 
BRANCH  20  22
ATOM     21  N   UNL     1       2.920   3.858   9.199  0.00  0.00    +0.000 NA
ATOM     22  C   UNL     1       3.394   3.656  10.242  0.00  0.00    +0.000 C 
ENDBRANCH  20  22
ENDBRANCH  19  20
ENDBRANCH  18  19
ENDBRANCH  17  18
ENDBRANCH  16  17
ENDBRANCH   1  16
TORSDOF 7
ENDMDL
MODEL 3
REMARK VINA RESULT:      -6.7      3.757      5.617
REMARK  Name = 
REMARK  7 active torsions:
REMARK  status: ('A' for Active; 'I' for Inactive)
REMARK    1  A    between atoms: C_2  and  C_3
REMARK    2  A    between atoms: C_3  and  S_4
REMARK    3  A    between atoms: S_4  and  C_5
REMARK    4  A    between atoms: C_5  and  C_6
REMARK    5  A    between atoms: C_6  and  C_7
REMARK    6  A    between atoms: C_7  and  N_8
REMARK    7  A    between atoms: C_12  and  C_14
REMARK                            x       y       z     vdW  Elec       q    Type
REMARK                         _______ _______ _______ _____ _____    ______ ____
ROOT
ATOM      1  N   UNL     1       6.267   5.754  16.428  0.00  0.00    +0.000 NA
ATOM      2  C   UNL     1       5.733   6.990  17.051  0.00  0.00    +0.000 C 
ATOM      3  C   UNL     1       4.209   6.993  17.281  0.00  0.00    +0.000 C 
ATOM      4  N   UNL     1       3.768   5.803  18.019  0.00  0.00    +0.000 N 
ATOM      5  C   UNL     1       2.796   5.964  19.014  0.00  0.00    +0.000 C 
ATOM      6  O   UNL     1       2.363   7.071  19.333  0.00  0.00    +0.000 OA
ATOM      7  C   UNL     1       4.334   4.535  17.537  0.00  0.00    +0.000 C 
ATOM      8  C   UNL     1       5.847   4.613  17.268  0.00  0.00    +0.000 C 
ENDROOT
BRANCH   5   9
ATOM      9  C   UNL     1       2.265   4.783  19.738  0.00  0.00    +0.000 A 
ATOM     10  C   UNL     1       2.658   4.482  21.050  0.00  0.00    +0.000 A 
ATOM     11  C   UNL     1       2.045   3.442  21.751  0.00  0.00    +0.000 A 
ATOM     12  C   UNL     1       1.108   2.631  21.114  0.00  0.00    +0.000 A 
ATOM     13  C   UNL     1       0.792   2.856  19.775  0.00  0.00    +0.000 A 
ATOM     14  C   UNL     1       1.362   3.933  19.096  0.00  0.00    +0.000 A 
ATOM     15  F   UNL     1       0.989   4.139  17.825  0.00  0.00    +0.000 F 
ENDBRANCH   5   9
BRANCH   1  16
ATOM     16  C   UNL     1       5.843   5.565  15.031  0.00  0.00    +0.000 C 
BRANCH  16  17
ATOM     17  C   UNL     1       6.496   4.342  14.376  0.00  0.00    +0.000 C 
BRANCH  17  18
ATOM     18  C   UNL     1       7.500   4.759  13.305  0.00  0.00    +0.000 C 
BRANCH  18  19
ATOM     19  S   UNL     1       7.014   3.983  11.725  0.00  0.00    +0.000 S 
BRANCH  19  20
ATOM     20  C   UNL     1       5.549   3.047  12.270  0.00  0.00    +0.000 C 
BRANCH  20  22
ATOM     21  N   UNL     1       3.461   3.251  10.687  0.00  0.00    +0.000 NA
ATOM     22  C   UNL     1       4.392   3.170  11.378  0.00  0.00    +0.000 C 
ENDBRANCH  20  22
ENDBRANCH  19  20
ENDBRANCH  18  19
ENDBRANCH  17  18
ENDBRANCH  16  17
ENDBRANCH   1  16
TORSDOF 7
ENDMDL
MODEL 4
REMARK VINA RESULT:      -6.6      1.846      2.164
REMARK  Name = 
REMARK  7 active torsions:
REMARK  status: ('A' for Active; 'I' for Inactive)
REMARK    1  A    between atoms: C_2  and  C_3
REMARK    2  A    between atoms: C_3  and  S_4
REMARK    3  A    between atoms: S_4  and  C_5
REMARK    4  A    between atoms: C_5  and  C_6
REMARK    5  A    between atoms: C_6  and  C_7
REMARK    6  A    between atoms: C_7  and  N_8
REMARK    7  A    between atoms: C_12  and  C_14
REMARK                            x       y       z     vdW  Elec       q    Type
REMARK                         _______ _______ _______ _____ _____    ______ ____
ROOT
ATOM      1  N   UNL     1       6.485   6.345  16.616  0.00  0.00    +0.000 NA
ATOM      2  C   UNL     1       7.184   5.315  17.423  0.00  0.00    +0.000 C 
ATOM      3  C   UNL     1       6.528   5.003  18.782  0.00  0.00    +0.000 C 
ATOM      4  N   UNL     1       5.104   4.675  18.637  0.00  0.00    +0.000 N 
ATOM      5  C   UNL     1       4.585   3.624  19.402  0.00  0.00    +0.000 C 
ATOM      6  O   UNL     1       5.296   2.930  20.128  0.00  0.00    +0.000 OA
ATOM      7  C   UNL     1       4.350   5.586  17.762  0.00  0.00    +0.000 C 
ATOM      8  C   UNL     1       5.084   5.907  16.449  0.00  0.00    +0.000 C 
ENDROOT
BRANCH   5   9
ATOM      9  C   UNL     1       3.138   3.301  19.345  0.00  0.00    +0.000 A 
ATOM     10  C   UNL     1       2.210   3.912  20.200  0.00  0.00    +0.000 A 
ATOM     11  C   UNL     1       0.842   3.687  20.036  0.00  0.00    +0.000 A 
ATOM     12  C   UNL     1       0.396   2.772  19.084  0.00  0.00    +0.000 A 
ATOM     13  C   UNL     1       1.320   2.078  18.305  0.00  0.00    +0.000 A 
ATOM     14  C   UNL     1       2.683   2.351  18.429  0.00  0.00    +0.000 A 
ATOM     15  F   UNL     1       3.529   1.695  17.622  0.00  0.00    +0.000 F 
ENDBRANCH   5   9
BRANCH   1  16
ATOM     16  C   UNL     1       6.550   7.696  17.196  0.00  0.00    +0.000 C 
BRANCH  16  17
ATOM     17  C   UNL     1       7.962   8.072  17.661  0.00  0.00    +0.000 C 
BRANCH  17  18
ATOM     18  C   UNL     1       8.117   9.585  17.789  0.00  0.00    +0.000 C 
BRANCH  18  19
ATOM     19  S   UNL     1       9.299   9.933  19.135  0.00  0.00    +0.000 S 
BRANCH  19  20
ATOM     20  C   UNL     1      10.165  11.374  18.431  0.00  0.00    +0.000 C 
BRANCH  20  22
ATOM     21  N   UNL     1      12.268  12.154  19.801  0.00  0.00    +0.000 NA
ATOM     22  C   UNL     1      11.329  11.812  19.207  0.00  0.00    +0.000 C 
ENDBRANCH  20  22
ENDBRANCH  19  20
ENDBRANCH  18  19
ENDBRANCH  17  18
ENDBRANCH  16  17
ENDBRANCH   1  16
TORSDOF 7
ENDMDL
MODEL 5
REMARK VINA RESULT:      -6.6      1.677      1.999
REMARK  Name = 
REMARK  7 active torsions:
REMARK  status: ('A' for Active; 'I' for Inactive)
REMARK    1  A    between atoms: C_2  and  C_3
REMARK    2  A    between atoms: C_3  and  S_4
REMARK    3  A    between atoms: S_4  and  C_5
REMARK    4  A    between atoms: C_5  and  C_6
REMARK    5  A    between atoms: C_6  and  C_7
REMARK    6  A    between atoms: C_7  and  N_8
REMARK    7  A    between atoms: C_12  and  C_14
REMARK                            x       y       z     vdW  Elec       q    Type
REMARK                         _______ _______ _______ _____ _____    ______ ____
ROOT
ATOM      1  N   UNL     1       5.936   6.878  16.748  0.00  0.00    +0.000 NA
ATOM      2  C   UNL     1       5.777   5.658  15.919  0.00  0.00    +0.000 C 
ATOM      3  C   UNL     1       5.758   4.335  16.710  0.00  0.00    +0.000 C 
ATOM      4  N   UNL     1       4.767   4.363  17.793  0.00  0.00    +0.000 N 
ATOM      5  C   UNL     1       3.997   3.216  18.016  0.00  0.00    +0.000 C 
ATOM      6  O   UNL     1       4.076   2.224  17.292  0.00  0.00    +0.000 OA
ATOM      7  C   UNL     1       4.779   5.589  18.605  0.00  0.00    +0.000 C 
ATOM      8  C   UNL     1       4.861   6.873  17.760  0.00  0.00    +0.000 C 
ENDROOT
BRANCH   5   9
ATOM      9  C   UNL     1       3.033   3.169  19.144  0.00  0.00    +0.000 A 
ATOM     10  C   UNL     1       3.381   2.631  20.391  0.00  0.00    +0.000 A 
ATOM     11  C   UNL     1       2.499   2.720  21.469  0.00  0.00    +0.000 A 
ATOM     12  C   UNL     1       1.225   3.253  21.285  0.00  0.00    +0.000 A 
ATOM     13  C   UNL     1       0.833   3.689  20.020  0.00  0.00    +0.000 A 
ATOM     14  C   UNL     1       1.738   3.656  18.959  0.00  0.00    +0.000 A 
ATOM     15  F   UNL     1       1.331   4.133  17.774  0.00  0.00    +0.000 F 
ENDBRANCH   5   9
BRANCH   1  16
ATOM     16  C   UNL     1       7.258   6.993  17.383  0.00  0.00    +0.000 C 
BRANCH  16  17
ATOM     17  C   UNL     1       7.847   8.405  17.270  0.00  0.00    +0.000 C 
BRANCH  17  18
ATOM     18  C   UNL     1       8.515   8.831  18.575  0.00  0.00    +0.000 C 
BRANCH  18  19
ATOM     19  S   UNL     1       8.930  10.604  18.459  0.00  0.00    +0.000 S 
BRANCH  19  20
ATOM     20  C   UNL     1       9.880  10.807  20.001  0.00  0.00    +0.000 C 
BRANCH  20  22
ATOM     21  N   UNL     1       8.504  11.922  21.943  0.00  0.00    +0.000 NA
ATOM     22  C   UNL     1       9.125  11.427  21.094  0.00  0.00    +0.000 C 
ENDBRANCH  20  22
ENDBRANCH  19  20
ENDBRANCH  18  19
ENDBRANCH  17  18
ENDBRANCH  16  17
ENDBRANCH   1  16
TORSDOF 7
ENDMDL
MODEL 6
REMARK VINA RESULT:      -6.5      3.923      6.003
REMARK  Name = 
REMARK  7 active torsions:
REMARK  status: ('A' for Active; 'I' for Inactive)
REMARK    1  A    between atoms: C_2  and  C_3
REMARK    2  A    between atoms: C_3  and  S_4
REMARK    3  A    between atoms: S_4  and  C_5
REMARK    4  A    between atoms: C_5  and  C_6
REMARK    5  A    between atoms: C_6  and  C_7
REMARK    6  A    between atoms: C_7  and  N_8
REMARK    7  A    between atoms: C_12  and  C_14
REMARK                            x       y       z     vdW  Elec       q    Type
REMARK                         _______ _______ _______ _____ _____    ______ ____
ROOT
ATOM      1  N   UNL     1       7.209   4.933  15.637  0.00  0.00    +0.000 NA
ATOM      2  C   UNL     1       6.906   6.157  16.419  0.00  0.00    +0.000 C 
ATOM      3  C   UNL     1       5.405   6.478  16.564  0.00  0.00    +0.000 C 
ATOM      4  N   UNL     1       4.651   5.329  17.079  0.00  0.00    +0.000 N 
ATOM      5  C   UNL     1       3.654   5.565  18.033  0.00  0.00    +0.000 C 
ATOM      6  O   UNL     1       3.447   6.685  18.500  0.00  0.00    +0.000 OA
ATOM      7  C   UNL     1       4.967   4.046  16.433  0.00  0.00    +0.000 C 
ATOM      8  C   UNL     1       6.478   3.812  16.262  0.00  0.00    +0.000 C 
ENDROOT
BRANCH   5   9
ATOM      9  C   UNL     1       2.815   4.448  18.531  0.00  0.00    +0.000 A 
ATOM     10  C   UNL     1       1.476   4.299  18.144  0.00  0.00    +0.000 A 
ATOM     11  C   UNL     1       0.751   3.168  18.524  0.00  0.00    +0.000 A 
ATOM     12  C   UNL     1       1.325   2.227  19.377  0.00  0.00    +0.000 A 
ATOM     13  C   UNL     1       2.620   2.424  19.855  0.00  0.00    +0.000 A 
ATOM     14  C   UNL     1       3.363   3.524  19.425  0.00  0.00    +0.000 A 
ATOM     15  F   UNL     1       4.621   3.644  19.872  0.00  0.00    +0.000 F 
ENDBRANCH   5   9
BRANCH   1  16
ATOM     16  C   UNL     1       6.880   5.047  14.208  0.00  0.00    +0.000 C 
BRANCH  16  17
ATOM     17  C   UNL     1       6.291   3.754  13.632  0.00  0.00    +0.000 C 
BRANCH  17  18
ATOM     18  C   UNL     1       6.481   3.685  12.120  0.00  0.00    +0.000 C 
BRANCH  18  19
ATOM     19  S   UNL     1       5.377   2.392  11.457  0.00  0.00    +0.000 S 
BRANCH  19  20
ATOM     20  C   UNL     1       3.805   3.312  11.409  0.00  0.00    +0.000 C 
BRANCH  20  22
ATOM     21  N   UNL     1       2.970   3.904   8.988  0.00  0.00    +0.000 NA
ATOM     22  C   UNL     1       3.336   3.628  10.056  0.00  0.00    +0.000 C 
ENDBRANCH  20  22
ENDBRANCH  19  20
ENDBRANCH  18  19
ENDBRANCH  17  18
ENDBRANCH  16  17
ENDBRANCH   1  16
TORSDOF 7
ENDMDL
MODEL 7
REMARK VINA RESULT:      -6.5      1.150      1.539
REMARK  Name = 
REMARK  7 active torsions:
REMARK  status: ('A' for Active; 'I' for Inactive)
REMARK    1  A    between atoms: C_2  and  C_3
REMARK    2  A    between atoms: C_3  and  S_4
REMARK    3  A    between atoms: S_4  and  C_5
REMARK    4  A    between atoms: C_5  and  C_6
REMARK    5  A    between atoms: C_6  and  C_7
REMARK    6  A    between atoms: C_7  and  N_8
REMARK    7  A    between atoms: C_12  and  C_14
REMARK                            x       y       z     vdW  Elec       q    Type
REMARK                         _______ _______ _______ _____ _____    ______ ____
ROOT
ATOM      1  N   UNL     1       5.815   6.635  16.410  0.00  0.00    +0.000 NA
ATOM      2  C   UNL     1       5.526   5.411  15.623  0.00  0.00    +0.000 C 
ATOM      3  C   UNL     1       5.495   4.106  16.442  0.00  0.00    +0.000 C 
ATOM      4  N   UNL     1       4.592   4.209  17.595  0.00  0.00    +0.000 N 
ATOM      5  C   UNL     1       3.780   3.111  17.901  0.00  0.00    +0.000 C 
ATOM      6  O   UNL     1       3.749   2.103  17.195  0.00  0.00    +0.000 OA
ATOM      7  C   UNL     1       4.734   5.446  18.377  0.00  0.00    +0.000 C 
ATOM      8  C   UNL     1       4.821   6.708  17.501  0.00  0.00    +0.000 C 
ENDROOT
BRANCH   5   9
ATOM      9  C   UNL     1       2.905   3.138  19.099  0.00  0.00    +0.000 A 
ATOM     10  C   UNL     1       3.326   2.626  20.334  0.00  0.00    +0.000 A 
ATOM     11  C   UNL     1       2.534   2.783  21.472  0.00  0.00    +0.000 A 
ATOM     12  C   UNL     1       1.271   3.362  21.366  0.00  0.00    +0.000 A 
ATOM     13  C   UNL     1       0.799   3.774  20.121  0.00  0.00    +0.000 A 
ATOM     14  C   UNL     1       1.619   3.672  18.996  0.00  0.00    +0.000 A 
ATOM     15  F   UNL     1       1.140   4.128  17.830  0.00  0.00    +0.000 F 
ENDBRANCH   5   9
BRANCH   1  16
ATOM     16  C   UNL     1       7.186   6.686  16.941  0.00  0.00    +0.000 C 
BRANCH  16  17
ATOM     17  C   UNL     1       7.363   7.764  18.017  0.00  0.00    +0.000 C 
BRANCH  17  18
ATOM     18  C   UNL     1       8.149   8.958  17.480  0.00  0.00    +0.000 C 
BRANCH  18  19
ATOM     19  S   UNL     1       8.956   9.797  18.885  0.00  0.00    +0.000 S 
BRANCH  19  20
ATOM     20  C   UNL     1       9.537  11.313  18.057  0.00  0.00    +0.000 C 
BRANCH  20  22
ATOM     21  N   UNL     1       8.813  13.523  19.281  0.00  0.00    +0.000 NA
ATOM     22  C   UNL     1       9.135  12.553  18.727  0.00  0.00    +0.000 C 
ENDBRANCH  20  22
ENDBRANCH  19  20
ENDBRANCH  18  19
ENDBRANCH  17  18
ENDBRANCH  16  17
ENDBRANCH   1  16
TORSDOF 7
ENDMDL
MODEL 8
REMARK VINA RESULT:      -6.4      3.656      5.893
REMARK  Name = 
REMARK  7 active torsions:
REMARK  status: ('A' for Active; 'I' for Inactive)
REMARK    1  A    between atoms: C_2  and  C_3
REMARK    2  A    between atoms: C_3  and  S_4
REMARK    3  A    between atoms: S_4  and  C_5
REMARK    4  A    between atoms: C_5  and  C_6
REMARK    5  A    between atoms: C_6  and  C_7
REMARK    6  A    between atoms: C_7  and  N_8
REMARK    7  A    between atoms: C_12  and  C_14
REMARK                            x       y       z     vdW  Elec       q    Type
REMARK                         _______ _______ _______ _____ _____    ______ ____
ROOT
ATOM      1  N   UNL     1       6.978   5.636  17.075  0.00  0.00    +0.000 NA
ATOM      2  C   UNL     1       6.229   6.902  17.272  0.00  0.00    +0.000 C 
ATOM      3  C   UNL     1       4.732   6.831  16.911  0.00  0.00    +0.000 C 
ATOM      4  N   UNL     1       4.061   5.717  17.591  0.00  0.00    +0.000 N 
ATOM      5  C   UNL     1       2.782   5.935  18.117  0.00  0.00    +0.000 C 
ATOM      6  O   UNL     1       2.243   7.042  18.090  0.00  0.00    +0.000 OA
ATOM      7  C   UNL     1       4.787   4.439  17.541  0.00  0.00    +0.000 C 
ATOM      8  C   UNL     1       6.287   4.585  17.850  0.00  0.00    +0.000 C 
ENDROOT
BRANCH   5   9
ATOM      9  C   UNL     1       2.033   4.822  18.749  0.00  0.00    +0.000 A 
ATOM     10  C   UNL     1       1.506   3.763  17.996  0.00  0.00    +0.000 A 
ATOM     11  C   UNL     1       0.922   2.666  18.630  0.00  0.00    +0.000 A 
ATOM     12  C   UNL     1       0.766   2.663  20.015  0.00  0.00    +0.000 A 
ATOM     13  C   UNL     1       1.187   3.763  20.761  0.00  0.00    +0.000 A 
ATOM     14  C   UNL     1       1.827   4.830  20.131  0.00  0.00    +0.000 A 
ATOM     15  F   UNL     1       2.260   5.842  20.897  0.00  0.00    +0.000 F 
ENDBRANCH   5   9
BRANCH   1  16
ATOM     16  C   UNL     1       7.119   5.246  15.664  0.00  0.00    +0.000 C 
BRANCH  16  17
ATOM     17  C   UNL     1       6.406   3.927  15.341  0.00  0.00    +0.000 C 
BRANCH  17  18
ATOM     18  C   UNL     1       5.525   4.064  14.103  0.00  0.00    +0.000 C 
BRANCH  18  19
ATOM     19  S   UNL     1       6.533   3.677  12.631  0.00  0.00    +0.000 S 
BRANCH  19  20
ATOM     20  C   UNL     1       5.342   2.670  11.688  0.00  0.00    +0.000 C 
BRANCH  20  22
ATOM     21  N   UNL     1       6.278   0.321  10.971  0.00  0.00    +0.000 NA
ATOM     22  C   UNL     1       5.851   1.353  11.292  0.00  0.00    +0.000 C 
ENDBRANCH  20  22
ENDBRANCH  19  20
ENDBRANCH  18  19
ENDBRANCH  17  18
ENDBRANCH  16  17
ENDBRANCH   1  16
TORSDOF 7
ENDMDL
MODEL 9
REMARK VINA RESULT:      -6.4      1.932      2.254
REMARK  Name = 
REMARK  7 active torsions:
REMARK  status: ('A' for Active; 'I' for Inactive)
REMARK    1  A    between atoms: C_2  and  C_3
REMARK    2  A    between atoms: C_3  and  S_4
REMARK    3  A    between atoms: S_4  and  C_5
REMARK    4  A    between atoms: C_5  and  C_6
REMARK    5  A    between atoms: C_6  and  C_7
REMARK    6  A    between atoms: C_7  and  N_8
REMARK    7  A    between atoms: C_12  and  C_14
REMARK                            x       y       z     vdW  Elec       q    Type
REMARK                         _______ _______ _______ _____ _____    ______ ____
ROOT
ATOM      1  N   UNL     1       6.632   6.722  16.936  0.00  0.00    +0.000 NA
ATOM      2  C   UNL     1       7.275   5.535  17.551  0.00  0.00    +0.000 C 
ATOM      3  C   UNL     1       6.628   5.057  18.866  0.00  0.00    +0.000 C 
ATOM      4  N   UNL     1       5.183   4.848  18.717  0.00  0.00    +0.000 N 
ATOM      5  C   UNL     1       4.609   3.727  19.328  0.00  0.00    +0.000 C 
ATOM      6  O   UNL     1       5.286   2.883  19.914  0.00  0.00    +0.000 OA
ATOM      7  C   UNL     1       4.475   5.931  18.019  0.00  0.00    +0.000 C 
ATOM      8  C   UNL     1       5.201   6.406  16.748  0.00  0.00    +0.000 C 
ENDROOT
BRANCH   5   9
ATOM      9  C   UNL     1       3.142   3.511  19.267  0.00  0.00    +0.000 A 
ATOM     10  C   UNL     1       2.555   2.697  18.289  0.00  0.00    +0.000 A 
ATOM     11  C   UNL     1       1.190   2.408  18.336  0.00  0.00    +0.000 A 
ATOM     12  C   UNL     1       0.383   3.010  19.299  0.00  0.00    +0.000 A 
ATOM     13  C   UNL     1       0.942   3.908  20.208  0.00  0.00    +0.000 A 
ATOM     14  C   UNL     1       2.317   4.147  20.197  0.00  0.00    +0.000 A 
ATOM     15  F   UNL     1       2.815   4.978  21.123  0.00  0.00    +0.000 F 
ENDBRANCH   5   9
BRANCH   1  16
ATOM     16  C   UNL     1       6.802   7.958  17.716  0.00  0.00    +0.000 C 
BRANCH  16  17
ATOM     17  C   UNL     1       8.154   8.634  17.463  0.00  0.00    +0.000 C 
BRANCH  17  18
ATOM     18  C   UNL     1       8.644   9.372  18.706  0.00  0.00    +0.000 C 
BRANCH  18  19
ATOM     19  S   UNL     1       9.305  10.994  18.193  0.00  0.00    +0.000 S 
BRANCH  19  20
ATOM     20  C   UNL     1      10.469  11.308  19.559  0.00  0.00    +0.000 C 
BRANCH  20  22
ATOM     21  N   UNL     1       9.358  12.244  21.749  0.00  0.00    +0.000 NA
ATOM     22  C   UNL     1       9.841  11.840  20.772  0.00  0.00    +0.000 C 
ENDBRANCH  20  22
ENDBRANCH  19  20
ENDBRANCH  18  19
ENDBRANCH  17  18
ENDBRANCH  16  17
ENDBRANCH   1  16
TORSDOF 7
ENDMDL
