MODEL 1
REMARK VINA RESULT:      -7.4      0.000      0.000
REMARK  Name = 
REMARK  5 active torsions:
REMARK  status: ('A' for Active; 'I' for Inactive)
REMARK    1  A    between atoms: O_1  and  C_2
REMARK    2  A    between atoms: C_4  and  C_5
REMARK    3  A    between atoms: N_11  and  C_12
REMARK    4  A    between atoms: C_12  and  C_13
REMARK    5  A    between atoms: C_13  and  C_14
REMARK                            x       y       z     vdW  Elec       q    Type
REMARK                         _______ _______ _______ _____ _____    ______ ____
ROOT
ATOM      1  C   UNL     1       3.228   5.374  19.784  0.00  0.00    +0.000 A 
ATOM      2  C   UNL     1       2.627   4.177  19.495  0.00  0.00    +0.000 A 
ATOM      3  C   UNL     1       3.393   3.293  18.764  0.00  0.00    +0.000 A 
ATOM      4  N   UNL     1       4.655   3.601  18.373  0.00  0.00    +0.000 NA
ATOM      5  C   UNL     1       5.154   4.793  18.722  0.00  0.00    +0.000 A 
ATOM      6  N   UNL     1       6.454   5.134  18.378  0.00  0.00    +0.000 N 
ATOM      7  N   UNL     1       4.468   5.705  19.410  0.00  0.00    +0.000 NA
ATOM      8  H   UNL     1       6.514   6.144  18.453  0.00  0.00    +0.000 HD
ENDROOT
BRANCH   3   9
ATOM      9  C   UNL     1       2.832   1.935  18.382  0.00  0.00    +0.000 C 
ATOM     10  F   UNL     1       3.778   0.948  18.387  0.00  0.00    +0.000 F 
ATOM     11  F   UNL     1       1.856   1.502  19.230  0.00  0.00    +0.000 F 
ATOM     12  F   UNL     1       2.291   1.911  17.132  0.00  0.00    +0.000 F 
ENDBRANCH   3   9
BRANCH   1  13
ATOM     13  O   UNL     1       2.570   6.333  20.498  0.00  0.00    +0.000 OA
ATOM     14  H   UNL     1       2.002   6.842  19.901  0.00  0.00    +0.000 HD
ENDBRANCH   1  13
BRANCH   6  15
ATOM     15  C   UNL     1       6.944   4.542  17.141  0.00  0.00    +0.000 C 
BRANCH  15  16
ATOM     16  C   UNL     1       6.939   5.584  16.015  0.00  0.00    +0.000 C 
BRANCH  16  17
ATOM     17  C   UNL     1       6.760   4.948  14.657  0.00  0.00    +0.000 A 
ATOM     18  C   UNL     1       5.698   4.066  14.417  0.00  0.00    +0.000 A 
ATOM     19  C   UNL     1       5.548   3.460  13.169  0.00  0.00    +0.000 A 
ATOM     20  C   UNL     1       6.459   3.727  12.148  0.00  0.00    +0.000 A 
ATOM     21  C   UNL     1       7.520   4.601  12.377  0.00  0.00    +0.000 A 
ATOM     22  C   UNL     1       7.671   5.208  13.625  0.00  0.00    +0.000 A 
ENDBRANCH  16  17
ENDBRANCH  15  16
ENDBRANCH   6  15
TORSDOF 5
ENDMDL
MODEL 2
REMARK VINA RESULT:      -7.3      1.957      2.534
REMARK  Name = 
REMARK  5 active torsions:
REMARK  status: ('A' for Active; 'I' for Inactive)
REMARK    1  A    between atoms: O_1  and  C_2
REMARK    2  A    between atoms: C_4  and  C_5
REMARK    3  A    between atoms: N_11  and  C_12
REMARK    4  A    between atoms: C_12  and  C_13
REMARK    5  A    between atoms: C_13  and  C_14
REMARK                            x       y       z     vdW  Elec       q    Type
REMARK                         _______ _______ _______ _____ _____    ______ ____
ROOT
ATOM      1  C   UNL     1       4.371   2.363  20.330  0.00  0.00    +0.000 A 
ATOM      2  C   UNL     1       3.011   2.488  20.224  0.00  0.00    +0.000 A 
ATOM      3  C   UNL     1       2.565   3.157  19.104  0.00  0.00    +0.000 A 
ATOM      4  N   UNL     1       3.428   3.646  18.178  0.00  0.00    +0.000 NA
ATOM      5  C   UNL     1       4.738   3.458  18.370  0.00  0.00    +0.000 A 
ATOM      6  N   UNL     1       5.654   3.905  17.429  0.00  0.00    +0.000 N 
ATOM      7  N   UNL     1       5.244   2.837  19.436  0.00  0.00    +0.000 NA
ATOM      8  H   UNL     1       6.552   3.945  17.900  0.00  0.00    +0.000 HD
ENDROOT
BRANCH   3   9
ATOM      9  C   UNL     1       1.077   3.358  18.879  0.00  0.00    +0.000 C 
ATOM     10  F   UNL     1       0.804   4.157  17.803  0.00  0.00    +0.000 F 
ATOM     11  F   UNL     1       0.410   2.192  18.640  0.00  0.00    +0.000 F 
ATOM     12  F   UNL     1       0.450   3.947  19.935  0.00  0.00    +0.000 F 
ENDBRANCH   3   9
BRANCH   1  13
ATOM     13  O   UNL     1       4.935   1.724  21.396  0.00  0.00    +0.000 OA
ATOM     14  H   UNL     1       4.857   2.285  22.182  0.00  0.00    +0.000 HD
ENDBRANCH   1  13
BRANCH   6  15
ATOM     15  C   UNL     1       5.252   5.095  16.690  0.00  0.00    +0.000 C 
BRANCH  15  16
ATOM     16  C   UNL     1       6.427   5.625  15.858  0.00  0.00    +0.000 C 
BRANCH  16  17
ATOM     17  C   UNL     1       6.511   4.954  14.508  0.00  0.00    +0.000 A 
ATOM     18  C   UNL     1       7.568   5.241  13.633  0.00  0.00    +0.000 A 
ATOM     19  C   UNL     1       7.631   4.639  12.375  0.00  0.00    +0.000 A 
ATOM     20  C   UNL     1       6.638   3.745  11.978  0.00  0.00    +0.000 A 
ATOM     21  C   UNL     1       5.582   3.454  12.839  0.00  0.00    +0.000 A 
ATOM     22  C   UNL     1       5.517   4.056  14.097  0.00  0.00    +0.000 A 
ENDBRANCH  16  17
ENDBRANCH  15  16
ENDBRANCH   6  15
TORSDOF 5
ENDMDL
MODEL 3
REMARK VINA RESULT:      -7.3      3.969      5.838
REMARK  Name = 
REMARK  5 active torsions:
REMARK  status: ('A' for Active; 'I' for Inactive)
REMARK    1  A    between atoms: O_1  and  C_2
REMARK    2  A    between atoms: C_4  and  C_5
REMARK    3  A    between atoms: N_11  and  C_12
REMARK    4  A    between atoms: C_12  and  C_13
REMARK    5  A    between atoms: C_13  and  C_14
REMARK                            x       y       z     vdW  Elec       q    Type
REMARK                         _______ _______ _______ _____ _____    ______ ____
ROOT
ATOM      1  C   UNL     1       3.622   1.868  18.338  0.00  0.00    +0.000 A 
ATOM      2  C   UNL     1       2.608   1.974  19.253  0.00  0.00    +0.000 A 
ATOM      3  C   UNL     1       2.166   3.258  19.500  0.00  0.00    +0.000 A 
ATOM      4  N   UNL     1       2.707   4.329  18.866  0.00  0.00    +0.000 NA
ATOM      5  C   UNL     1       3.684   4.114  17.978  0.00  0.00    +0.000 A 
ATOM      6  N   UNL     1       4.238   5.176  17.277  0.00  0.00    +0.000 N 
ATOM      7  N   UNL     1       4.175   2.906  17.701  0.00  0.00    +0.000 NA
ATOM      8  H   UNL     1       5.129   4.849  16.919  0.00  0.00    +0.000 HD
ENDROOT
BRANCH   3   9
ATOM      9  C   UNL     1       1.047   3.499  20.495  0.00  0.00    +0.000 C 
ATOM     10  F   UNL     1       1.277   2.911  21.708  0.00  0.00    +0.000 F 
ATOM     11  F   UNL     1       0.848   4.821  20.767  0.00  0.00    +0.000 F 
ATOM     12  F   UNL     1      -0.155   3.010  20.080  0.00  0.00    +0.000 F 
ENDBRANCH   3   9
BRANCH   1  13
ATOM     13  O   UNL     1       4.147   0.651  18.012  0.00  0.00    +0.000 OA
ATOM     14  H   UNL     1       3.743   0.340  17.188  0.00  0.00    +0.000 HD
ENDBRANCH   1  13
BRANCH   6  15
ATOM     15  C   UNL     1       4.249   6.448  17.987  0.00  0.00    +0.000 C 
BRANCH  15  16
ATOM     16  C   UNL     1       3.298   7.442  17.308  0.00  0.00    +0.000 C 
BRANCH  16  17
ATOM     17  C   UNL     1       2.399   8.136  18.304  0.00  0.00    +0.000 A 
ATOM     18  C   UNL     1       2.226   7.613  19.593  0.00  0.00    +0.000 A 
ATOM     19  C   UNL     1       1.375   8.242  20.504  0.00  0.00    +0.000 A 
ATOM     20  C   UNL     1       0.688   9.397  20.136  0.00  0.00    +0.000 A 
ATOM     21  C   UNL     1       0.852   9.924  18.857  0.00  0.00    +0.000 A 
ATOM     22  C   UNL     1       1.701   9.296  17.943  0.00  0.00    +0.000 A 
ENDBRANCH  16  17
ENDBRANCH  15  16
ENDBRANCH   6  15
TORSDOF 5
ENDMDL
MODEL 4
REMARK VINA RESULT:      -7.3      1.931      2.191
REMARK  Name = 
REMARK  5 active torsions:
REMARK  status: ('A' for Active; 'I' for Inactive)
REMARK    1  A    between atoms: O_1  and  C_2
REMARK    2  A    between atoms: C_4  and  C_5
REMARK    3  A    between atoms: N_11  and  C_12
REMARK    4  A    between atoms: C_12  and  C_13
REMARK    5  A    between atoms: C_13  and  C_14
REMARK                            x       y       z     vdW  Elec       q    Type
REMARK                         _______ _______ _______ _____ _____    ______ ____
ROOT
ATOM      1  C   UNL     1       4.378   2.350  20.359  0.00  0.00    +0.000 A 
ATOM      2  C   UNL     1       3.022   2.495  20.229  0.00  0.00    +0.000 A 
ATOM      3  C   UNL     1       2.607   3.203  19.120  0.00  0.00    +0.000 A 
ATOM      4  N   UNL     1       3.495   3.708  18.227  0.00  0.00    +0.000 NA
ATOM      5  C   UNL     1       4.799   3.497  18.439  0.00  0.00    +0.000 A 
ATOM      6  N   UNL     1       5.739   3.961  17.531  0.00  0.00    +0.000 N 
ATOM      7  N   UNL     1       5.275   2.839  19.496  0.00  0.00    +0.000 NA
ATOM      8  H   UNL     1       6.628   3.975  18.021  0.00  0.00    +0.000 HD
ENDROOT
BRANCH   3   9
ATOM      9  C   UNL     1       1.127   3.429  18.871  0.00  0.00    +0.000 C 
ATOM     10  F   UNL     1       0.451   2.274  18.593  0.00  0.00    +0.000 F 
ATOM     11  F   UNL     1       0.482   3.976  19.941  0.00  0.00    +0.000 F 
ATOM     12  F   UNL     1       0.881   4.254  17.814  0.00  0.00    +0.000 F 
ENDBRANCH   3   9
BRANCH   1  13
ATOM     13  O   UNL     1       4.912   1.673  21.417  0.00  0.00    +0.000 OA
ATOM     14  H   UNL     1       4.438   1.918  22.225  0.00  0.00    +0.000 HD
ENDBRANCH   1  13
BRANCH   6  15
ATOM     15  C   UNL     1       5.367   5.177  16.820  0.00  0.00    +0.000 C 
BRANCH  15  16
ATOM     16  C   UNL     1       6.533   5.658  15.947  0.00  0.00    +0.000 C 
BRANCH  16  17
ATOM     17  C   UNL     1       6.526   5.006  14.585  0.00  0.00    +0.000 A 
ATOM     18  C   UNL     1       5.488   4.140  14.214  0.00  0.00    +0.000 A 
ATOM     19  C   UNL     1       5.496   3.519  12.964  0.00  0.00    +0.000 A 
ATOM     20  C   UNL     1       6.542   3.755  12.072  0.00  0.00    +0.000 A 
ATOM     21  C   UNL     1       7.579   4.612  12.432  0.00  0.00    +0.000 A 
ATOM     22  C   UNL     1       7.574   5.234  13.682  0.00  0.00    +0.000 A 
ENDBRANCH  16  17
ENDBRANCH  15  16
ENDBRANCH   6  15
TORSDOF 5
ENDMDL
MODEL 5
REMARK VINA RESULT:      -7.3      3.416      5.094
REMARK  Name = 
REMARK  5 active torsions:
REMARK  status: ('A' for Active; 'I' for Inactive)
REMARK    1  A    between atoms: O_1  and  C_2
REMARK    2  A    between atoms: C_4  and  C_5
REMARK    3  A    between atoms: N_11  and  C_12
REMARK    4  A    between atoms: C_12  and  C_13
REMARK    5  A    between atoms: C_13  and  C_14
REMARK                            x       y       z     vdW  Elec       q    Type
REMARK                         _______ _______ _______ _____ _____    ______ ____
ROOT
ATOM      1  C   UNL     1       4.597   2.021  20.740  0.00  0.00    +0.000 A 
ATOM      2  C   UNL     1       3.308   2.221  21.161  0.00  0.00    +0.000 A 
ATOM      3  C   UNL     1       2.494   2.893  20.272  0.00  0.00    +0.000 A 
ATOM      4  N   UNL     1       2.954   3.314  19.067  0.00  0.00    +0.000 NA
ATOM      5  C   UNL     1       4.227   3.054  18.747  0.00  0.00    +0.000 A 
ATOM      6  N   UNL     1       4.728   3.431  17.509  0.00  0.00    +0.000 N 
ATOM      7  N   UNL     1       5.077   2.427  19.560  0.00  0.00    +0.000 NA
ATOM      8  H   UNL     1       5.738   3.429  17.596  0.00  0.00    +0.000 HD
ENDROOT
BRANCH   3   9
ATOM      9  C   UNL     1       1.046   3.173  20.629  0.00  0.00    +0.000 C 
ATOM     10  F   UNL     1       0.168   2.726  19.681  0.00  0.00    +0.000 F 
ATOM     11  F   UNL     1       0.656   2.577  21.792  0.00  0.00    +0.000 F 
ATOM     12  F   UNL     1       0.777   4.501  20.772  0.00  0.00    +0.000 F 
ENDBRANCH   3   9
BRANCH   1  13
ATOM     13  O   UNL     1       5.499   1.372  21.532  0.00  0.00    +0.000 OA
ATOM     14  H   UNL     1       6.076   0.827  20.977  0.00  0.00    +0.000 HD
ENDBRANCH   1  13
BRANCH   6  15
ATOM     15  C   UNL     1       4.126   4.627  16.935  0.00  0.00    +0.000 C 
BRANCH  15  16
ATOM     16  C   UNL     1       4.711   5.883  17.594  0.00  0.00    +0.000 C 
BRANCH  16  17
ATOM     17  C   UNL     1       3.631   6.805  18.111  0.00  0.00    +0.000 A 
ATOM     18  C   UNL     1       3.241   7.930  17.372  0.00  0.00    +0.000 A 
ATOM     19  C   UNL     1       2.261   8.795  17.863  0.00  0.00    +0.000 A 
ATOM     20  C   UNL     1       1.663   8.546  19.098  0.00  0.00    +0.000 A 
ATOM     21  C   UNL     1       2.046   7.431  19.841  0.00  0.00    +0.000 A 
ATOM     22  C   UNL     1       3.027   6.565  19.352  0.00  0.00    +0.000 A 
ENDBRANCH  16  17
ENDBRANCH  15  16
ENDBRANCH   6  15
TORSDOF 5
ENDMDL
MODEL 6
REMARK VINA RESULT:      -7.3      5.016      6.537
REMARK  Name = 
REMARK  5 active torsions:
REMARK  status: ('A' for Active; 'I' for Inactive)
REMARK    1  A    between atoms: O_1  and  C_2
REMARK    2  A    between atoms: C_4  and  C_5
REMARK    3  A    between atoms: N_11  and  C_12
REMARK    4  A    between atoms: C_12  and  C_13
REMARK    5  A    between atoms: C_13  and  C_14
REMARK                            x       y       z     vdW  Elec       q    Type
REMARK                         _______ _______ _______ _____ _____    ______ ____
ROOT
ATOM      1  C   UNL     1       6.070   4.447  16.234  0.00  0.00    +0.000 A 
ATOM      2  C   UNL     1       4.853   4.696  16.811  0.00  0.00    +0.000 A 
ATOM      3  C   UNL     1       4.751   5.898  17.480  0.00  0.00    +0.000 A 
ATOM      4  N   UNL     1       5.793   6.764  17.546  0.00  0.00    +0.000 NA
ATOM      5  C   UNL     1       6.935   6.431  16.935  0.00  0.00    +0.000 A 
ATOM      6  N   UNL     1       8.013   7.304  16.943  0.00  0.00    +0.000 N 
ATOM      7  N   UNL     1       7.114   5.280  16.286  0.00  0.00    +0.000 NA
ATOM      8  H   UNL     1       8.832   6.750  16.716  0.00  0.00    +0.000 HD
ENDROOT
BRANCH   3   9
ATOM      9  C   UNL     1       3.450   6.283  18.160  0.00  0.00    +0.000 C 
ATOM     10  F   UNL     1       2.385   5.540  17.731  0.00  0.00    +0.000 F 
ATOM     11  F   UNL     1       3.483   6.116  19.513  0.00  0.00    +0.000 F 
ATOM     12  F   UNL     1       3.095   7.581  17.943  0.00  0.00    +0.000 F 
ENDBRANCH   3   9
BRANCH   1  13
ATOM     13  O   UNL     1       6.296   3.289  15.548  0.00  0.00    +0.000 OA
ATOM     14  H   UNL     1       5.582   2.662  15.735  0.00  0.00    +0.000 HD
ENDBRANCH   1  13
BRANCH   6  15
ATOM     15  C   UNL     1       8.110   8.157  18.120  0.00  0.00    +0.000 C 
BRANCH  15  16
ATOM     16  C   UNL     1       8.139   9.634  17.703  0.00  0.00    +0.000 C 
BRANCH  16  17
ATOM     17  C   UNL     1       9.176  10.418  18.473  0.00  0.00    +0.000 A 
ATOM     18  C   UNL     1       9.146  10.456  19.873  0.00  0.00    +0.000 A 
ATOM     19  C   UNL     1      10.089  11.202  20.582  0.00  0.00    +0.000 A 
ATOM     20  C   UNL     1      11.071  11.919  19.899  0.00  0.00    +0.000 A 
ATOM     21  C   UNL     1      11.108  11.889  18.507  0.00  0.00    +0.000 A 
ATOM     22  C   UNL     1      10.164  11.144  17.796  0.00  0.00    +0.000 A 
ENDBRANCH  16  17
ENDBRANCH  15  16
ENDBRANCH   6  15
TORSDOF 5
ENDMDL
MODEL 7
REMARK VINA RESULT:      -7.2      5.012      6.626
REMARK  Name = 
REMARK  5 active torsions:
REMARK  status: ('A' for Active; 'I' for Inactive)
REMARK    1  A    between atoms: O_1  and  C_2
REMARK    2  A    between atoms: C_4  and  C_5
REMARK    3  A    between atoms: N_11  and  C_12
REMARK    4  A    between atoms: C_12  and  C_13
REMARK    5  A    between atoms: C_13  and  C_14
REMARK                            x       y       z     vdW  Elec       q    Type
REMARK                         _______ _______ _______ _____ _____    ______ ____
ROOT
ATOM      1  C   UNL     1       6.077   4.441  16.257  0.00  0.00    +0.000 A 
ATOM      2  C   UNL     1       4.849   4.690  16.810  0.00  0.00    +0.000 A 
ATOM      3  C   UNL     1       4.724   5.907  17.448  0.00  0.00    +0.000 A 
ATOM      4  N   UNL     1       5.755   6.787  17.507  0.00  0.00    +0.000 NA
ATOM      5  C   UNL     1       6.910   6.452  16.920  0.00  0.00    +0.000 A 
ATOM      6  N   UNL     1       7.978   7.337  16.921  0.00  0.00    +0.000 N 
ATOM      7  N   UNL     1       7.111   5.288  16.302  0.00  0.00    +0.000 NA
ATOM      8  H   UNL     1       8.806   6.788  16.719  0.00  0.00    +0.000 HD
ENDROOT
BRANCH   3   9
ATOM      9  C   UNL     1       3.409   6.294  18.100  0.00  0.00    +0.000 C 
ATOM     10  F   UNL     1       3.039   7.582  17.830  0.00  0.00    +0.000 F 
ATOM     11  F   UNL     1       2.361   5.524  17.688  0.00  0.00    +0.000 F 
ATOM     12  F   UNL     1       3.438   6.203  19.459  0.00  0.00    +0.000 F 
ENDBRANCH   3   9
BRANCH   1  13
ATOM     13  O   UNL     1       6.326   3.269  15.603  0.00  0.00    +0.000 OA
ATOM     14  H   UNL     1       6.763   2.653  16.208  0.00  0.00    +0.000 HD
ENDBRANCH   1  13
BRANCH   6  15
ATOM     15  C   UNL     1       8.048   8.221  18.077  0.00  0.00    +0.000 C 
BRANCH  15  16
ATOM     16  C   UNL     1       8.147   9.683  17.622  0.00  0.00    +0.000 C 
BRANCH  16  17
ATOM     17  C   UNL     1       9.172  10.455  18.419  0.00  0.00    +0.000 A 
ATOM     18  C   UNL     1      10.181  11.179  17.771  0.00  0.00    +0.000 A 
ATOM     19  C   UNL     1      11.143  11.871  18.510  0.00  0.00    +0.000 A 
ATOM     20  C   UNL     1      11.107  11.845  19.903  0.00  0.00    +0.000 A 
ATOM     21  C   UNL     1      10.108  11.126  20.557  0.00  0.00    +0.000 A 
ATOM     22  C   UNL     1       9.146  10.432  19.820  0.00  0.00    +0.000 A 
ENDBRANCH  16  17
ENDBRANCH  15  16
ENDBRANCH   6  15
TORSDOF 5
ENDMDL
MODEL 8
REMARK VINA RESULT:      -7.2      5.655      7.398
REMARK  Name = 
REMARK  5 active torsions:
REMARK  status: ('A' for Active; 'I' for Inactive)
REMARK    1  A    between atoms: O_1  and  C_2
REMARK    2  A    between atoms: C_4  and  C_5
REMARK    3  A    between atoms: N_11  and  C_12
REMARK    4  A    between atoms: C_12  and  C_13
REMARK    5  A    between atoms: C_13  and  C_14
REMARK                            x       y       z     vdW  Elec       q    Type
REMARK                         _______ _______ _______ _____ _____    ______ ____
ROOT
ATOM      1  C   UNL     1      -0.254  10.268  18.434  0.00  0.00    +0.000 A 
ATOM      2  C   UNL     1      -0.522  10.208  19.776  0.00  0.00    +0.000 A 
ATOM      3  C   UNL     1       0.350   9.438  20.519  0.00  0.00    +0.000 A 
ATOM      4  N   UNL     1       1.399   8.797  19.943  0.00  0.00    +0.000 NA
ATOM      5  C   UNL     1       1.580   8.934  18.625  0.00  0.00    +0.000 A 
ATOM      6  N   UNL     1       2.661   8.330  18.001  0.00  0.00    +0.000 N 
ATOM      7  N   UNL     1       0.770   9.646  17.840  0.00  0.00    +0.000 NA
ATOM      8  H   UNL     1       2.439   8.295  17.012  0.00  0.00    +0.000 HD
ENDROOT
BRANCH   3   9
ATOM      9  C   UNL     1       0.153   9.295  22.017  0.00  0.00    +0.000 C 
ATOM     10  F   UNL     1       1.257   8.802  22.654  0.00  0.00    +0.000 F 
ATOM     11  F   UNL     1      -0.121  10.479  22.636  0.00  0.00    +0.000 F 
ATOM     12  F   UNL     1      -0.863   8.448  22.346  0.00  0.00    +0.000 F 
ENDBRANCH   3   9
BRANCH   1  13
ATOM     13  O   UNL     1      -1.046  10.995  17.594  0.00  0.00    +0.000 OA
ATOM     14  H   UNL     1      -0.602  11.089  16.738  0.00  0.00    +0.000 HD
ENDBRANCH   1  13
BRANCH   6  15
ATOM     15  C   UNL     1       3.113   7.086  18.611  0.00  0.00    +0.000 C 
BRANCH  15  16
ATOM     16  C   UNL     1       2.600   5.884  17.807  0.00  0.00    +0.000 C 
BRANCH  16  17
ATOM     17  C   UNL     1       2.035   4.806  18.700  0.00  0.00    +0.000 A 
ATOM     18  C   UNL     1       1.509   3.628  18.152  0.00  0.00    +0.000 A 
ATOM     19  C   UNL     1       0.964   2.643  18.977  0.00  0.00    +0.000 A 
ATOM     20  C   UNL     1       0.938   2.825  20.359  0.00  0.00    +0.000 A 
ATOM     21  C   UNL     1       1.456   3.993  20.915  0.00  0.00    +0.000 A 
ATOM     22  C   UNL     1       2.001   4.980  20.090  0.00  0.00    +0.000 A 
ENDBRANCH  16  17
ENDBRANCH  15  16
ENDBRANCH   6  15
TORSDOF 5
ENDMDL
MODEL 9
REMARK VINA RESULT:      -7.2      1.196      1.715
REMARK  Name = 
REMARK  5 active torsions:
REMARK  status: ('A' for Active; 'I' for Inactive)
REMARK    1  A    between atoms: O_1  and  C_2
REMARK    2  A    between atoms: C_4  and  C_5
REMARK    3  A    between atoms: N_11  and  C_12
REMARK    4  A    between atoms: C_12  and  C_13
REMARK    5  A    between atoms: C_13  and  C_14
REMARK                            x       y       z     vdW  Elec       q    Type
REMARK                         _______ _______ _______ _____ _____    ______ ____
ROOT
ATOM      1  C   UNL     1       2.282   5.878  20.022  0.00  0.00    +0.000 A 
ATOM      2  C   UNL     1       1.713   4.644  19.849  0.00  0.00    +0.000 A 
ATOM      3  C   UNL     1       2.239   3.890  18.819  0.00  0.00    +0.000 A 
ATOM      4  N   UNL     1       3.254   4.353  18.047  0.00  0.00    +0.000 NA
ATOM      5  C   UNL     1       3.748   5.568  18.310  0.00  0.00    +0.000 A 
ATOM      6  N   UNL     1       4.812   6.065  17.572  0.00  0.00    +0.000 N 
ATOM      7  N   UNL     1       3.280   6.360  19.275  0.00  0.00    +0.000 NA
ATOM      8  H   UNL     1       4.815   7.069  17.713  0.00  0.00    +0.000 HD
ENDROOT
BRANCH   3   9
ATOM      9  C   UNL     1       1.687   2.506  18.531  0.00  0.00    +0.000 C 
ATOM     10  F   UNL     1       1.970   1.604  19.519  0.00  0.00    +0.000 F 
ATOM     11  F   UNL     1       0.330   2.486  18.403  0.00  0.00    +0.000 F 
ATOM     12  F   UNL     1       2.187   1.957  17.388  0.00  0.00    +0.000 F 
ENDBRANCH   3   9
BRANCH   1  13
ATOM     13  O   UNL     1       1.846   6.718  21.005  0.00  0.00    +0.000 OA
ATOM     14  H   UNL     1       0.893   6.859  20.904  0.00  0.00    +0.000 HD
ENDBRANCH   1  13
BRANCH   6  15
ATOM     15  C   UNL     1       4.878   5.602  16.192  0.00  0.00    +0.000 C 
BRANCH  15  16
ATOM     16  C   UNL     1       6.050   4.628  16.015  0.00  0.00    +0.000 C 
BRANCH  16  17
ATOM     17  C   UNL     1       6.436   4.466  14.563  0.00  0.00    +0.000 A 
ATOM     18  C   UNL     1       7.464   5.240  14.009  0.00  0.00    +0.000 A 
ATOM     19  C   UNL     1       7.803   5.107  12.660  0.00  0.00    +0.000 A 
ATOM     20  C   UNL     1       7.116   4.201  11.853  0.00  0.00    +0.000 A 
ATOM     21  C   UNL     1       6.091   3.429  12.395  0.00  0.00    +0.000 A 
ATOM     22  C   UNL     1       5.750   3.561  13.742  0.00  0.00    +0.000 A 
ENDBRANCH  16  17
ENDBRANCH  15  16
ENDBRANCH   6  15
TORSDOF 5
ENDMDL
