MODEL 1
REMARK VINA RESULT:      -7.6      0.000      0.000
REMARK  Name = 
REMARK  5 active torsions:
REMARK  status: ('A' for Active; 'I' for Inactive)
REMARK    1  A    between atoms: C_1  and  O_2
REMARK    2  A    between atoms: O_2  and  C_3
REMARK    3  A    between atoms: C_4  and  C_5
REMARK    4  A    between atoms: C_5  and  C_6
REMARK    5  A    between atoms: C_12  and  C_13
REMARK                            x       y       z     vdW  Elec       q    Type
REMARK                         _______ _______ _______ _____ _____    ______ ____
ROOT
ATOM      1  C   UNL     1       5.390   4.043  16.636  0.00  0.00    +0.000 A 
ATOM      2  C   UNL     1       5.958   4.859  17.651  0.00  0.00    +0.000 A 
ATOM      3  C   UNL     1       6.939   5.774  17.268  0.00  0.00    +0.000 A 
ATOM      4  C   UNL     1       7.574   6.774  18.190  0.00  0.00    +0.000 C 
ATOM      5  N   UNL     1       7.406   5.841  16.000  0.00  0.00    +0.000 NA
ATOM      6  C   UNL     1       6.898   5.046  15.055  0.00  0.00    +0.000 A 
ATOM      7  C   UNL     1       7.459   5.165  13.789  0.00  0.00    +0.000 A 
ATOM      8  C   UNL     1       7.018   4.407  12.706  0.00  0.00    +0.000 A 
ATOM      9  C   UNL     1       5.964   3.535  12.892  0.00  0.00    +0.000 A 
ATOM     10 CL   UNL     1       5.389   2.584  11.579  0.00  0.00    +0.000 Cl
ATOM     11  C   UNL     1       5.371   3.416  14.150  0.00  0.00    +0.000 A 
ATOM     12  C   UNL     1       5.851   4.133  15.288  0.00  0.00    +0.000 A 
ENDROOT
BRANCH   1  14
ATOM     13  C   UNL     1       3.013   3.571  16.759  0.00  0.00    +0.000 C 
ATOM     14  O   UNL     1       4.354   3.265  17.097  0.00  0.00    +0.000 OA
ENDBRANCH   1  14
BRANCH   2  15
ATOM     15  C   UNL     1       5.548   4.695  19.108  0.00  0.00    +0.000 C 
BRANCH  15  16
ATOM     16  C   UNL     1       4.148   5.115  19.499  0.00  0.00    +0.000 A 
ATOM     17  C   UNL     1       3.352   4.351  20.364  0.00  0.00    +0.000 A 
ATOM     18  C   UNL     1       2.122   4.833  20.818  0.00  0.00    +0.000 A 
ATOM     19  C   UNL     1       1.671   6.090  20.421  0.00  0.00    +0.000 A 
ATOM     20  C   UNL     1       2.444   6.860  19.557  0.00  0.00    +0.000 A 
ATOM     21  C   UNL     1       3.673   6.377  19.100  0.00  0.00    +0.000 A 
ENDBRANCH  15  16
ENDBRANCH   2  15
TORSDOF 3
ENDMDL
MODEL 2
REMARK VINA RESULT:      -7.6      0.986      1.301
REMARK  Name = 
REMARK  5 active torsions:
REMARK  status: ('A' for Active; 'I' for Inactive)
REMARK    1  A    between atoms: C_1  and  O_2
REMARK    2  A    between atoms: O_2  and  C_3
REMARK    3  A    between atoms: C_4  and  C_5
REMARK    4  A    between atoms: C_5  and  C_6
REMARK    5  A    between atoms: C_12  and  C_13
REMARK                            x       y       z     vdW  Elec       q    Type
REMARK                         _______ _______ _______ _____ _____    ______ ____
ROOT
ATOM      1  C   UNL     1       5.033   4.513  16.118  0.00  0.00    +0.000 A 
ATOM      2  C   UNL     1       5.616   5.376  17.084  0.00  0.00    +0.000 A 
ATOM      3  C   UNL     1       6.777   6.058  16.721  0.00  0.00    +0.000 A 
ATOM      4  C   UNL     1       7.468   7.076  17.581  0.00  0.00    +0.000 C 
ATOM      5  N   UNL     1       7.388   5.858  15.531  0.00  0.00    +0.000 NA
ATOM      6  C   UNL     1       6.860   5.016  14.639  0.00  0.00    +0.000 A 
ATOM      7  C   UNL     1       7.570   4.852  13.456  0.00  0.00    +0.000 A 
ATOM      8  C   UNL     1       7.129   4.015  12.433  0.00  0.00    +0.000 A 
ATOM      9  C   UNL     1       5.926   3.357  12.587  0.00  0.00    +0.000 A 
ATOM     10 CL   UNL     1       5.346   2.317  11.345  0.00  0.00    +0.000 Cl
ATOM     11  C   UNL     1       5.184   3.524  13.758  0.00  0.00    +0.000 A 
ATOM     12  C   UNL     1       5.650   4.323  14.845  0.00  0.00    +0.000 A 
ENDROOT
BRANCH   1  14
ATOM     13  C   UNL     1       3.793   2.803  17.313  0.00  0.00    +0.000 C 
ATOM     14  O   UNL     1       3.833   3.985  16.532  0.00  0.00    +0.000 OA
ENDBRANCH   1  14
BRANCH   2  15
ATOM     15  C   UNL     1       5.022   5.501  18.481  0.00  0.00    +0.000 C 
BRANCH  15  16
ATOM     16  C   UNL     1       3.812   6.392  18.656  0.00  0.00    +0.000 A 
ATOM     17  C   UNL     1       2.988   6.319  19.787  0.00  0.00    +0.000 A 
ATOM     18  C   UNL     1       1.963   7.248  19.988  0.00  0.00    +0.000 A 
ATOM     19  C   UNL     1       1.751   8.269  19.065  0.00  0.00    +0.000 A 
ATOM     20  C   UNL     1       2.555   8.353  17.931  0.00  0.00    +0.000 A 
ATOM     21  C   UNL     1       3.578   7.424  17.729  0.00  0.00    +0.000 A 
ENDBRANCH  15  16
ENDBRANCH   2  15
TORSDOF 3
ENDMDL
MODEL 3
REMARK VINA RESULT:      -7.5      0.115      1.057
REMARK  Name = 
REMARK  5 active torsions:
REMARK  status: ('A' for Active; 'I' for Inactive)
REMARK    1  A    between atoms: C_1  and  O_2
REMARK    2  A    between atoms: O_2  and  C_3
REMARK    3  A    between atoms: C_4  and  C_5
REMARK    4  A    between atoms: C_5  and  C_6
REMARK    5  A    between atoms: C_12  and  C_13
REMARK                            x       y       z     vdW  Elec       q    Type
REMARK                         _______ _______ _______ _____ _____    ______ ____
ROOT
ATOM      1  C   UNL     1       5.416   4.022  16.604  0.00  0.00    +0.000 A 
ATOM      2  C   UNL     1       5.990   4.838  17.614  0.00  0.00    +0.000 A 
ATOM      3  C   UNL     1       6.965   5.757  17.224  0.00  0.00    +0.000 A 
ATOM      4  C   UNL     1       7.605   6.757  18.142  0.00  0.00    +0.000 C 
ATOM      5  N   UNL     1       7.420   5.828  15.952  0.00  0.00    +0.000 NA
ATOM      6  C   UNL     1       6.906   5.033  15.010  0.00  0.00    +0.000 A 
ATOM      7  C   UNL     1       7.454   5.156  13.739  0.00  0.00    +0.000 A 
ATOM      8  C   UNL     1       7.006   4.398  12.659  0.00  0.00    +0.000 A 
ATOM      9  C   UNL     1       5.956   3.523  12.853  0.00  0.00    +0.000 A 
ATOM     10 CL   UNL     1       5.372   2.572  11.544  0.00  0.00    +0.000 Cl
ATOM     11  C   UNL     1       5.376   3.399  14.117  0.00  0.00    +0.000 A 
ATOM     12  C   UNL     1       5.864   4.116  15.251  0.00  0.00    +0.000 A 
ENDROOT
BRANCH   1  14
ATOM     13  C   UNL     1       3.039   3.576  16.799  0.00  0.00    +0.000 C 
ATOM     14  O   UNL     1       4.387   3.240  17.072  0.00  0.00    +0.000 OA
ENDBRANCH   1  14
BRANCH   2  15
ATOM     15  C   UNL     1       5.594   4.670  19.075  0.00  0.00    +0.000 C 
BRANCH  15  16
ATOM     16  C   UNL     1       4.269   5.250  19.518  0.00  0.00    +0.000 A 
ATOM     17  C   UNL     1       3.771   6.454  19.002  0.00  0.00    +0.000 A 
ATOM     18  C   UNL     1       2.484   6.892  19.323  0.00  0.00    +0.000 A 
ATOM     19  C   UNL     1       1.671   6.130  20.159  0.00  0.00    +0.000 A 
ATOM     20  C   UNL     1       2.152   4.935  20.687  0.00  0.00    +0.000 A 
ATOM     21  C   UNL     1       3.439   4.497  20.369  0.00  0.00    +0.000 A 
ENDBRANCH  15  16
ENDBRANCH   2  15
TORSDOF 3
ENDMDL
MODEL 4
REMARK VINA RESULT:      -7.4      0.995      1.626
REMARK  Name = 
REMARK  5 active torsions:
REMARK  status: ('A' for Active; 'I' for Inactive)
REMARK    1  A    between atoms: C_1  and  O_2
REMARK    2  A    between atoms: O_2  and  C_3
REMARK    3  A    between atoms: C_4  and  C_5
REMARK    4  A    between atoms: C_5  and  C_6
REMARK    5  A    between atoms: C_12  and  C_13
REMARK                            x       y       z     vdW  Elec       q    Type
REMARK                         _______ _______ _______ _____ _____    ______ ____
ROOT
ATOM      1  C   UNL     1       5.035   4.494  16.095  0.00  0.00    +0.000 A 
ATOM      2  C   UNL     1       5.623   5.352  17.062  0.00  0.00    +0.000 A 
ATOM      3  C   UNL     1       6.783   6.034  16.697  0.00  0.00    +0.000 A 
ATOM      4  C   UNL     1       7.478   7.048  17.560  0.00  0.00    +0.000 C 
ATOM      5  N   UNL     1       7.390   5.839  15.505  0.00  0.00    +0.000 NA
ATOM      6  C   UNL     1       6.857   5.002  14.611  0.00  0.00    +0.000 A 
ATOM      7  C   UNL     1       7.563   4.842  13.424  0.00  0.00    +0.000 A 
ATOM      8  C   UNL     1       7.116   4.011  12.399  0.00  0.00    +0.000 A 
ATOM      9  C   UNL     1       5.913   3.353  12.555  0.00  0.00    +0.000 A 
ATOM     10 CL   UNL     1       5.327   2.319  11.311  0.00  0.00    +0.000 Cl
ATOM     11  C   UNL     1       5.177   3.516  13.729  0.00  0.00    +0.000 A 
ATOM     12  C   UNL     1       5.647   4.309  14.818  0.00  0.00    +0.000 A 
ENDROOT
BRANCH   1  14
ATOM     13  C   UNL     1       3.799   2.789  17.300  0.00  0.00    +0.000 C 
ATOM     14  O   UNL     1       3.836   3.964  16.511  0.00  0.00    +0.000 OA
ENDBRANCH   1  14
BRANCH   2  15
ATOM     15  C   UNL     1       5.035   5.471  18.462  0.00  0.00    +0.000 C 
BRANCH  15  16
ATOM     16  C   UNL     1       3.933   6.485  18.680  0.00  0.00    +0.000 A 
ATOM     17  C   UNL     1       3.632   7.476  17.736  0.00  0.00    +0.000 A 
ATOM     18  C   UNL     1       2.520   8.306  17.900  0.00  0.00    +0.000 A 
ATOM     19  C   UNL     1       1.687   8.154  19.006  0.00  0.00    +0.000 A 
ATOM     20  C   UNL     1       1.975   7.181  19.959  0.00  0.00    +0.000 A 
ATOM     21  C   UNL     1       3.088   6.351  19.797  0.00  0.00    +0.000 A 
ENDBRANCH  15  16
ENDBRANCH   2  15
TORSDOF 3
ENDMDL
MODEL 5
REMARK VINA RESULT:      -7.1      3.087      5.799
REMARK  Name = 
REMARK  5 active torsions:
REMARK  status: ('A' for Active; 'I' for Inactive)
REMARK    1  A    between atoms: C_1  and  O_2
REMARK    2  A    between atoms: O_2  and  C_3
REMARK    3  A    between atoms: C_4  and  C_5
REMARK    4  A    between atoms: C_5  and  C_6
REMARK    5  A    between atoms: C_12  and  C_13
REMARK                            x       y       z     vdW  Elec       q    Type
REMARK                         _______ _______ _______ _____ _____    ______ ____
ROOT
ATOM      1  C   UNL     1       3.879   5.500  18.025  0.00  0.00    +0.000 A 
ATOM      2  C   UNL     1       4.713   5.488  16.875  0.00  0.00    +0.000 A 
ATOM      3  C   UNL     1       4.905   4.266  16.231  0.00  0.00    +0.000 A 
ATOM      4  C   UNL     1       5.676   4.090  14.955  0.00  0.00    +0.000 C 
ATOM      5  N   UNL     1       4.394   3.110  16.713  0.00  0.00    +0.000 NA
ATOM      6  C   UNL     1       3.642   3.117  17.816  0.00  0.00    +0.000 A 
ATOM      7  C   UNL     1       3.183   1.880  18.252  0.00  0.00    +0.000 A 
ATOM      8  C   UNL     1       2.379   1.741  19.382  0.00  0.00    +0.000 A 
ATOM      9  C   UNL     1       1.995   2.876  20.067  0.00  0.00    +0.000 A 
ATOM     10 CL   UNL     1       1.000   2.746  21.464  0.00  0.00    +0.000 Cl
ATOM     11  C   UNL     1       2.426   4.131  19.633  0.00  0.00    +0.000 A 
ATOM     12  C   UNL     1       3.305   4.290  18.520  0.00  0.00    +0.000 A 
ENDROOT
BRANCH   1  14
ATOM     13  C   UNL     1       2.456   7.455  18.226  0.00  0.00    +0.000 C 
ATOM     14  O   UNL     1       3.661   6.768  18.511  0.00  0.00    +0.000 OA
ENDBRANCH   1  14
BRANCH   2  15
ATOM     15  C   UNL     1       5.415   6.755  16.404  0.00  0.00    +0.000 C 
BRANCH  15  16
ATOM     16  C   UNL     1       6.626   7.221  17.183  0.00  0.00    +0.000 A 
ATOM     17  C   UNL     1       7.054   8.556  17.169  0.00  0.00    +0.000 A 
ATOM     18  C   UNL     1       8.087   8.985  18.008  0.00  0.00    +0.000 A 
ATOM     19  C   UNL     1       8.702   8.088  18.878  0.00  0.00    +0.000 A 
ATOM     20  C   UNL     1       8.295   6.757  18.900  0.00  0.00    +0.000 A 
ATOM     21  C   UNL     1       7.264   6.327  18.061  0.00  0.00    +0.000 A 
ENDBRANCH  15  16
ENDBRANCH   2  15
TORSDOF 3
ENDMDL
MODEL 6
REMARK VINA RESULT:      -6.9      4.134      7.215
REMARK  Name = 
REMARK  5 active torsions:
REMARK  status: ('A' for Active; 'I' for Inactive)
REMARK    1  A    between atoms: C_1  and  O_2
REMARK    2  A    between atoms: O_2  and  C_3
REMARK    3  A    between atoms: C_4  and  C_5
REMARK    4  A    between atoms: C_5  and  C_6
REMARK    5  A    between atoms: C_12  and  C_13
REMARK                            x       y       z     vdW  Elec       q    Type
REMARK                         _______ _______ _______ _____ _____    ______ ____
ROOT
ATOM      1  C   UNL     1       2.232   6.473  19.927  0.00  0.00    +0.000 A 
ATOM      2  C   UNL     1       2.956   6.316  18.716  0.00  0.00    +0.000 A 
ATOM      3  C   UNL     1       3.061   7.427  17.879  0.00  0.00    +0.000 A 
ATOM      4  C   UNL     1       3.866   7.463  16.613  0.00  0.00    +0.000 C 
ATOM      5  N   UNL     1       2.435   8.595  18.150  0.00  0.00    +0.000 NA
ATOM      6  C   UNL     1       1.722   8.729  19.271  0.00  0.00    +0.000 A 
ATOM      7  C   UNL     1       1.092   9.955  19.453  0.00  0.00    +0.000 A 
ATOM      8  C   UNL     1       0.326  10.237  20.582  0.00  0.00    +0.000 A 
ATOM      9  C   UNL     1       0.222   9.279  21.570  0.00  0.00    +0.000 A 
ATOM     10 CL   UNL     1      -0.712   9.591  22.980  0.00  0.00    +0.000 Cl
ATOM     11  C   UNL     1       0.865   8.049  21.419  0.00  0.00    +0.000 A 
ATOM     12  C   UNL     1       1.598   7.714  20.241  0.00  0.00    +0.000 A 
ENDROOT
BRANCH   1  14
ATOM     13  C   UNL     1       1.280   4.368  20.668  0.00  0.00    +0.000 C 
ATOM     14  O   UNL     1       2.289   5.359  20.731  0.00  0.00    +0.000 OA
ENDBRANCH   1  14
BRANCH   2  15
ATOM     15  C   UNL     1       3.543   4.966  18.325  0.00  0.00    +0.000 C 
BRANCH  15  16
ATOM     16  C   UNL     1       5.049   4.854  18.227  0.00  0.00    +0.000 A 
ATOM     17  C   UNL     1       5.688   4.379  17.073  0.00  0.00    +0.000 A 
ATOM     18  C   UNL     1       7.080   4.420  16.958  0.00  0.00    +0.000 A 
ATOM     19  C   UNL     1       7.855   4.943  17.991  0.00  0.00    +0.000 A 
ATOM     20  C   UNL     1       7.238   5.412  19.148  0.00  0.00    +0.000 A 
ATOM     21  C   UNL     1       5.846   5.369  19.264  0.00  0.00    +0.000 A 
ENDBRANCH  15  16
ENDBRANCH   2  15
TORSDOF 3
ENDMDL
MODEL 7
REMARK VINA RESULT:      -6.8      3.895      6.434
REMARK  Name = 
REMARK  5 active torsions:
REMARK  status: ('A' for Active; 'I' for Inactive)
REMARK    1  A    between atoms: C_1  and  O_2
REMARK    2  A    between atoms: O_2  and  C_3
REMARK    3  A    between atoms: C_4  and  C_5
REMARK    4  A    between atoms: C_5  and  C_6
REMARK    5  A    between atoms: C_12  and  C_13
REMARK                            x       y       z     vdW  Elec       q    Type
REMARK                         _______ _______ _______ _____ _____    ______ ____
ROOT
ATOM      1  C   UNL     1       2.727   6.720  18.432  0.00  0.00    +0.000 A 
ATOM      2  C   UNL     1       2.239   7.868  19.110  0.00  0.00    +0.000 A 
ATOM      3  C   UNL     1       1.651   7.677  20.360  0.00  0.00    +0.000 A 
ATOM      4  C   UNL     1       1.169   8.785  21.251  0.00  0.00    +0.000 C 
ATOM      5  N   UNL     1       1.467   6.446  20.889  0.00  0.00    +0.000 NA
ATOM      6  C   UNL     1       1.892   5.363  20.232  0.00  0.00    +0.000 A 
ATOM      7  C   UNL     1       1.635   4.140  20.839  0.00  0.00    +0.000 A 
ATOM      8  C   UNL     1       2.033   2.930  20.272  0.00  0.00    +0.000 A 
ATOM      9  C   UNL     1       2.739   2.955  19.086  0.00  0.00    +0.000 A 
ATOM     10 CL   UNL     1       3.250   1.483  18.356  0.00  0.00    +0.000 Cl
ATOM     11  C   UNL     1       3.027   4.174  18.471  0.00  0.00    +0.000 A 
ATOM     12  C   UNL     1       2.570   5.419  18.999  0.00  0.00    +0.000 A 
ENDROOT
BRANCH   1  14
ATOM     13  C   UNL     1       4.796   6.879  17.175  0.00  0.00    +0.000 C 
ATOM     14  O   UNL     1       3.391   7.030  17.268  0.00  0.00    +0.000 OA
ENDBRANCH   1  14
BRANCH   2  15
ATOM     15  C   UNL     1       2.305   9.246  18.464  0.00  0.00    +0.000 C 
BRANCH  15  16
ATOM     16  C   UNL     1       1.008  10.003  18.282  0.00  0.00    +0.000 A 
ATOM     17  C   UNL     1      -0.140   9.401  17.750  0.00  0.00    +0.000 A 
ATOM     18  C   UNL     1      -1.360  10.082  17.726  0.00  0.00    +0.000 A 
ATOM     19  C   UNL     1      -1.453  11.373  18.241  0.00  0.00    +0.000 A 
ATOM     20  C   UNL     1      -0.321  11.990  18.767  0.00  0.00    +0.000 A 
ATOM     21  C   UNL     1       0.899  11.311  18.789  0.00  0.00    +0.000 A 
ENDBRANCH  15  16
ENDBRANCH   2  15
TORSDOF 3
ENDMDL
MODEL 8
REMARK VINA RESULT:      -6.8      5.141      7.659
REMARK  Name = 
REMARK  5 active torsions:
REMARK  status: ('A' for Active; 'I' for Inactive)
REMARK    1  A    between atoms: C_1  and  O_2
REMARK    2  A    between atoms: O_2  and  C_3
REMARK    3  A    between atoms: C_4  and  C_5
REMARK    4  A    between atoms: C_5  and  C_6
REMARK    5  A    between atoms: C_12  and  C_13
REMARK                            x       y       z     vdW  Elec       q    Type
REMARK                         _______ _______ _______ _____ _____    ______ ____
ROOT
ATOM      1  C   UNL     1       1.468   9.511  18.723  0.00  0.00    +0.000 A 
ATOM      2  C   UNL     1       0.598   9.810  19.804  0.00  0.00    +0.000 A 
ATOM      3  C   UNL     1       0.540   8.897  20.857  0.00  0.00    +0.000 A 
ATOM      4  C   UNL     1      -0.252   9.101  22.116  0.00  0.00    +0.000 C 
ATOM      5  N   UNL     1       1.216   7.725  20.833  0.00  0.00    +0.000 NA
ATOM      6  C   UNL     1       2.004   7.428  19.797  0.00  0.00    +0.000 A 
ATOM      7  C   UNL     1       2.637   6.191  19.845  0.00  0.00    +0.000 A 
ATOM      8  C   UNL     1       3.497   5.757  18.838  0.00  0.00    +0.000 A 
ATOM      9  C   UNL     1       3.758   6.600  17.778  0.00  0.00    +0.000 A 
ATOM     10 CL   UNL     1       4.817   6.101  16.517  0.00  0.00    +0.000 Cl
ATOM     11  C   UNL     1       3.151   7.856  17.720  0.00  0.00    +0.000 A 
ATOM     12  C   UNL     1       2.214   8.293  18.705  0.00  0.00    +0.000 A 
ENDROOT
BRANCH   1  14
ATOM     13  C   UNL     1       2.429  11.614  17.986  0.00  0.00    +0.000 C 
ATOM     14  O   UNL     1       1.540  10.527  17.799  0.00  0.00    +0.000 OA
ENDBRANCH   1  14
BRANCH   2  15
ATOM     15  C   UNL     1      -0.281  11.054  19.780  0.00  0.00    +0.000 C 
BRANCH  15  16
ATOM     16  C   UNL     1      -1.576  10.987  19.000  0.00  0.00    +0.000 A 
ATOM     17  C   UNL     1      -1.864   9.935  18.120  0.00  0.00    +0.000 A 
ATOM     18  C   UNL     1      -3.123   9.826  17.523  0.00  0.00    +0.000 A 
ATOM     19  C   UNL     1      -4.116  10.762  17.802  0.00  0.00    +0.000 A 
ATOM     20  C   UNL     1      -3.846  11.818  18.668  0.00  0.00    +0.000 A 
ATOM     21  C   UNL     1      -2.587  11.929  19.263  0.00  0.00    +0.000 A 
ENDBRANCH  15  16
ENDBRANCH   2  15
TORSDOF 3
ENDMDL
MODEL 9
REMARK VINA RESULT:      -6.8      3.097      5.712
REMARK  Name = 
REMARK  5 active torsions:
REMARK  status: ('A' for Active; 'I' for Inactive)
REMARK    1  A    between atoms: C_1  and  O_2
REMARK    2  A    between atoms: O_2  and  C_3
REMARK    3  A    between atoms: C_4  and  C_5
REMARK    4  A    between atoms: C_5  and  C_6
REMARK    5  A    between atoms: C_12  and  C_13
REMARK                            x       y       z     vdW  Elec       q    Type
REMARK                         _______ _______ _______ _____ _____    ______ ____
ROOT
ATOM      1  C   UNL     1       3.877   5.499  18.012  0.00  0.00    +0.000 A 
ATOM      2  C   UNL     1       4.722   5.487  16.870  0.00  0.00    +0.000 A 
ATOM      3  C   UNL     1       4.904   4.269  16.215  0.00  0.00    +0.000 A 
ATOM      4  C   UNL     1       5.685   4.097  14.945  0.00  0.00    +0.000 C 
ATOM      5  N   UNL     1       4.372   3.115  16.679  0.00  0.00    +0.000 NA
ATOM      6  C   UNL     1       3.609   3.121  17.774  0.00  0.00    +0.000 A 
ATOM      7  C   UNL     1       3.129   1.886  18.193  0.00  0.00    +0.000 A 
ATOM      8  C   UNL     1       2.311   1.746  19.312  0.00  0.00    +0.000 A 
ATOM      9  C   UNL     1       1.936   2.879  20.006  0.00  0.00    +0.000 A 
ATOM     10 CL   UNL     1       0.925   2.748  21.391  0.00  0.00    +0.000 Cl
ATOM     11  C   UNL     1       2.388   4.132  19.590  0.00  0.00    +0.000 A 
ATOM     12  C   UNL     1       3.281   4.291  18.488  0.00  0.00    +0.000 A 
ENDROOT
BRANCH   1  14
ATOM     13  C   UNL     1       2.494   7.484  18.193  0.00  0.00    +0.000 C 
ATOM     14  O   UNL     1       3.672   6.764  18.510  0.00  0.00    +0.000 OA
ENDBRANCH   1  14
BRANCH   2  15
ATOM     15  C   UNL     1       5.447   6.749  16.421  0.00  0.00    +0.000 C 
BRANCH  15  16
ATOM     16  C   UNL     1       6.539   7.292  17.316  0.00  0.00    +0.000 A 
ATOM     17  C   UNL     1       7.287   6.466  18.166  0.00  0.00    +0.000 A 
ATOM     18  C   UNL     1       8.381   6.972  18.874  0.00  0.00    +0.000 A 
ATOM     19  C   UNL     1       8.749   8.308  18.737  0.00  0.00    +0.000 A 
ATOM     20  C   UNL     1       8.012   9.146  17.904  0.00  0.00    +0.000 A 
ATOM     21  C   UNL     1       6.917   8.642  17.198  0.00  0.00    +0.000 A 
ENDBRANCH  15  16
ENDBRANCH   2  15
TORSDOF 3
ENDMDL
