MODEL 1
REMARK VINA RESULT:      -8.9      0.000      0.000
REMARK  Name = 
REMARK  4 active torsions:
REMARK  status: ('A' for Active; 'I' for Inactive)
REMARK    1  A    between atoms: C_8  and  C_9
REMARK    2  A    between atoms: C_16  and  O_17
REMARK    3  A    between atoms: O_17  and  C_18
REMARK    4  A    between atoms: C_18  and  C_19
REMARK                            x       y       z     vdW  Elec       q    Type
REMARK                         _______ _______ _______ _____ _____    ______ ____
ROOT
ATOM      1  C   UNL     1       3.653   6.468  17.539  0.00  0.00    +0.000 A 
ATOM      2  C   UNL     1       3.425   7.733  17.010  0.00  0.00    +0.000 A 
ATOM      3  C   UNL     1       2.633   8.634  17.710  0.00  0.00    +0.000 A 
ATOM      4  C   UNL     1       2.074   8.263  18.935  0.00  0.00    +0.000 A 
ATOM      5  C   UNL     1       1.273   9.165  19.655  0.00  0.00    +0.000 A 
ATOM      6  C   UNL     1       0.715   8.794  20.874  0.00  0.00    +0.000 A 
ATOM      7  C   UNL     1       0.957   7.522  21.382  0.00  0.00    +0.000 A 
ATOM      8  C   UNL     1       1.747   6.617  20.659  0.00  0.00    +0.000 A 
ATOM      9  C   UNL     1       2.328   6.966  19.424  0.00  0.00    +0.000 A 
ATOM     10  N   UNL     1       3.090   6.093  18.714  0.00  0.00    +0.000 NA
ENDROOT
BRANCH   1  18
ATOM     11  O   UNL     1       8.783   3.905  18.051  0.00  0.00    +0.000 OA
ATOM     12  C   UNL     1       7.830   4.636  17.846  0.00  0.00    +0.000 C 
ATOM     13  N   UNL     1       7.652   5.902  18.338  0.00  0.00    +0.000 N 
ATOM     14  C   UNL     1       6.729   6.586  17.610  0.00  0.00    +0.000 C 
ATOM     15  O   UNL     1       6.626   7.793  17.470  0.00  0.00    +0.000 OA
ATOM     16  C   UNL     1       6.003   5.548  16.805  0.00  0.00    +0.000 C 
ATOM     17  C   UNL     1       5.259   5.869  15.545  0.00  0.00    +0.000 C 
ATOM     18  C   UNL     1       4.494   5.464  16.790  0.00  0.00    +0.000 C 
ATOM     19  N   UNL     1       6.791   4.361  16.966  0.00  0.00    +0.000 N 
ATOM     20  H   UNL     1       8.359   6.367  18.884  0.00  0.00    +0.000 HD
ATOM     21  H   UNL     1       6.865   3.599  16.307  0.00  0.00    +0.000 HD
ENDBRANCH   1  18
BRANCH   8  22
ATOM     22  O   UNL     1       2.048   5.363  21.142  0.00  0.00    +0.000 OA
BRANCH  22  23
ATOM     23  C   UNL     1       1.220   4.289  20.693  0.00  0.00    +0.000 C 
BRANCH  23  24
ATOM     24  C   UNL     1       2.034   3.367  19.811  0.00  0.00    +0.000 A 
ATOM     25  C   UNL     1       3.266   2.864  20.253  0.00  0.00    +0.000 A 
ATOM     26  C   UNL     1       4.019   2.018  19.435  0.00  0.00    +0.000 A 
ATOM     27  C   UNL     1       3.541   1.652  18.177  0.00  0.00    +0.000 A 
ATOM     28  C   UNL     1       2.302   2.117  17.741  0.00  0.00    +0.000 A 
ATOM     29  C   UNL     1       1.550   2.962  18.556  0.00  0.00    +0.000 A 
ENDBRANCH  23  24
ENDBRANCH  22  23
ENDBRANCH   8  22
TORSDOF 4
ENDMDL
MODEL 2
REMARK VINA RESULT:      -8.3      1.616      4.779
REMARK  Name = 
REMARK  4 active torsions:
REMARK  status: ('A' for Active; 'I' for Inactive)
REMARK    1  A    between atoms: C_8  and  C_9
REMARK    2  A    between atoms: C_16  and  O_17
REMARK    3  A    between atoms: O_17  and  C_18
REMARK    4  A    between atoms: C_18  and  C_19
REMARK                            x       y       z     vdW  Elec       q    Type
REMARK                         _______ _______ _______ _____ _____    ______ ____
ROOT
ATOM      1  C   UNL     1       4.604   3.713  17.297  0.00  0.00    +0.000 A 
ATOM      2  C   UNL     1       4.159   2.405  17.144  0.00  0.00    +0.000 A 
ATOM      3  C   UNL     1       3.062   1.967  17.875  0.00  0.00    +0.000 A 
ATOM      4  C   UNL     1       2.419   2.840  18.754  0.00  0.00    +0.000 A 
ATOM      5  C   UNL     1       1.306   2.411  19.498  0.00  0.00    +0.000 A 
ATOM      6  C   UNL     1       0.667   3.281  20.375  0.00  0.00    +0.000 A 
ATOM      7  C   UNL     1       1.132   4.584  20.511  0.00  0.00    +0.000 A 
ATOM      8  C   UNL     1       2.249   5.011  19.777  0.00  0.00    +0.000 A 
ATOM      9  C   UNL     1       2.914   4.154  18.879  0.00  0.00    +0.000 A 
ATOM     10  N   UNL     1       4.001   4.556  18.170  0.00  0.00    +0.000 NA
ENDROOT
BRANCH   1  18
ATOM     11  O   UNL     1       8.175   8.230  17.324  0.00  0.00    +0.000 OA
ATOM     12  C   UNL     1       7.270   7.425  17.188  0.00  0.00    +0.000 C 
ATOM     13  N   UNL     1       5.970   7.587  17.591  0.00  0.00    +0.000 N 
ATOM     14  C   UNL     1       5.145   6.723  16.939  0.00  0.00    +0.000 C 
ATOM     15  O   UNL     1       3.953   6.849  16.712  0.00  0.00    +0.000 OA
ATOM     16  C   UNL     1       6.046   5.688  16.331  0.00  0.00    +0.000 C 
ATOM     17  C   UNL     1       5.643   4.843  15.162  0.00  0.00    +0.000 C 
ATOM     18  C   UNL     1       5.805   4.209  16.529  0.00  0.00    +0.000 C 
ATOM     19  N   UNL     1       7.364   6.232  16.484  0.00  0.00    +0.000 N 
ATOM     20  H   UNL     1       5.638   8.447  17.994  0.00  0.00    +0.000 HD
ATOM     21  H   UNL     1       8.158   6.049  15.889  0.00  0.00    +0.000 HD
ENDBRANCH   1  18
BRANCH   8  22
ATOM     22  O   UNL     1       2.718   6.304  19.848  0.00  0.00    +0.000 OA
BRANCH  22  23
ATOM     23  C   UNL     1       2.051   7.176  20.762  0.00  0.00    +0.000 C 
BRANCH  23  24
ATOM     24  C   UNL     1       1.468   8.347  20.000  0.00  0.00    +0.000 A 
ATOM     25  C   UNL     1       0.581   9.233  20.627  0.00  0.00    +0.000 A 
ATOM     26  C   UNL     1       0.039  10.309  19.920  0.00  0.00    +0.000 A 
ATOM     27  C   UNL     1       0.391  10.521  18.588  0.00  0.00    +0.000 A 
ATOM     28  C   UNL     1       1.298   9.667  17.964  0.00  0.00    +0.000 A 
ATOM     29  C   UNL     1       1.839   8.592  18.668  0.00  0.00    +0.000 A 
ENDBRANCH  23  24
ENDBRANCH  22  23
ENDBRANCH   8  22
TORSDOF 4
ENDMDL
MODEL 3
REMARK VINA RESULT:      -8.2      1.611      4.638
REMARK  Name = 
REMARK  4 active torsions:
REMARK  status: ('A' for Active; 'I' for Inactive)
REMARK    1  A    between atoms: C_8  and  C_9
REMARK    2  A    between atoms: C_16  and  O_17
REMARK    3  A    between atoms: O_17  and  C_18
REMARK    4  A    between atoms: C_18  and  C_19
REMARK                            x       y       z     vdW  Elec       q    Type
REMARK                         _______ _______ _______ _____ _____    ______ ____
ROOT
ATOM      1  C   UNL     1       5.066   3.738  17.768  0.00  0.00    +0.000 A 
ATOM      2  C   UNL     1       4.579   2.590  17.154  0.00  0.00    +0.000 A 
ATOM      3  C   UNL     1       3.303   2.138  17.464  0.00  0.00    +0.000 A 
ATOM      4  C   UNL     1       2.523   2.837  18.387  0.00  0.00    +0.000 A 
ATOM      5  C   UNL     1       1.230   2.392  18.709  0.00  0.00    +0.000 A 
ATOM      6  C   UNL     1       0.454   3.088  19.630  0.00  0.00    +0.000 A 
ATOM      7  C   UNL     1       0.963   4.234  20.231  0.00  0.00    +0.000 A 
ATOM      8  C   UNL     1       2.258   4.673  19.919  0.00  0.00    +0.000 A 
ATOM      9  C   UNL     1       3.066   3.991  18.988  0.00  0.00    +0.000 A 
ATOM     10  N   UNL     1       4.323   4.405  18.685  0.00  0.00    +0.000 NA
ENDROOT
BRANCH   1  18
ATOM     11  O   UNL     1       7.949   8.723  17.782  0.00  0.00    +0.000 OA
ATOM     12  C   UNL     1       7.258   7.744  17.555  0.00  0.00    +0.000 C 
ATOM     13  N   UNL     1       5.914   7.739  17.290  0.00  0.00    +0.000 N 
ATOM     14  C   UNL     1       5.538   6.581  16.684  0.00  0.00    +0.000 C 
ATOM     15  O   UNL     1       4.585   6.394  15.946  0.00  0.00    +0.000 OA
ATOM     16  C   UNL     1       6.676   5.627  16.901  0.00  0.00    +0.000 C 
ATOM     17  C   UNL     1       6.913   4.431  16.030  0.00  0.00    +0.000 C 
ATOM     18  C   UNL     1       6.456   4.241  17.462  0.00  0.00    +0.000 C 
ATOM     19  N   UNL     1       7.737   6.449  17.404  0.00  0.00    +0.000 N 
ATOM     20  H   UNL     1       5.384   8.590  17.201  0.00  0.00    +0.000 HD
ATOM     21  H   UNL     1       8.727   6.277  17.300  0.00  0.00    +0.000 HD
ENDBRANCH   1  18
BRANCH   8  22
ATOM     22  O   UNL     1       2.788   5.824  20.457  0.00  0.00    +0.000 OA
BRANCH  22  23
ATOM     23  C   UNL     1       1.854   6.810  20.902  0.00  0.00    +0.000 C 
BRANCH  23  24
ATOM     24  C   UNL     1       1.778   7.923  19.879  0.00  0.00    +0.000 A 
ATOM     25  C   UNL     1       2.378   7.775  18.621  0.00  0.00    +0.000 A 
ATOM     26  C   UNL     1       2.314   8.806  17.681  0.00  0.00    +0.000 A 
ATOM     27  C   UNL     1       1.634   9.985  17.980  0.00  0.00    +0.000 A 
ATOM     28  C   UNL     1       1.003  10.131  19.214  0.00  0.00    +0.000 A 
ATOM     29  C   UNL     1       1.068   9.103  20.154  0.00  0.00    +0.000 A 
ENDBRANCH  23  24
ENDBRANCH  22  23
ENDBRANCH   8  22
TORSDOF 4
ENDMDL
MODEL 4
REMARK VINA RESULT:      -8.2      1.589      4.614
REMARK  Name = 
REMARK  4 active torsions:
REMARK  status: ('A' for Active; 'I' for Inactive)
REMARK    1  A    between atoms: C_8  and  C_9
REMARK    2  A    between atoms: C_16  and  O_17
REMARK    3  A    between atoms: O_17  and  C_18
REMARK    4  A    between atoms: C_18  and  C_19
REMARK                            x       y       z     vdW  Elec       q    Type
REMARK                         _______ _______ _______ _____ _____    ______ ____
ROOT
ATOM      1  C   UNL     1       3.817   4.902  17.392  0.00  0.00    +0.000 A 
ATOM      2  C   UNL     1       3.691   3.584  16.969  0.00  0.00    +0.000 A 
ATOM      3  C   UNL     1       3.077   2.655  17.799  0.00  0.00    +0.000 A 
ATOM      4  C   UNL     1       2.595   3.051  19.048  0.00  0.00    +0.000 A 
ATOM      5  C   UNL     1       1.970   2.123  19.897  0.00  0.00    +0.000 A 
ATOM      6  C   UNL     1       1.491   2.518  21.142  0.00  0.00    +0.000 A 
ATOM      7  C   UNL     1       1.630   3.841  21.544  0.00  0.00    +0.000 A 
ATOM      8  C   UNL     1       2.264   4.767  20.702  0.00  0.00    +0.000 A 
ATOM      9  C   UNL     1       2.755   4.397  19.434  0.00  0.00    +0.000 A 
ATOM     10  N   UNL     1       3.376   5.285  18.615  0.00  0.00    +0.000 NA
ENDROOT
BRANCH   1  18
ATOM     11  O   UNL     1       8.272   5.193  13.755  0.00  0.00    +0.000 OA
ATOM     12  C   UNL     1       7.504   5.162  14.701  0.00  0.00    +0.000 C 
ATOM     13  N   UNL     1       7.546   4.288  15.756  0.00  0.00    +0.000 N 
ATOM     14  C   UNL     1       6.839   4.765  16.815  0.00  0.00    +0.000 C 
ATOM     15  O   UNL     1       6.992   4.509  17.998  0.00  0.00    +0.000 OA
ATOM     16  C   UNL     1       5.986   5.871  16.264  0.00  0.00    +0.000 C 
ATOM     17  C   UNL     1       5.422   6.966  17.116  0.00  0.00    +0.000 C 
ATOM     18  C   UNL     1       4.496   5.927  16.517  0.00  0.00    +0.000 C 
ATOM     19  N   UNL     1       6.504   6.094  14.946  0.00  0.00    +0.000 N 
ATOM     20  H   UNL     1       8.286   3.614  15.862  0.00  0.00    +0.000 HD
ATOM     21  H   UNL     1       6.475   6.962  14.432  0.00  0.00    +0.000 HD
ENDBRANCH   1  18
BRANCH   8  22
ATOM     22  O   UNL     1       2.386   6.096  21.039  0.00  0.00    +0.000 OA
BRANCH  22  23
ATOM     23  C   UNL     1       1.180   6.863  21.063  0.00  0.00    +0.000 C 
BRANCH  23  24
ATOM     24  C   UNL     1       1.329   8.054  20.140  0.00  0.00    +0.000 A 
ATOM     25  C   UNL     1       2.016   7.930  18.924  0.00  0.00    +0.000 A 
ATOM     26  C   UNL     1       2.158   9.031  18.076  0.00  0.00    +0.000 A 
ATOM     27  C   UNL     1       1.598  10.260  18.425  0.00  0.00    +0.000 A 
ATOM     28  C   UNL     1       0.883  10.386  19.613  0.00  0.00    +0.000 A 
ATOM     29  C   UNL     1       0.742   9.288  20.461  0.00  0.00    +0.000 A 
ENDBRANCH  23  24
ENDBRANCH  22  23
ENDBRANCH   8  22
TORSDOF 4
ENDMDL
MODEL 5
REMARK VINA RESULT:      -8.1      1.683      4.825
REMARK  Name = 
REMARK  4 active torsions:
REMARK  status: ('A' for Active; 'I' for Inactive)
REMARK    1  A    between atoms: C_8  and  C_9
REMARK    2  A    between atoms: C_16  and  O_17
REMARK    3  A    between atoms: O_17  and  C_18
REMARK    4  A    between atoms: C_18  and  C_19
REMARK                            x       y       z     vdW  Elec       q    Type
REMARK                         _______ _______ _______ _____ _____    ______ ____
ROOT
ATOM      1  C   UNL     1       4.975   3.781  17.736  0.00  0.00    +0.000 A 
ATOM      2  C   UNL     1       4.486   2.525  17.400  0.00  0.00    +0.000 A 
ATOM      3  C   UNL     1       3.256   2.115  17.896  0.00  0.00    +0.000 A 
ATOM      4  C   UNL     1       2.522   2.965  18.726  0.00  0.00    +0.000 A 
ATOM      5  C   UNL     1       1.275   2.565  19.233  0.00  0.00    +0.000 A 
ATOM      6  C   UNL     1       0.546   3.412  20.061  0.00  0.00    +0.000 A 
ATOM      7  C   UNL     1       1.057   4.664  20.384  0.00  0.00    +0.000 A 
ATOM      8  C   UNL     1       2.307   5.061  19.888  0.00  0.00    +0.000 A 
ATOM      9  C   UNL     1       3.066   4.226  19.044  0.00  0.00    +0.000 A 
ATOM     10  N   UNL     1       4.281   4.600  18.564  0.00  0.00    +0.000 NA
ENDROOT
BRANCH   1  18
ATOM     11  O   UNL     1       8.152   8.584  17.695  0.00  0.00    +0.000 OA
ATOM     12  C   UNL     1       7.366   7.671  17.508  0.00  0.00    +0.000 C 
ATOM     13  N   UNL     1       5.998   7.763  17.501  0.00  0.00    +0.000 N 
ATOM     14  C   UNL     1       5.440   6.698  16.865  0.00  0.00    +0.000 C 
ATOM     15  O   UNL     1       4.358   6.640  16.305  0.00  0.00    +0.000 OA
ATOM     16  C   UNL     1       6.529   5.670  16.771  0.00  0.00    +0.000 C 
ATOM     17  C   UNL     1       6.520   4.566  15.758  0.00  0.00    +0.000 C 
ATOM     18  C   UNL     1       6.318   4.244  17.225  0.00  0.00    +0.000 C 
ATOM     19  N   UNL     1       7.718   6.378  17.144  0.00  0.00    +0.000 N 
ATOM     20  H   UNL     1       5.522   8.644  17.595  0.00  0.00    +0.000 HD
ATOM     21  H   UNL     1       8.658   6.169  16.840  0.00  0.00    +0.000 HD
ENDBRANCH   1  18
BRANCH   8  22
ATOM     22  O   UNL     1       2.833   6.307  20.147  0.00  0.00    +0.000 OA
BRANCH  22  23
ATOM     23  C   UNL     1       2.459   7.357  19.252  0.00  0.00    +0.000 C 
BRANCH  23  24
ATOM     24  C   UNL     1       1.584   8.350  19.987  0.00  0.00    +0.000 A 
ATOM     25  C   UNL     1       1.342   8.205  21.360  0.00  0.00    +0.000 A 
ATOM     26  C   UNL     1       0.530   9.118  22.036  0.00  0.00    +0.000 A 
ATOM     27  C   UNL     1      -0.032  10.195  21.351  0.00  0.00    +0.000 A 
ATOM     28  C   UNL     1       0.230  10.370  19.994  0.00  0.00    +0.000 A 
ATOM     29  C   UNL     1       1.039   9.458  19.318  0.00  0.00    +0.000 A 
ENDBRANCH  23  24
ENDBRANCH  22  23
ENDBRANCH   8  22
TORSDOF 4
ENDMDL
MODEL 6
REMARK VINA RESULT:      -7.9      3.007      6.606
REMARK  Name = 
REMARK  4 active torsions:
REMARK  status: ('A' for Active; 'I' for Inactive)
REMARK    1  A    between atoms: C_8  and  C_9
REMARK    2  A    between atoms: C_16  and  O_17
REMARK    3  A    between atoms: O_17  and  C_18
REMARK    4  A    between atoms: C_18  and  C_19
REMARK                            x       y       z     vdW  Elec       q    Type
REMARK                         _______ _______ _______ _____ _____    ______ ____
ROOT
ATOM      1  C   UNL     1       2.520   6.259  19.618  0.00  0.00    +0.000 A 
ATOM      2  C   UNL     1       3.241   6.470  18.448  0.00  0.00    +0.000 A 
ATOM      3  C   UNL     1       3.139   7.690  17.794  0.00  0.00    +0.000 A 
ATOM      4  C   UNL     1       2.317   8.692  18.314  0.00  0.00    +0.000 A 
ATOM      5  C   UNL     1       2.207   9.933  17.665  0.00  0.00    +0.000 A 
ATOM      6  C   UNL     1       1.386  10.929  18.183  0.00  0.00    +0.000 A 
ATOM      7  C   UNL     1       0.675  10.693  19.354  0.00  0.00    +0.000 A 
ATOM      8  C   UNL     1       0.775   9.452  19.998  0.00  0.00    +0.000 A 
ATOM      9  C   UNL     1       1.601   8.425  19.499  0.00  0.00    +0.000 A 
ATOM     10  N   UNL     1       1.699   7.217  20.112  0.00  0.00    +0.000 NA
ENDROOT
BRANCH   1  18
ATOM     11  O   UNL     1       3.893   0.790  18.450  0.00  0.00    +0.000 OA
ATOM     12  C   UNL     1       3.380   1.886  18.601  0.00  0.00    +0.000 C 
ATOM     13  N   UNL     1       2.835   2.672  17.620  0.00  0.00    +0.000 N 
ATOM     14  C   UNL     1       1.997   3.604  18.149  0.00  0.00    +0.000 C 
ATOM     15  O   UNL     1       1.052   4.156  17.611  0.00  0.00    +0.000 OA
ATOM     16  C   UNL     1       2.310   3.638  19.617  0.00  0.00    +0.000 C 
ATOM     17  C   UNL     1       1.342   4.143  20.643  0.00  0.00    +0.000 C 
ATOM     18  C   UNL     1       2.598   4.934  20.338  0.00  0.00    +0.000 C 
ATOM     19  N   UNL     1       3.145   2.492  19.828  0.00  0.00    +0.000 N 
ATOM     20  H   UNL     1       2.761   2.361  16.666  0.00  0.00    +0.000 HD
ATOM     21  H   UNL     1       3.232   1.967  20.685  0.00  0.00    +0.000 HD
ENDBRANCH   1  18
BRANCH   8  22
ATOM     22  O   UNL     1       0.123   9.189  21.182  0.00  0.00    +0.000 OA
BRANCH  22  23
ATOM     23  C   UNL     1       0.501   9.981  22.309  0.00  0.00    +0.000 C 
BRANCH  23  24
ATOM     24  C   UNL     1      -0.489  11.114  22.478  0.00  0.00    +0.000 A 
ATOM     25  C   UNL     1      -1.679  10.918  23.193  0.00  0.00    +0.000 A 
ATOM     26  C   UNL     1      -2.595  11.962  23.342  0.00  0.00    +0.000 A 
ATOM     27  C   UNL     1      -2.323  13.215  22.795  0.00  0.00    +0.000 A 
ATOM     28  C   UNL     1      -1.128  13.432  22.113  0.00  0.00    +0.000 A 
ATOM     29  C   UNL     1      -0.213  12.391  21.962  0.00  0.00    +0.000 A 
ENDBRANCH  23  24
ENDBRANCH  22  23
ENDBRANCH   8  22
TORSDOF 4
ENDMDL
MODEL 7
REMARK VINA RESULT:      -7.8      1.769      5.032
REMARK  Name = 
REMARK  4 active torsions:
REMARK  status: ('A' for Active; 'I' for Inactive)
REMARK    1  A    between atoms: C_8  and  C_9
REMARK    2  A    between atoms: C_16  and  O_17
REMARK    3  A    between atoms: O_17  and  C_18
REMARK    4  A    between atoms: C_18  and  C_19
REMARK                            x       y       z     vdW  Elec       q    Type
REMARK                         _______ _______ _______ _____ _____    ______ ____
ROOT
ATOM      1  C   UNL     1       5.459   4.401  19.118  0.00  0.00    +0.000 A 
ATOM      2  C   UNL     1       5.209   3.057  18.864  0.00  0.00    +0.000 A 
ATOM      3  C   UNL     1       3.925   2.557  19.033  0.00  0.00    +0.000 A 
ATOM      4  C   UNL     1       2.898   3.404  19.454  0.00  0.00    +0.000 A 
ATOM      5  C   UNL     1       1.593   2.913  19.626  0.00  0.00    +0.000 A 
ATOM      6  C   UNL     1       0.572   3.758  20.048  0.00  0.00    +0.000 A 
ATOM      7  C   UNL     1       0.847   5.098  20.295  0.00  0.00    +0.000 A 
ATOM      8  C   UNL     1       2.151   5.588  20.135  0.00  0.00    +0.000 A 
ATOM      9  C   UNL     1       3.205   4.757  19.706  0.00  0.00    +0.000 A 
ATOM     10  N   UNL     1       4.472   5.222  19.554  0.00  0.00    +0.000 NA
ENDROOT
BRANCH   1  18
ATOM     11  O   UNL     1       7.952   9.341  17.528  0.00  0.00    +0.000 OA
ATOM     12  C   UNL     1       7.411   8.253  17.619  0.00  0.00    +0.000 C 
ATOM     13  N   UNL     1       6.207   7.894  17.070  0.00  0.00    +0.000 N 
ATOM     14  C   UNL     1       6.088   6.541  16.996  0.00  0.00    +0.000 C 
ATOM     15  O   UNL     1       5.407   5.889  16.222  0.00  0.00    +0.000 OA
ATOM     16  C   UNL     1       7.157   5.993  17.895  0.00  0.00    +0.000 C 
ATOM     17  C   UNL     1       7.701   4.604  17.760  0.00  0.00    +0.000 C 
ATOM     18  C   UNL     1       6.850   4.965  18.960  0.00  0.00    +0.000 C 
ATOM     19  N   UNL     1       7.978   7.128  18.202  0.00  0.00    +0.000 N 
ATOM     20  H   UNL     1       5.686   8.514  16.474  0.00  0.00    +0.000 HD
ATOM     21  H   UNL     1       8.961   7.109  18.431  0.00  0.00    +0.000 HD
ENDBRANCH   1  18
BRANCH   8  22
ATOM     22  O   UNL     1       2.461   6.916  20.327  0.00  0.00    +0.000 OA
BRANCH  22  23
ATOM     23  C   UNL     1       1.528   7.686  21.088  0.00  0.00    +0.000 C 
BRANCH  23  24
ATOM     24  C   UNL     1       1.022   8.834  20.243  0.00  0.00    +0.000 A 
ATOM     25  C   UNL     1       0.081   9.737  20.759  0.00  0.00    +0.000 A 
ATOM     26  C   UNL     1      -0.390  10.793  19.976  0.00  0.00    +0.000 A 
ATOM     27  C   UNL     1       0.088  10.969  18.678  0.00  0.00    +0.000 A 
ATOM     28  C   UNL     1       1.049  10.100  18.166  0.00  0.00    +0.000 A 
ATOM     29  C   UNL     1       1.519   9.045  18.947  0.00  0.00    +0.000 A 
ENDBRANCH  23  24
ENDBRANCH  22  23
ENDBRANCH   8  22
TORSDOF 4
ENDMDL
MODEL 8
REMARK VINA RESULT:      -7.8      1.709      5.011
REMARK  Name = 
REMARK  4 active torsions:
REMARK  status: ('A' for Active; 'I' for Inactive)
REMARK    1  A    between atoms: C_8  and  C_9
REMARK    2  A    between atoms: C_16  and  O_17
REMARK    3  A    between atoms: O_17  and  C_18
REMARK    4  A    between atoms: C_18  and  C_19
REMARK                            x       y       z     vdW  Elec       q    Type
REMARK                         _______ _______ _______ _____ _____    ______ ____
ROOT
ATOM      1  C   UNL     1       5.344   4.074  18.545  0.00  0.00    +0.000 A 
ATOM      2  C   UNL     1       4.994   2.744  18.343  0.00  0.00    +0.000 A 
ATOM      3  C   UNL     1       3.719   2.314  18.686  0.00  0.00    +0.000 A 
ATOM      4  C   UNL     1       2.802   3.216  19.229  0.00  0.00    +0.000 A 
ATOM      5  C   UNL     1       1.508   2.795  19.578  0.00  0.00    +0.000 A 
ATOM      6  C   UNL     1       0.597   3.695  20.120  0.00  0.00    +0.000 A 
ATOM      7  C   UNL     1       0.971   5.020  20.313  0.00  0.00    +0.000 A 
ATOM      8  C   UNL     1       2.266   5.439  19.976  0.00  0.00    +0.000 A 
ATOM      9  C   UNL     1       3.209   4.552  19.422  0.00  0.00    +0.000 A 
ATOM     10  N   UNL     1       4.467   4.949  19.098  0.00  0.00    +0.000 NA
ENDROOT
BRANCH   1  18
ATOM     11  O   UNL     1       8.025   9.070  17.543  0.00  0.00    +0.000 OA
ATOM     12  C   UNL     1       7.388   8.032  17.516  0.00  0.00    +0.000 C 
ATOM     13  N   UNL     1       6.062   7.897  17.195  0.00  0.00    +0.000 N 
ATOM     14  C   UNL     1       5.769   6.613  16.856  0.00  0.00    +0.000 C 
ATOM     15  O   UNL     1       4.868   6.213  16.136  0.00  0.00    +0.000 OA
ATOM     16  C   UNL     1       6.928   5.794  17.343  0.00  0.00    +0.000 C 
ATOM     17  C   UNL     1       7.262   4.444  16.785  0.00  0.00    +0.000 C 
ATOM     18  C   UNL     1       6.729   4.564  18.199  0.00  0.00    +0.000 C 
ATOM     19  N   UNL     1       7.925   6.763  17.692  0.00  0.00    +0.000 N 
ATOM     20  H   UNL     1       5.506   8.677  16.885  0.00  0.00    +0.000 HD
ATOM     21  H   UNL     1       8.924   6.623  17.679  0.00  0.00    +0.000 HD
ENDBRANCH   1  18
BRANCH   8  22
ATOM     22  O   UNL     1       2.666   6.750  20.110  0.00  0.00    +0.000 OA
BRANCH  22  23
ATOM     23  C   UNL     1       2.487   7.593  18.970  0.00  0.00    +0.000 C 
BRANCH  23  24
ATOM     24  C   UNL     1       1.497   8.687  19.308  0.00  0.00    +0.000 A 
ATOM     25  C   UNL     1       1.003   9.534  18.306  0.00  0.00    +0.000 A 
ATOM     26  C   UNL     1       0.094  10.547  18.621  0.00  0.00    +0.000 A 
ATOM     27  C   UNL     1      -0.344  10.711  19.934  0.00  0.00    +0.000 A 
ATOM     28  C   UNL     1       0.112   9.853  20.933  0.00  0.00    +0.000 A 
ATOM     29  C   UNL     1       1.020   8.843  20.620  0.00  0.00    +0.000 A 
ENDBRANCH  23  24
ENDBRANCH  22  23
ENDBRANCH   8  22
TORSDOF 4
ENDMDL
MODEL 9
REMARK VINA RESULT:      -7.7      2.104      4.820
REMARK  Name = 
REMARK  4 active torsions:
REMARK  status: ('A' for Active; 'I' for Inactive)
REMARK    1  A    between atoms: C_8  and  C_9
REMARK    2  A    between atoms: C_16  and  O_17
REMARK    3  A    between atoms: O_17  and  C_18
REMARK    4  A    between atoms: C_18  and  C_19
REMARK                            x       y       z     vdW  Elec       q    Type
REMARK                         _______ _______ _______ _____ _____    ______ ____
ROOT
ATOM      1  C   UNL     1       1.992   5.730  20.482  0.00  0.00    +0.000 A 
ATOM      2  C   UNL     1       1.159   6.468  21.315  0.00  0.00    +0.000 A 
ATOM      3  C   UNL     1       0.860   7.785  20.990  0.00  0.00    +0.000 A 
ATOM      4  C   UNL     1       1.398   8.355  19.834  0.00  0.00    +0.000 A 
ATOM      5  C   UNL     1       1.102   9.684  19.490  0.00  0.00    +0.000 A 
ATOM      6  C   UNL     1       1.639  10.252  18.340  0.00  0.00    +0.000 A 
ATOM      7  C   UNL     1       2.471   9.493  17.524  0.00  0.00    +0.000 A 
ATOM      8  C   UNL     1       2.776   8.169  17.871  0.00  0.00    +0.000 A 
ATOM      9  C   UNL     1       2.244   7.566  19.027  0.00  0.00    +0.000 A 
ATOM     10  N   UNL     1       2.539   6.287  19.374  0.00  0.00    +0.000 NA
ENDROOT
BRANCH   1  18
ATOM     11  O   UNL     1       4.150   1.081  17.859  0.00  0.00    +0.000 OA
ATOM     12  C   UNL     1       3.478   1.990  18.313  0.00  0.00    +0.000 C 
ATOM     13  N   UNL     1       2.731   2.888  17.596  0.00  0.00    +0.000 N 
ATOM     14  C   UNL     1       1.797   3.486  18.383  0.00  0.00    +0.000 C 
ATOM     15  O   UNL     1       0.732   3.977  18.045  0.00  0.00    +0.000 OA
ATOM     16  C   UNL     1       2.219   3.203  19.795  0.00  0.00    +0.000 C 
ATOM     17  C   UNL     1       1.269   3.246  20.953  0.00  0.00    +0.000 C 
ATOM     18  C   UNL     1       2.347   4.303  20.823  0.00  0.00    +0.000 C 
ATOM     19  N   UNL     1       3.247   2.212  19.665  0.00  0.00    +0.000 N 
ATOM     20  H   UNL     1       2.631   2.821  16.597  0.00  0.00    +0.000 HD
ATOM     21  H   UNL     1       3.490   1.510  20.349  0.00  0.00    +0.000 HD
ENDBRANCH   1  18
BRANCH   8  22
ATOM     22  O   UNL     1       3.560   7.367  17.071  0.00  0.00    +0.000 OA
BRANCH  22  23
ATOM     23  C   UNL     1       4.974   7.494  17.229  0.00  0.00    +0.000 C 
BRANCH  23  24
ATOM     24  C   UNL     1       5.656   6.300  16.598  0.00  0.00    +0.000 A 
ATOM     25  C   UNL     1       6.651   5.598  17.295  0.00  0.00    +0.000 A 
ATOM     26  C   UNL     1       7.284   4.500  16.709  0.00  0.00    +0.000 A 
ATOM     27  C   UNL     1       6.918   4.080  15.431  0.00  0.00    +0.000 A 
ATOM     28  C   UNL     1       5.907   4.746  14.743  0.00  0.00    +0.000 A 
ATOM     29  C   UNL     1       5.274   5.844  15.326  0.00  0.00    +0.000 A 
ENDBRANCH  23  24
ENDBRANCH  22  23
ENDBRANCH   8  22
TORSDOF 4
ENDMDL
