MODEL 1
REMARK VINA RESULT:      -7.8      0.000      0.000
REMARK  Name = 
REMARK  3 active torsions:
REMARK  status: ('A' for Active; 'I' for Inactive)
REMARK    1  A    between atoms: C_2  and  C_4
REMARK    2  A    between atoms: C_8  and  C_9
REMARK    3  A    between atoms: C_9  and  C_10
REMARK                            x       y       z     vdW  Elec       q    Type
REMARK                         _______ _______ _______ _____ _____    ______ ____
ROOT
ATOM      1  C   UNL     1       0.448   9.561  21.508  0.00  0.00    +0.000 A 
ATOM      2  C   UNL     1       1.081   8.333  21.583  0.00  0.00    +0.000 A 
ATOM      3  C   UNL     1       1.631   8.069  20.305  0.00  0.00    +0.000 A 
ATOM      4  C   UNL     1       2.365   7.017  19.731  0.00  0.00    +0.000 A 
ATOM      5  C   UNL     1       2.758   7.102  18.381  0.00  0.00    +0.000 A 
ATOM      6  C   UNL     1       2.428   8.244  17.631  0.00  0.00    +0.000 A 
ATOM      7  C   UNL     1       1.694   9.303  18.186  0.00  0.00    +0.000 A 
ATOM      8  C   UNL     1       1.313   9.169  19.520  0.00  0.00    +0.000 A 
ATOM      9  O   UNL     1       0.585  10.074  20.235  0.00  0.00    +0.000 OA
ENDROOT
BRANCH   1  11
ATOM     10  O   UNL     1       0.105   9.865  23.777  0.00  0.00    +0.000 OA
ATOM     11  C   UNL     1      -0.280  10.224  22.612  0.00  0.00    +0.000 C 
ATOM     12  O   UNL     1      -1.164  11.073  22.333  0.00  0.00    +0.000 OA
ENDBRANCH   1  11
BRANCH   5  13
ATOM     13  C   UNL     1       3.547   5.968  17.759  0.00  0.00    +0.000 C 
BRANCH  13  14
ATOM     14  C   UNL     1       5.008   5.981  18.115  0.00  0.00    +0.000 A 
ATOM     15  C   UNL     1       5.947   6.663  17.336  0.00  0.00    +0.000 A 
ATOM     16  C   UNL     1       7.296   6.614  17.677  0.00  0.00    +0.000 A 
ATOM     17  C   UNL     1       7.664   5.885  18.794  0.00  0.00    +0.000 A 
ATOM     18  N   UNL     1       6.788   5.224  19.580  0.00  0.00    +0.000 NA
ATOM     19  C   UNL     1       5.485   5.285  19.222  0.00  0.00    +0.000 A 
ENDBRANCH  13  14
ENDBRANCH   5  13
TORSDOF 3
ENDMDL
MODEL 2
REMARK VINA RESULT:      -7.7      5.597      8.204
REMARK  Name = 
REMARK  3 active torsions:
REMARK  status: ('A' for Active; 'I' for Inactive)
REMARK    1  A    between atoms: C_2  and  C_4
REMARK    2  A    between atoms: C_8  and  C_9
REMARK    3  A    between atoms: C_9  and  C_10
REMARK                            x       y       z     vdW  Elec       q    Type
REMARK                         _______ _______ _______ _____ _____    ______ ____
ROOT
ATOM      1  C   UNL     1       6.992   5.106  14.627  0.00  0.00    +0.000 A 
ATOM      2  C   UNL     1       5.682   5.484  14.863  0.00  0.00    +0.000 A 
ATOM      3  C   UNL     1       5.478   5.429  16.262  0.00  0.00    +0.000 A 
ATOM      4  C   UNL     1       4.396   5.676  17.125  0.00  0.00    +0.000 A 
ATOM      5  C   UNL     1       4.566   5.513  18.514  0.00  0.00    +0.000 A 
ATOM      6  C   UNL     1       5.819   5.128  19.021  0.00  0.00    +0.000 A 
ATOM      7  C   UNL     1       6.910   4.875  18.176  0.00  0.00    +0.000 A 
ATOM      8  C   UNL     1       6.691   5.032  16.808  0.00  0.00    +0.000 A 
ATOM      9  O   UNL     1       7.613   4.821  15.825  0.00  0.00    +0.000 OA
ENDROOT
BRANCH   1  11
ATOM     10  O   UNL     1       7.080   4.156  12.518  0.00  0.00    +0.000 OA
ATOM     11  C   UNL     1       7.633   5.004  13.298  0.00  0.00    +0.000 C 
ATOM     12  O   UNL     1       8.614   5.747  13.038  0.00  0.00    +0.000 OA
ENDBRANCH   1  11
BRANCH   5  13
ATOM     13  C   UNL     1       3.400   5.775  19.446  0.00  0.00    +0.000 C 
BRANCH  13  14
ATOM     14  C   UNL     1       2.411   4.643  19.509  0.00  0.00    +0.000 A 
ATOM     15  C   UNL     1       1.990   4.105  20.728  0.00  0.00    +0.000 A 
ATOM     16  C   UNL     1       1.106   3.029  20.741  0.00  0.00    +0.000 A 
ATOM     17  C   UNL     1       0.664   2.528  19.529  0.00  0.00    +0.000 A 
ATOM     18  N   UNL     1       1.035   3.029  18.331  0.00  0.00    +0.000 NA
ATOM     19  C   UNL     1       1.899   4.069  18.350  0.00  0.00    +0.000 A 
ENDBRANCH  13  14
ENDBRANCH   5  13
TORSDOF 3
ENDMDL
MODEL 3
REMARK VINA RESULT:      -7.5      5.719      8.217
REMARK  Name = 
REMARK  3 active torsions:
REMARK  status: ('A' for Active; 'I' for Inactive)
REMARK    1  A    between atoms: C_2  and  C_4
REMARK    2  A    between atoms: C_8  and  C_9
REMARK    3  A    between atoms: C_9  and  C_10
REMARK                            x       y       z     vdW  Elec       q    Type
REMARK                         _______ _______ _______ _____ _____    ______ ____
ROOT
ATOM      1  C   UNL     1       6.902   5.010  14.416  0.00  0.00    +0.000 A 
ATOM      2  C   UNL     1       5.604   5.299  14.796  0.00  0.00    +0.000 A 
ATOM      3  C   UNL     1       5.570   5.282  16.210  0.00  0.00    +0.000 A 
ATOM      4  C   UNL     1       4.581   5.481  17.190  0.00  0.00    +0.000 A 
ATOM      5  C   UNL     1       4.924   5.383  18.552  0.00  0.00    +0.000 A 
ATOM      6  C   UNL     1       6.254   5.110  18.916  0.00  0.00    +0.000 A 
ATOM      7  C   UNL     1       7.255   4.907  17.954  0.00  0.00    +0.000 A 
ATOM      8  C   UNL     1       6.866   4.996  16.619  0.00  0.00    +0.000 A 
ATOM      9  O   UNL     1       7.680   4.816  15.539  0.00  0.00    +0.000 OA
ENDROOT
BRANCH   1  11
ATOM     10  O   UNL     1       8.265   5.784  12.712  0.00  0.00    +0.000 OA
ATOM     11  C   UNL     1       7.390   4.906  13.023  0.00  0.00    +0.000 C 
ATOM     12  O   UNL     1       6.946   3.985  12.291  0.00  0.00    +0.000 OA
ENDBRANCH   1  11
BRANCH   5  13
ATOM     13  C   UNL     1       3.859   5.593  19.609  0.00  0.00    +0.000 C 
BRANCH  13  14
ATOM     14  C   UNL     1       2.873   4.462  19.706  0.00  0.00    +0.000 A 
ATOM     15  C   UNL     1       3.148   3.201  19.170  0.00  0.00    +0.000 A 
ATOM     16  C   UNL     1       2.190   2.193  19.245  0.00  0.00    +0.000 A 
ATOM     17  C   UNL     1       0.984   2.478  19.860  0.00  0.00    +0.000 A 
ATOM     18  N   UNL     1       0.684   3.678  20.403  0.00  0.00    +0.000 NA
ATOM     19  C   UNL     1       1.632   4.639  20.311  0.00  0.00    +0.000 A 
ENDBRANCH  13  14
ENDBRANCH   5  13
TORSDOF 3
ENDMDL
MODEL 4
REMARK VINA RESULT:      -7.5      5.754      8.346
REMARK  Name = 
REMARK  3 active torsions:
REMARK  status: ('A' for Active; 'I' for Inactive)
REMARK    1  A    between atoms: C_2  and  C_4
REMARK    2  A    between atoms: C_8  and  C_9
REMARK    3  A    between atoms: C_9  and  C_10
REMARK                            x       y       z     vdW  Elec       q    Type
REMARK                         _______ _______ _______ _____ _____    ______ ____
ROOT
ATOM      1  C   UNL     1       6.312   4.172  14.007  0.00  0.00    +0.000 A 
ATOM      2  C   UNL     1       5.081   4.373  14.606  0.00  0.00    +0.000 A 
ATOM      3  C   UNL     1       5.326   4.706  15.959  0.00  0.00    +0.000 A 
ATOM      4  C   UNL     1       4.525   5.010  17.074  0.00  0.00    +0.000 A 
ATOM      5  C   UNL     1       5.138   5.302  18.308  0.00  0.00    +0.000 A 
ATOM      6  C   UNL     1       6.540   5.306  18.405  0.00  0.00    +0.000 A 
ATOM      7  C   UNL     1       7.355   5.003  17.304  0.00  0.00    +0.000 A 
ATOM      8  C   UNL     1       6.706   4.704  16.108  0.00  0.00    +0.000 A 
ATOM      9  O   UNL     1       7.314   4.369  14.934  0.00  0.00    +0.000 OA
ENDROOT
BRANCH   1  11
ATOM     10  O   UNL     1       7.437   4.472  12.006  0.00  0.00    +0.000 OA
ATOM     11  C   UNL     1       6.531   3.789  12.595  0.00  0.00    +0.000 C 
ATOM     12  O   UNL     1       5.858   2.843  12.111  0.00  0.00    +0.000 OA
ENDBRANCH   1  11
BRANCH   5  13
ATOM     13  C   UNL     1       4.277   5.626  19.512  0.00  0.00    +0.000 C 
BRANCH  13  14
ATOM     14  C   UNL     1       3.203   4.608  19.780  0.00  0.00    +0.000 A 
ATOM     15  C   UNL     1       1.862   4.977  19.923  0.00  0.00    +0.000 A 
ATOM     16  C   UNL     1       0.905   4.008  20.213  0.00  0.00    +0.000 A 
ATOM     17  C   UNL     1       1.320   2.695  20.346  0.00  0.00    +0.000 A 
ATOM     18  N   UNL     1       2.602   2.295  20.201  0.00  0.00    +0.000 NA
ATOM     19  C   UNL     1       3.510   3.259  19.926  0.00  0.00    +0.000 A 
ENDBRANCH  13  14
ENDBRANCH   5  13
TORSDOF 3
ENDMDL
MODEL 5
REMARK VINA RESULT:      -7.4      0.757      1.142
REMARK  Name = 
REMARK  3 active torsions:
REMARK  status: ('A' for Active; 'I' for Inactive)
REMARK    1  A    between atoms: C_2  and  C_4
REMARK    2  A    between atoms: C_8  and  C_9
REMARK    3  A    between atoms: C_9  and  C_10
REMARK                            x       y       z     vdW  Elec       q    Type
REMARK                         _______ _______ _______ _____ _____    ______ ____
ROOT
ATOM      1  C   UNL     1       0.467   9.535  21.532  0.00  0.00    +0.000 A 
ATOM      2  C   UNL     1       1.112   8.312  21.584  0.00  0.00    +0.000 A 
ATOM      3  C   UNL     1       1.633   8.061  20.292  0.00  0.00    +0.000 A 
ATOM      4  C   UNL     1       2.362   7.019  19.694  0.00  0.00    +0.000 A 
ATOM      5  C   UNL     1       2.721   7.114  18.335  0.00  0.00    +0.000 A 
ATOM      6  C   UNL     1       2.363   8.258  17.601  0.00  0.00    +0.000 A 
ATOM      7  C   UNL     1       1.633   9.307  18.179  0.00  0.00    +0.000 A 
ATOM      8  C   UNL     1       1.286   9.162  19.521  0.00  0.00    +0.000 A 
ATOM      9  O   UNL     1       0.568  10.057  20.259  0.00  0.00    +0.000 OA
ENDROOT
BRANCH   1  11
ATOM     10  O   UNL     1       0.161   9.806  23.811  0.00  0.00    +0.000 OA
ATOM     11  C   UNL     1      -0.239  10.186  22.658  0.00  0.00    +0.000 C 
ATOM     12  O   UNL     1      -1.121  11.045  22.406  0.00  0.00    +0.000 OA
ENDBRANCH   1  11
BRANCH   5  13
ATOM     13  C   UNL     1       3.504   5.991  17.687  0.00  0.00    +0.000 C 
BRANCH  13  14
ATOM     14  C   UNL     1       4.992   6.106  17.871  0.00  0.00    +0.000 A 
ATOM     15  C   UNL     1       5.655   5.449  18.912  0.00  0.00    +0.000 A 
ATOM     16  C   UNL     1       7.028   5.617  19.072  0.00  0.00    +0.000 A 
ATOM     17  C   UNL     1       7.698   6.436  18.180  0.00  0.00    +0.000 A 
ATOM     18  N   UNL     1       7.098   7.076  17.154  0.00  0.00    +0.000 NA
ATOM     19  C   UNL     1       5.763   6.899  17.026  0.00  0.00    +0.000 A 
ENDBRANCH  13  14
ENDBRANCH   5  13
TORSDOF 3
ENDMDL
MODEL 6
REMARK VINA RESULT:      -7.4      1.954      2.956
REMARK  Name = 
REMARK  3 active torsions:
REMARK  status: ('A' for Active; 'I' for Inactive)
REMARK    1  A    between atoms: C_2  and  C_4
REMARK    2  A    between atoms: C_8  and  C_9
REMARK    3  A    between atoms: C_9  and  C_10
REMARK                            x       y       z     vdW  Elec       q    Type
REMARK                         _______ _______ _______ _____ _____    ______ ____
ROOT
ATOM      1  C   UNL     1       0.219  10.082  21.249  0.00  0.00    +0.000 A 
ATOM      2  C   UNL     1       0.876   8.889  21.492  0.00  0.00    +0.000 A 
ATOM      3  C   UNL     1       1.452   8.473  20.268  0.00  0.00    +0.000 A 
ATOM      4  C   UNL     1       2.218   7.372  19.847  0.00  0.00    +0.000 A 
ATOM      5  C   UNL     1       2.631   7.288  18.503  0.00  0.00    +0.000 A 
ATOM      6  C   UNL     1       2.290   8.315  17.605  0.00  0.00    +0.000 A 
ATOM      7  C   UNL     1       1.525   9.420  18.007  0.00  0.00    +0.000 A 
ATOM      8  C   UNL     1       1.124   9.453  19.341  0.00  0.00    +0.000 A 
ATOM      9  O   UNL     1       0.366  10.427  19.921  0.00  0.00    +0.000 OA
ENDROOT
BRANCH   1  11
ATOM     10  O   UNL     1      -1.334  11.729  21.735  0.00  0.00    +0.000 OA
ATOM     11  C   UNL     1      -0.540  10.867  22.246  0.00  0.00    +0.000 C 
ATOM     12  O   UNL     1      -0.375  10.619  23.468  0.00  0.00    +0.000 OA
ENDBRANCH   1  11
BRANCH   5  13
ATOM     13  C   UNL     1       3.453   6.101  18.045  0.00  0.00    +0.000 C 
BRANCH  13  14
ATOM     14  C   UNL     1       2.891   4.774  18.476  0.00  0.00    +0.000 A 
ATOM     15  C   UNL     1       1.712   4.264  17.926  0.00  0.00    +0.000 A 
ATOM     16  C   UNL     1       1.203   3.051  18.383  0.00  0.00    +0.000 A 
ATOM     17  C   UNL     1       1.895   2.382  19.377  0.00  0.00    +0.000 A 
ATOM     18  N   UNL     1       3.044   2.833  19.925  0.00  0.00    +0.000 NA
ATOM     19  C   UNL     1       3.511   4.016  19.464  0.00  0.00    +0.000 A 
ENDBRANCH  13  14
ENDBRANCH   5  13
TORSDOF 3
ENDMDL
MODEL 7
REMARK VINA RESULT:      -7.2      5.872      8.348
REMARK  Name = 
REMARK  3 active torsions:
REMARK  status: ('A' for Active; 'I' for Inactive)
REMARK    1  A    between atoms: C_2  and  C_4
REMARK    2  A    between atoms: C_8  and  C_9
REMARK    3  A    between atoms: C_9  and  C_10
REMARK                            x       y       z     vdW  Elec       q    Type
REMARK                         _______ _______ _______ _____ _____    ______ ____
ROOT
ATOM      1  C   UNL     1       7.082   4.990  14.257  0.00  0.00    +0.000 A 
ATOM      2  C   UNL     1       6.130   4.145  14.800  0.00  0.00    +0.000 A 
ATOM      3  C   UNL     1       6.071   4.422  16.187  0.00  0.00    +0.000 A 
ATOM      4  C   UNL     1       5.338   3.920  17.276  0.00  0.00    +0.000 A 
ATOM      5  C   UNL     1       5.549   4.456  18.561  0.00  0.00    +0.000 A 
ATOM      6  C   UNL     1       6.475   5.500  18.735  0.00  0.00    +0.000 A 
ATOM      7  C   UNL     1       7.218   6.012  17.661  0.00  0.00    +0.000 A 
ATOM      8  C   UNL     1       6.987   5.440  16.411  0.00  0.00    +0.000 A 
ATOM      9  O   UNL     1       7.616   5.784  15.250  0.00  0.00    +0.000 OA
ENDROOT
BRANCH   1  11
ATOM     10  O   UNL     1       6.980   4.097  12.123  0.00  0.00    +0.000 OA
ATOM     11  C   UNL     1       7.484   5.032  12.834  0.00  0.00    +0.000 C 
ATOM     12  O   UNL     1       8.237   5.961  12.443  0.00  0.00    +0.000 OA
ENDBRANCH   1  11
BRANCH   5  13
ATOM     13  C   UNL     1       4.763   3.914  19.737  0.00  0.00    +0.000 C 
BRANCH  13  14
ATOM     14  C   UNL     1       3.375   3.460  19.378  0.00  0.00    +0.000 A 
ATOM     15  C   UNL     1       2.321   4.367  19.234  0.00  0.00    +0.000 A 
ATOM     16  C   UNL     1       1.041   3.900  18.943  0.00  0.00    +0.000 A 
ATOM     17  C   UNL     1       0.857   2.536  18.801  0.00  0.00    +0.000 A 
ATOM     18  N   UNL     1       1.850   1.629  18.918  0.00  0.00    +0.000 NA
ATOM     19  C   UNL     1       3.081   2.111  19.206  0.00  0.00    +0.000 A 
ENDBRANCH  13  14
ENDBRANCH   5  13
TORSDOF 3
ENDMDL
MODEL 8
REMARK VINA RESULT:      -7.2      2.278      3.059
REMARK  Name = 
REMARK  3 active torsions:
REMARK  status: ('A' for Active; 'I' for Inactive)
REMARK    1  A    between atoms: C_2  and  C_4
REMARK    2  A    between atoms: C_8  and  C_9
REMARK    3  A    between atoms: C_9  and  C_10
REMARK                            x       y       z     vdW  Elec       q    Type
REMARK                         _______ _______ _______ _____ _____    ______ ____
ROOT
ATOM      1  C   UNL     1       0.249  10.081  21.439  0.00  0.00    +0.000 A 
ATOM      2  C   UNL     1       0.899   8.875  21.639  0.00  0.00    +0.000 A 
ATOM      3  C   UNL     1       1.426   8.474  20.388  0.00  0.00    +0.000 A 
ATOM      4  C   UNL     1       2.162   7.371  19.921  0.00  0.00    +0.000 A 
ATOM      5  C   UNL     1       2.525   7.306  18.562  0.00  0.00    +0.000 A 
ATOM      6  C   UNL     1       2.166   8.352  17.695  0.00  0.00    +0.000 A 
ATOM      7  C   UNL     1       1.430   9.459  18.142  0.00  0.00    +0.000 A 
ATOM      8  C   UNL     1       1.078   9.474  19.490  0.00  0.00    +0.000 A 
ATOM      9  O   UNL     1       0.354  10.447  20.113  0.00  0.00    +0.000 OA
ENDROOT
BRANCH   1  11
ATOM     10  O   UNL     1      -1.121  10.138  23.304  0.00  0.00    +0.000 OA
ATOM     11  C   UNL     1      -0.463  10.858  22.477  0.00  0.00    +0.000 C 
ATOM     12  O   UNL     1      -0.351  12.110  22.482  0.00  0.00    +0.000 OA
ENDBRANCH   1  11
BRANCH   5  13
ATOM     13  C   UNL     1       3.315   6.116  18.055  0.00  0.00    +0.000 C 
BRANCH  13  14
ATOM     14  C   UNL     1       2.729   4.788  18.449  0.00  0.00    +0.000 A 
ATOM     15  C   UNL     1       3.305   4.000  19.448  0.00  0.00    +0.000 A 
ATOM     16  C   UNL     1       2.754   2.757  19.752  0.00  0.00    +0.000 A 
ATOM     17  C   UNL     1       1.638   2.343  19.047  0.00  0.00    +0.000 A 
ATOM     18  N   UNL     1       1.043   3.081  18.085  0.00  0.00    +0.000 NA
ATOM     19  C   UNL     1       1.602   4.281  17.808  0.00  0.00    +0.000 A 
ENDBRANCH  13  14
ENDBRANCH   5  13
TORSDOF 3
ENDMDL
MODEL 9
REMARK VINA RESULT:      -7.2      5.963      8.403
REMARK  Name = 
REMARK  3 active torsions:
REMARK  status: ('A' for Active; 'I' for Inactive)
REMARK    1  A    between atoms: C_2  and  C_4
REMARK    2  A    between atoms: C_8  and  C_9
REMARK    3  A    between atoms: C_9  and  C_10
REMARK                            x       y       z     vdW  Elec       q    Type
REMARK                         _______ _______ _______ _____ _____    ______ ____
ROOT
ATOM      1  C   UNL     1       6.772   4.709  13.977  0.00  0.00    +0.000 A 
ATOM      2  C   UNL     1       5.556   4.355  14.535  0.00  0.00    +0.000 A 
ATOM      3  C   UNL     1       5.585   4.761  15.890  0.00  0.00    +0.000 A 
ATOM      4  C   UNL     1       4.695   4.686  16.975  0.00  0.00    +0.000 A 
ATOM      5  C   UNL     1       5.076   5.216  18.223  0.00  0.00    +0.000 A 
ATOM      6  C   UNL     1       6.333   5.830  18.363  0.00  0.00    +0.000 A 
ATOM      7  C   UNL     1       7.236   5.911  17.293  0.00  0.00    +0.000 A 
ATOM      8  C   UNL     1       6.823   5.360  16.082  0.00  0.00    +0.000 A 
ATOM      9  O   UNL     1       7.556   5.323  14.932  0.00  0.00    +0.000 OA
ENDROOT
BRANCH   1  11
ATOM     10  O   UNL     1       7.963   5.354  12.100  0.00  0.00    +0.000 OA
ATOM     11  C   UNL     1       7.185   4.460  12.579  0.00  0.00    +0.000 C 
ATOM     12  O   UNL     1       6.778   3.419  12.002  0.00  0.00    +0.000 OA
ENDBRANCH   1  11
BRANCH   5  13
ATOM     13  C   UNL     1       4.120   5.133  19.395  0.00  0.00    +0.000 C 
BRANCH  13  14
ATOM     14  C   UNL     1       2.995   4.157  19.190  0.00  0.00    +0.000 A 
ATOM     15  C   UNL     1       2.994   2.900  19.802  0.00  0.00    +0.000 A 
ATOM     16  C   UNL     1       1.954   2.009  19.552  0.00  0.00    +0.000 A 
ATOM     17  C   UNL     1       0.940   2.407  18.698  0.00  0.00    +0.000 A 
ATOM     18  N   UNL     1       0.896   3.616  18.099  0.00  0.00    +0.000 NA
ATOM     19  C   UNL     1       1.922   4.458  18.356  0.00  0.00    +0.000 A 
ENDBRANCH  13  14
ENDBRANCH   5  13
TORSDOF 3
ENDMDL
