MODEL 1
REMARK VINA RESULT:      -7.7      0.000      0.000
REMARK  Name = 
REMARK  10 active torsions:
REMARK  status: ('A' for Active; 'I' for Inactive)
REMARK    1  A    between atoms: C_1  and  O_2
REMARK    2  A    between atoms: O_2  and  C_3
REMARK    3  A    between atoms: C_6  and  N_7
REMARK    4  A    between atoms: C_8  and  C_10
REMARK    5  A    between atoms: C_10  and  C_11
REMARK    6  A    between atoms: C_11  and  C_12
REMARK    7  A    between atoms: C_12  and  C_14
REMARK    8  A    between atoms: C_20  and  S_21
REMARK    9  A    between atoms: S_21  and  N_24
REMARK   10  A    between atoms: N_24  and  C_25
REMARK                            x       y       z     vdW  Elec       q    Type
REMARK                         _______ _______ _______ _____ _____    ______ ____
ROOT
ATOM      1  C   UNL     1       4.413   4.297  19.129  0.00  0.00    +0.000 A 
ATOM      2  C   UNL     1       3.016   4.251  19.091  0.00  0.00    +0.000 A 
ATOM      3  C   UNL     1       2.269   5.358  18.689  0.00  0.00    +0.000 A 
ATOM      4  C   UNL     1       2.885   6.536  18.289  0.00  0.00    +0.000 A 
ATOM      5  C   UNL     1       4.285   6.595  18.305  0.00  0.00    +0.000 A 
ATOM      6  C   UNL     1       5.051   5.470  18.694  0.00  0.00    +0.000 A 
ENDROOT
BRANCH   4   7
ATOM      7  N   UNL     1       2.161   7.677  17.897  0.00  0.00    +0.000 N 
ATOM      8  C   UNL     1       1.669   8.638  18.762  0.00  0.00    +0.000 C 
ATOM      9  O   UNL     1       1.615   8.546  19.989  0.00  0.00    +0.000 OA
ATOM     10  H   UNL     1       1.987   7.795  16.906  0.00  0.00    +0.000 HD
BRANCH   8  11
ATOM     11  C   UNL     1       1.079   9.849  18.066  0.00  0.00    +0.000 C 
BRANCH  11  12
ATOM     12  C   UNL     1       0.121  10.584  19.009  0.00  0.00    +0.000 C 
BRANCH  12  13
ATOM     13  C   UNL     1       0.061  12.078  18.700  0.00  0.00    +0.000 C 
ATOM     14  O   UNL     1      -0.991  12.581  18.296  0.00  0.00    +0.000 OA
BRANCH  13  15
ATOM     15  C   UNL     1       1.276  12.851  18.952  0.00  0.00    +0.000 A 
ATOM     16  C   UNL     1       2.218  13.346  18.067  0.00  0.00    +0.000 A 
ATOM     17  C   UNL     1       3.279  14.037  18.726  0.00  0.00    +0.000 A 
ATOM     18  C   UNL     1       3.116  14.051  20.093  0.00  0.00    +0.000 A 
ATOM     19  S   UNL     1       1.692  13.240  20.573  0.00  0.00    +0.000 S 
ENDBRANCH  13  15
ENDBRANCH  12  13
ENDBRANCH  11  12
ENDBRANCH   8  11
ENDBRANCH   4   7
BRANCH   6  20
ATOM     20  S   UNL     1       6.822   5.677  18.689  0.00  0.00    +0.000 S 
ATOM     21  O   UNL     1       7.115   6.930  18.032  0.00  0.00    +0.000 OA
ATOM     22  O   UNL     1       7.343   5.413  20.017  0.00  0.00    +0.000 OA
BRANCH  20  23
ATOM     23  N   UNL     1       7.390   4.430  17.703  0.00  0.00    +0.000 N 
ATOM     24  H   UNL     1       7.795   3.638  18.194  0.00  0.00    +0.000 HD
BRANCH  23  25
ATOM     25  C   UNL     1       6.915   4.282  16.375  0.00  0.00    +0.000 A 
ATOM     26  C   UNL     1       5.812   3.462  16.125  0.00  0.00    +0.000 A 
ATOM     27  C   UNL     1       5.329   3.322  14.819  0.00  0.00    +0.000 A 
ATOM     28  C   UNL     1       5.959   3.993  13.772  0.00  0.00    +0.000 A 
ATOM     29 CL   UNL     1       5.373   3.817  12.165  0.00  0.00    +0.000 Cl
ATOM     30  C   UNL     1       7.059   4.813  14.023  0.00  0.00    +0.000 A 
ATOM     31  C   UNL     1       7.530   4.967  15.329  0.00  0.00    +0.000 A 
ENDBRANCH  23  25
ENDBRANCH  20  23
ENDBRANCH   6  20
BRANCH   1  33
ATOM     32  C   UNL     1       4.395   2.167  20.166  0.00  0.00    +0.000 C 
ATOM     33  O   UNL     1       5.146   3.217  19.545  0.00  0.00    +0.000 OA
ENDBRANCH   1  33
TORSDOF 9
ENDMDL
MODEL 2
REMARK VINA RESULT:      -7.7      4.231      9.658
REMARK  Name = 
REMARK  10 active torsions:
REMARK  status: ('A' for Active; 'I' for Inactive)
REMARK    1  A    between atoms: C_1  and  O_2
REMARK    2  A    between atoms: O_2  and  C_3
REMARK    3  A    between atoms: C_6  and  N_7
REMARK    4  A    between atoms: C_8  and  C_10
REMARK    5  A    between atoms: C_10  and  C_11
REMARK    6  A    between atoms: C_11  and  C_12
REMARK    7  A    between atoms: C_12  and  C_14
REMARK    8  A    between atoms: C_20  and  S_21
REMARK    9  A    between atoms: S_21  and  N_24
REMARK   10  A    between atoms: N_24  and  C_25
REMARK                            x       y       z     vdW  Elec       q    Type
REMARK                         _______ _______ _______ _____ _____    ______ ____
ROOT
ATOM      1  C   UNL     1       1.497   9.099  18.890  0.00  0.00    +0.000 A 
ATOM      2  C   UNL     1       2.164   8.110  18.158  0.00  0.00    +0.000 A 
ATOM      3  C   UNL     1       2.509   6.891  18.741  0.00  0.00    +0.000 A 
ATOM      4  C   UNL     1       2.184   6.606  20.060  0.00  0.00    +0.000 A 
ATOM      5  C   UNL     1       1.502   7.578  20.804  0.00  0.00    +0.000 A 
ATOM      6  C   UNL     1       1.131   8.810  20.214  0.00  0.00    +0.000 A 
ENDROOT
BRANCH   4   7
ATOM      7  N   UNL     1       2.535   5.395  20.685  0.00  0.00    +0.000 N 
ATOM      8  C   UNL     1       1.798   4.227  20.615  0.00  0.00    +0.000 C 
ATOM      9  O   UNL     1       0.653   4.119  20.174  0.00  0.00    +0.000 OA
ATOM     10  H   UNL     1       3.389   5.387  21.230  0.00  0.00    +0.000 HD
BRANCH   8  11
ATOM     11  C   UNL     1       2.487   3.026  21.234  0.00  0.00    +0.000 C 
BRANCH  11  12
ATOM     12  C   UNL     1       3.825   2.767  20.536  0.00  0.00    +0.000 C 
BRANCH  12  13
ATOM     13  C   UNL     1       3.650   2.578  19.030  0.00  0.00    +0.000 C 
ATOM     14  O   UNL     1       2.947   1.659  18.604  0.00  0.00    +0.000 OA
BRANCH  13  15
ATOM     15  C   UNL     1       4.309   3.554  18.164  0.00  0.00    +0.000 A 
ATOM     16  C   UNL     1       4.123   3.822  16.818  0.00  0.00    +0.000 A 
ATOM     17  C   UNL     1       4.992   4.848  16.338  0.00  0.00    +0.000 A 
ATOM     18  C   UNL     1       5.814   5.333  17.331  0.00  0.00    +0.000 A 
ATOM     19  S   UNL     1       5.534   4.559  18.826  0.00  0.00    +0.000 S 
ENDBRANCH  13  15
ENDBRANCH  12  13
ENDBRANCH  11  12
ENDBRANCH   8  11
ENDBRANCH   4   7
BRANCH   6  20
ATOM     20  S   UNL     1       0.283   9.970  21.270  0.00  0.00    +0.000 S 
ATOM     21  O   UNL     1      -0.470   9.211  22.241  0.00  0.00    +0.000 OA
ATOM     22  O   UNL     1       1.213  10.993  21.710  0.00  0.00    +0.000 OA
BRANCH  20  23
ATOM     23  N   UNL     1      -0.819  10.743  20.250  0.00  0.00    +0.000 N 
ATOM     24  H   UNL     1      -1.433  10.125  19.727  0.00  0.00    +0.000 HD
BRANCH  23  25
ATOM     25  C   UNL     1      -1.181  12.096  20.467  0.00  0.00    +0.000 A 
ATOM     26  C   UNL     1      -2.055  12.419  21.508  0.00  0.00    +0.000 A 
ATOM     27  C   UNL     1      -2.407  13.753  21.736  0.00  0.00    +0.000 A 
ATOM     28  C   UNL     1      -1.891  14.756  20.916  0.00  0.00    +0.000 A 
ATOM     29 CL   UNL     1      -2.326  16.397  21.188  0.00  0.00    +0.000 Cl
ATOM     30  C   UNL     1      -1.015  14.434  19.877  0.00  0.00    +0.000 A 
ATOM     31  C   UNL     1      -0.651  13.102  19.661  0.00  0.00    +0.000 A 
ENDBRANCH  23  25
ENDBRANCH  20  23
ENDBRANCH   6  20
BRANCH   1  33
ATOM     32  C   UNL     1       2.267  11.223  18.180  0.00  0.00    +0.000 C 
ATOM     33  O   UNL     1       1.177  10.304  18.324  0.00  0.00    +0.000 OA
ENDBRANCH   1  33
TORSDOF 9
ENDMDL
MODEL 3
REMARK VINA RESULT:      -7.7      4.471      6.957
REMARK  Name = 
REMARK  10 active torsions:
REMARK  status: ('A' for Active; 'I' for Inactive)
REMARK    1  A    between atoms: C_1  and  O_2
REMARK    2  A    between atoms: O_2  and  C_3
REMARK    3  A    between atoms: C_6  and  N_7
REMARK    4  A    between atoms: C_8  and  C_10
REMARK    5  A    between atoms: C_10  and  C_11
REMARK    6  A    between atoms: C_11  and  C_12
REMARK    7  A    between atoms: C_12  and  C_14
REMARK    8  A    between atoms: C_20  and  S_21
REMARK    9  A    between atoms: S_21  and  N_24
REMARK   10  A    between atoms: N_24  and  C_25
REMARK                            x       y       z     vdW  Elec       q    Type
REMARK                         _______ _______ _______ _____ _____    ______ ____
ROOT
ATOM      1  C   UNL     1       3.919   4.143  17.185  0.00  0.00    +0.000 A 
ATOM      2  C   UNL     1       4.922   4.283  16.220  0.00  0.00    +0.000 A 
ATOM      3  C   UNL     1       5.759   5.400  16.207  0.00  0.00    +0.000 A 
ATOM      4  C   UNL     1       5.642   6.399  17.164  0.00  0.00    +0.000 A 
ATOM      5  C   UNL     1       4.653   6.267  18.148  0.00  0.00    +0.000 A 
ATOM      6  C   UNL     1       3.813   5.128  18.179  0.00  0.00    +0.000 A 
ENDROOT
BRANCH   4   7
ATOM      7  N   UNL     1       6.456   7.546  17.168  0.00  0.00    +0.000 N 
ATOM      8  C   UNL     1       7.645   7.670  17.865  0.00  0.00    +0.000 C 
ATOM      9  O   UNL     1       8.064   6.893  18.723  0.00  0.00    +0.000 OA
ATOM     10  H   UNL     1       6.139   8.339  16.623  0.00  0.00    +0.000 HD
BRANCH   8  11
ATOM     11  C   UNL     1       8.407   8.945  17.560  0.00  0.00    +0.000 C 
BRANCH  11  12
ATOM     12  C   UNL     1       8.946   9.560  18.855  0.00  0.00    +0.000 C 
BRANCH  12  13
ATOM     13  C   UNL     1       9.659  10.886  18.597  0.00  0.00    +0.000 C 
ATOM     14  O   UNL     1      10.235  11.075  17.523  0.00  0.00    +0.000 OA
BRANCH  13  15
ATOM     15  C   UNL     1       9.574  11.894  19.653  0.00  0.00    +0.000 A 
ATOM     16  C   UNL     1       9.886  11.806  20.998  0.00  0.00    +0.000 A 
ATOM     17  C   UNL     1       9.639  13.024  21.700  0.00  0.00    +0.000 A 
ATOM     18  C   UNL     1       9.147  14.006  20.870  0.00  0.00    +0.000 A 
ATOM     19  S   UNL     1       8.990  13.461  19.259  0.00  0.00    +0.000 S 
ENDBRANCH  13  15
ENDBRANCH  12  13
ENDBRANCH  11  12
ENDBRANCH   8  11
ENDBRANCH   4   7
BRANCH   6  20
ATOM     20  S   UNL     1       2.583   5.087  19.470  0.00  0.00    +0.000 S 
ATOM     21  O   UNL     1       1.283   5.119  18.838  0.00  0.00    +0.000 OA
ATOM     22  O   UNL     1       2.906   4.034  20.413  0.00  0.00    +0.000 OA
BRANCH  20  23
ATOM     23  N   UNL     1       2.791   6.543  20.299  0.00  0.00    +0.000 N 
ATOM     24  H   UNL     1       3.714   6.689  20.696  0.00  0.00    +0.000 HD
BRANCH  23  25
ATOM     25  C   UNL     1       1.938   7.649  20.048  0.00  0.00    +0.000 A 
ATOM     26  C   UNL     1       1.058   8.081  21.043  0.00  0.00    +0.000 A 
ATOM     27  C   UNL     1       0.225   9.179  20.808  0.00  0.00    +0.000 A 
ATOM     28  C   UNL     1       0.268   9.831  19.576  0.00  0.00    +0.000 A 
ATOM     29 CL   UNL     1      -0.761  11.176  19.280  0.00  0.00    +0.000 Cl
ATOM     30  C   UNL     1       1.149   9.400  18.583  0.00  0.00    +0.000 A 
ATOM     31  C   UNL     1       1.994   8.314  18.825  0.00  0.00    +0.000 A 
ENDBRANCH  23  25
ENDBRANCH  20  23
ENDBRANCH   6  20
BRANCH   1  33
ATOM     32  C   UNL     1       3.583   1.898  17.860  0.00  0.00    +0.000 C 
ATOM     33  O   UNL     1       3.083   3.058  17.185  0.00  0.00    +0.000 OA
ENDBRANCH   1  33
TORSDOF 9
ENDMDL
MODEL 4
REMARK VINA RESULT:      -7.6      4.315      9.533
REMARK  Name = 
REMARK  10 active torsions:
REMARK  status: ('A' for Active; 'I' for Inactive)
REMARK    1  A    between atoms: C_1  and  O_2
REMARK    2  A    between atoms: O_2  and  C_3
REMARK    3  A    between atoms: C_6  and  N_7
REMARK    4  A    between atoms: C_8  and  C_10
REMARK    5  A    between atoms: C_10  and  C_11
REMARK    6  A    between atoms: C_11  and  C_12
REMARK    7  A    between atoms: C_12  and  C_14
REMARK    8  A    between atoms: C_20  and  S_21
REMARK    9  A    between atoms: S_21  and  N_24
REMARK   10  A    between atoms: N_24  and  C_25
REMARK                            x       y       z     vdW  Elec       q    Type
REMARK                         _______ _______ _______ _____ _____    ______ ____
ROOT
ATOM      1  C   UNL     1       1.429   9.665  19.009  0.00  0.00    +0.000 A 
ATOM      2  C   UNL     1       2.032   9.115  17.874  0.00  0.00    +0.000 A 
ATOM      3  C   UNL     1       2.579   7.832  17.897  0.00  0.00    +0.000 A 
ATOM      4  C   UNL     1       2.523   7.046  19.040  0.00  0.00    +0.000 A 
ATOM      5  C   UNL     1       1.907   7.574  20.183  0.00  0.00    +0.000 A 
ATOM      6  C   UNL     1       1.334   8.868  20.162  0.00  0.00    +0.000 A 
ENDROOT
BRANCH   4   7
ATOM      7  N   UNL     1       3.082   5.756  19.104  0.00  0.00    +0.000 N 
ATOM      8  C   UNL     1       2.633   4.664  18.384  0.00  0.00    +0.000 C 
ATOM      9  O   UNL     1       1.583   4.602  17.744  0.00  0.00    +0.000 OA
ATOM     10  H   UNL     1       3.866   5.624  19.731  0.00  0.00    +0.000 HD
BRANCH   8  11
ATOM     11  C   UNL     1       3.518   3.439  18.509  0.00  0.00    +0.000 C 
BRANCH  11  12
ATOM     12  C   UNL     1       4.961   3.858  18.802  0.00  0.00    +0.000 C 
BRANCH  12  13
ATOM     13  C   UNL     1       5.657   4.400  17.555  0.00  0.00    +0.000 C 
ATOM     14  O   UNL     1       5.466   3.861  16.462  0.00  0.00    +0.000 OA
BRANCH  13  15
ATOM     15  C   UNL     1       6.495   5.585  17.731  0.00  0.00    +0.000 A 
ATOM     16  C   UNL     1       6.592   6.732  16.962  0.00  0.00    +0.000 A 
ATOM     17  C   UNL     1       7.557   7.653  17.470  0.00  0.00    +0.000 A 
ATOM     18  C   UNL     1       8.165   7.184  18.612  0.00  0.00    +0.000 A 
ATOM     19  S   UNL     1       7.574   5.648  19.066  0.00  0.00    +0.000 S 
ENDBRANCH  13  15
ENDBRANCH  12  13
ENDBRANCH  11  12
ENDBRANCH   8  11
ENDBRANCH   4   7
BRANCH   6  20
ATOM     20  S   UNL     1       0.596   9.433  21.684  0.00  0.00    +0.000 S 
ATOM     21  O   UNL     1      -0.649   8.722  21.858  0.00  0.00    +0.000 OA
ATOM     22  O   UNL     1       1.593   9.422  22.737  0.00  0.00    +0.000 OA
BRANCH  20  23
ATOM     23  N   UNL     1       0.229  11.056  21.399  0.00  0.00    +0.000 N 
ATOM     24  H   UNL     1       0.793  11.510  20.686  0.00  0.00    +0.000 HD
BRANCH  23  25
ATOM     25  C   UNL     1      -1.037  11.586  21.754  0.00  0.00    +0.000 A 
ATOM     26  C   UNL     1      -1.847  12.158  20.770  0.00  0.00    +0.000 A 
ATOM     27  C   UNL     1      -3.103  12.670  21.111  0.00  0.00    +0.000 A 
ATOM     28  C   UNL     1      -3.537  12.618  22.435  0.00  0.00    +0.000 A 
ATOM     29 CL   UNL     1      -5.077  13.254  22.859  0.00  0.00    +0.000 Cl
ATOM     30  C   UNL     1      -2.728  12.045  23.417  0.00  0.00    +0.000 A 
ATOM     31  C   UNL     1      -1.481  11.518  23.073  0.00  0.00    +0.000 A 
ENDBRANCH  23  25
ENDBRANCH  20  23
ENDBRANCH   6  20
BRANCH   1  33
ATOM     32  C   UNL     1       1.806  11.954  18.534  0.00  0.00    +0.000 C 
ATOM     33  O   UNL     1       0.912  10.933  18.993  0.00  0.00    +0.000 OA
ENDBRANCH   1  33
TORSDOF 9
ENDMDL
MODEL 5
REMARK VINA RESULT:      -7.5      4.291      9.915
REMARK  Name = 
REMARK  10 active torsions:
REMARK  status: ('A' for Active; 'I' for Inactive)
REMARK    1  A    between atoms: C_1  and  O_2
REMARK    2  A    between atoms: O_2  and  C_3
REMARK    3  A    between atoms: C_6  and  N_7
REMARK    4  A    between atoms: C_8  and  C_10
REMARK    5  A    between atoms: C_10  and  C_11
REMARK    6  A    between atoms: C_11  and  C_12
REMARK    7  A    between atoms: C_12  and  C_14
REMARK    8  A    between atoms: C_20  and  S_21
REMARK    9  A    between atoms: S_21  and  N_24
REMARK   10  A    between atoms: N_24  and  C_25
REMARK                            x       y       z     vdW  Elec       q    Type
REMARK                         _______ _______ _______ _____ _____    ______ ____
ROOT
ATOM      1  C   UNL     1       1.404   9.834  18.869  0.00  0.00    +0.000 A 
ATOM      2  C   UNL     1       1.995   9.402  17.677  0.00  0.00    +0.000 A 
ATOM      3  C   UNL     1       2.593   8.145  17.582  0.00  0.00    +0.000 A 
ATOM      4  C   UNL     1       2.603   7.269  18.659  0.00  0.00    +0.000 A 
ATOM      5  C   UNL     1       2.001   7.679  19.857  0.00  0.00    +0.000 A 
ATOM      6  C   UNL     1       1.375   8.945  19.955  0.00  0.00    +0.000 A 
ENDROOT
BRANCH   4   7
ATOM      7  N   UNL     1       3.214   6.003  18.605  0.00  0.00    +0.000 N 
ATOM      8  C   UNL     1       4.526   5.774  18.234  0.00  0.00    +0.000 C 
ATOM      9  O   UNL     1       5.286   6.596  17.718  0.00  0.00    +0.000 OA
ATOM     10  H   UNL     1       2.642   5.204  18.850  0.00  0.00    +0.000 HD
BRANCH   8  11
ATOM     11  C   UNL     1       4.979   4.340  18.426  0.00  0.00    +0.000 C 
BRANCH  11  12
ATOM     12  C   UNL     1       4.169   3.406  17.523  0.00  0.00    +0.000 C 
BRANCH  12  13
ATOM     13  C   UNL     1       3.542   2.259  18.314  0.00  0.00    +0.000 C 
ATOM     14  O   UNL     1       3.929   1.103  18.132  0.00  0.00    +0.000 OA
BRANCH  13  15
ATOM     15  C   UNL     1       2.522   2.620  19.298  0.00  0.00    +0.000 A 
ATOM     16  C   UNL     1       1.217   3.045  19.117  0.00  0.00    +0.000 A 
ATOM     17  C   UNL     1       0.553   3.319  20.351  0.00  0.00    +0.000 A 
ATOM     18  C   UNL     1       1.369   3.094  21.436  0.00  0.00    +0.000 A 
ATOM     19  S   UNL     1       2.919   2.553  20.968  0.00  0.00    +0.000 S 
ENDBRANCH  13  15
ENDBRANCH  12  13
ENDBRANCH  11  12
ENDBRANCH   8  11
ENDBRANCH   4   7
BRANCH   6  20
ATOM     20  S   UNL     1       0.662   9.356  21.537  0.00  0.00    +0.000 S 
ATOM     21  O   UNL     1      -0.607   8.673  21.637  0.00  0.00    +0.000 OA
ATOM     22  O   UNL     1       1.661   9.189  22.576  0.00  0.00    +0.000 OA
BRANCH  20  23
ATOM     23  N   UNL     1       0.352  11.013  21.443  0.00  0.00    +0.000 N 
ATOM     24  H   UNL     1       0.984  11.540  20.848  0.00  0.00    +0.000 HD
BRANCH  23  25
ATOM     25  C   UNL     1      -0.930  11.530  21.760  0.00  0.00    +0.000 A 
ATOM     26  C   UNL     1      -1.375  11.510  23.084  0.00  0.00    +0.000 A 
ATOM     27  C   UNL     1      -2.632  12.030  23.405  0.00  0.00    +0.000 A 
ATOM     28  C   UNL     1      -3.442  12.557  22.400  0.00  0.00    +0.000 A 
ATOM     29 CL   UNL     1      -4.992  13.191  22.789  0.00  0.00    +0.000 Cl
ATOM     30  C   UNL     1      -2.997  12.578  21.077  0.00  0.00    +0.000 A 
ATOM     31  C   UNL     1      -1.733  12.074  20.760  0.00  0.00    +0.000 A 
ENDBRANCH  23  25
ENDBRANCH  20  23
ENDBRANCH   6  20
BRANCH   1  33
ATOM     32  C   UNL     1       1.646  12.161  18.499  0.00  0.00    +0.000 C 
ATOM     33  O   UNL     1       0.836  11.077  18.968  0.00  0.00    +0.000 OA
ENDBRANCH   1  33
TORSDOF 9
ENDMDL
MODEL 6
REMARK VINA RESULT:      -7.4      4.373      9.890
REMARK  Name = 
REMARK  10 active torsions:
REMARK  status: ('A' for Active; 'I' for Inactive)
REMARK    1  A    between atoms: C_1  and  O_2
REMARK    2  A    between atoms: O_2  and  C_3
REMARK    3  A    between atoms: C_6  and  N_7
REMARK    4  A    between atoms: C_8  and  C_10
REMARK    5  A    between atoms: C_10  and  C_11
REMARK    6  A    between atoms: C_11  and  C_12
REMARK    7  A    between atoms: C_12  and  C_14
REMARK    8  A    between atoms: C_20  and  S_21
REMARK    9  A    between atoms: S_21  and  N_24
REMARK   10  A    between atoms: N_24  and  C_25
REMARK                            x       y       z     vdW  Elec       q    Type
REMARK                         _______ _______ _______ _____ _____    ______ ____
ROOT
ATOM      1  C   UNL     1       0.832   9.506  19.032  0.00  0.00    +0.000 A 
ATOM      2  C   UNL     1       1.479   8.944  17.926  0.00  0.00    +0.000 A 
ATOM      3  C   UNL     1       2.357   7.870  18.073  0.00  0.00    +0.000 A 
ATOM      4  C   UNL     1       2.603   7.306  19.317  0.00  0.00    +0.000 A 
ATOM      5  C   UNL     1       1.951   7.845  20.435  0.00  0.00    +0.000 A 
ATOM      6  C   UNL     1       1.044   8.922  20.292  0.00  0.00    +0.000 A 
ENDROOT
BRANCH   4   7
ATOM      7  N   UNL     1       3.497   6.235  19.503  0.00  0.00    +0.000 N 
ATOM      8  C   UNL     1       3.334   4.968  18.974  0.00  0.00    +0.000 C 
ATOM      9  O   UNL     1       2.314   4.533  18.439  0.00  0.00    +0.000 OA
ATOM     10  H   UNL     1       4.316   6.412  20.073  0.00  0.00    +0.000 HD
BRANCH   8  11
ATOM     11  C   UNL     1       4.527   4.055  19.184  0.00  0.00    +0.000 C 
BRANCH  11  12
ATOM     12  C   UNL     1       5.789   4.886  19.436  0.00  0.00    +0.000 C 
BRANCH  12  13
ATOM     13  C   UNL     1       6.758   4.813  18.258  0.00  0.00    +0.000 C 
ATOM     14  O   UNL     1       7.919   4.438  18.439  0.00  0.00    +0.000 OA
BRANCH  13  15
ATOM     15  C   UNL     1       6.222   5.161  16.942  0.00  0.00    +0.000 A 
ATOM     16  C   UNL     1       5.655   6.341  16.493  0.00  0.00    +0.000 A 
ATOM     17  C   UNL     1       5.234   6.264  15.132  0.00  0.00    +0.000 A 
ATOM     18  C   UNL     1       5.493   5.029  14.581  0.00  0.00    +0.000 A 
ATOM     19  S   UNL     1       6.241   3.976  15.698  0.00  0.00    +0.000 S 
ENDBRANCH  13  15
ENDBRANCH  12  13
ENDBRANCH  11  12
ENDBRANCH   8  11
ENDBRANCH   4   7
BRANCH   6  20
ATOM     20  S   UNL     1       0.293   9.529  21.790  0.00  0.00    +0.000 S 
ATOM     21  O   UNL     1      -0.950   8.817  21.978  0.00  0.00    +0.000 OA
ATOM     22  O   UNL     1       1.282   9.555  22.851  0.00  0.00    +0.000 OA
BRANCH  20  23
ATOM     23  N   UNL     1      -0.080  11.141  21.454  0.00  0.00    +0.000 N 
ATOM     24  H   UNL     1       0.450  11.560  20.695  0.00  0.00    +0.000 HD
BRANCH  23  25
ATOM     25  C   UNL     1      -1.324  11.695  21.847  0.00  0.00    +0.000 A 
ATOM     26  C   UNL     1      -1.736  11.591  23.178  0.00  0.00    +0.000 A 
ATOM     27  C   UNL     1      -2.956  12.147  23.576  0.00  0.00    +0.000 A 
ATOM     28  C   UNL     1      -3.762  12.794  22.640  0.00  0.00    +0.000 A 
ATOM     29 CL   UNL     1      -5.266  13.472  23.124  0.00  0.00    +0.000 Cl
ATOM     30  C   UNL     1      -3.349  12.898  21.311  0.00  0.00    +0.000 A 
ATOM     31  C   UNL     1      -2.122  12.358  20.917  0.00  0.00    +0.000 A 
ENDBRANCH  23  25
ENDBRANCH  20  23
ENDBRANCH   6  20
BRANCH   1  33
ATOM     32  C   UNL     1      -1.130  10.362  18.020  0.00  0.00    +0.000 C 
ATOM     33  O   UNL     1      -0.013  10.574  18.892  0.00  0.00    +0.000 OA
ENDBRANCH   1  33
TORSDOF 9
ENDMDL
MODEL 7
REMARK VINA RESULT:      -7.4      0.960      1.042
REMARK  Name = 
REMARK  10 active torsions:
REMARK  status: ('A' for Active; 'I' for Inactive)
REMARK    1  A    between atoms: C_1  and  O_2
REMARK    2  A    between atoms: O_2  and  C_3
REMARK    3  A    between atoms: C_6  and  N_7
REMARK    4  A    between atoms: C_8  and  C_10
REMARK    5  A    between atoms: C_10  and  C_11
REMARK    6  A    between atoms: C_11  and  C_12
REMARK    7  A    between atoms: C_12  and  C_14
REMARK    8  A    between atoms: C_20  and  S_21
REMARK    9  A    between atoms: S_21  and  N_24
REMARK   10  A    between atoms: N_24  and  C_25
REMARK                            x       y       z     vdW  Elec       q    Type
REMARK                         _______ _______ _______ _____ _____    ______ ____
ROOT
ATOM      1  C   UNL     1       4.414   4.340  19.143  0.00  0.00    +0.000 A 
ATOM      2  C   UNL     1       3.016   4.314  19.105  0.00  0.00    +0.000 A 
ATOM      3  C   UNL     1       2.285   5.426  18.688  0.00  0.00    +0.000 A 
ATOM      4  C   UNL     1       2.918   6.590  18.272  0.00  0.00    +0.000 A 
ATOM      5  C   UNL     1       4.320   6.628  18.287  0.00  0.00    +0.000 A 
ATOM      6  C   UNL     1       5.069   5.497  18.691  0.00  0.00    +0.000 A 
ENDROOT
BRANCH   4   7
ATOM      7  N   UNL     1       2.212   7.736  17.864  0.00  0.00    +0.000 N 
ATOM      8  C   UNL     1       1.690   8.689  18.719  0.00  0.00    +0.000 C 
ATOM      9  O   UNL     1       1.592   8.587  19.942  0.00  0.00    +0.000 OA
ATOM     10  H   UNL     1       2.073   7.862  16.868  0.00  0.00    +0.000 HD
BRANCH   8  11
ATOM     11  C   UNL     1       1.127   9.907  18.013  0.00  0.00    +0.000 C 
BRANCH  11  12
ATOM     12  C   UNL     1       1.447  11.175  18.811  0.00  0.00    +0.000 C 
BRANCH  12  13
ATOM     13  C   UNL     1       0.237  12.101  18.910  0.00  0.00    +0.000 C 
ATOM     14  O   UNL     1      -0.897  11.624  18.993  0.00  0.00    +0.000 OA
BRANCH  13  15
ATOM     15  C   UNL     1       0.509  13.537  18.944  0.00  0.00    +0.000 A 
ATOM     16  C   UNL     1      -0.335  14.612  18.723  0.00  0.00    +0.000 A 
ATOM     17  C   UNL     1       0.334  15.867  18.832  0.00  0.00    +0.000 A 
ATOM     18  C   UNL     1       1.669  15.715  19.134  0.00  0.00    +0.000 A 
ATOM     19  S   UNL     1       2.105  14.072  19.288  0.00  0.00    +0.000 S 
ENDBRANCH  13  15
ENDBRANCH  12  13
ENDBRANCH  11  12
ENDBRANCH   8  11
ENDBRANCH   4   7
BRANCH   6  20
ATOM     20  S   UNL     1       6.843   5.678  18.684  0.00  0.00    +0.000 S 
ATOM     21  O   UNL     1       7.153   6.927  18.026  0.00  0.00    +0.000 OA
ATOM     22  O   UNL     1       7.362   5.407  20.010  0.00  0.00    +0.000 OA
BRANCH  20  23
ATOM     23  N   UNL     1       7.391   4.424  17.696  0.00  0.00    +0.000 N 
ATOM     24  H   UNL     1       7.783   3.624  18.187  0.00  0.00    +0.000 HD
BRANCH  23  25
ATOM     25  C   UNL     1       6.914   4.283  16.369  0.00  0.00    +0.000 A 
ATOM     26  C   UNL     1       5.790   3.491  16.120  0.00  0.00    +0.000 A 
ATOM     27  C   UNL     1       5.305   3.360  14.815  0.00  0.00    +0.000 A 
ATOM     28  C   UNL     1       5.952   4.011  13.765  0.00  0.00    +0.000 A 
ATOM     29 CL   UNL     1       5.364   3.846  12.158  0.00  0.00    +0.000 Cl
ATOM     30  C   UNL     1       7.073   4.804  14.015  0.00  0.00    +0.000 A 
ATOM     31  C   UNL     1       7.547   4.949  15.322  0.00  0.00    +0.000 A 
ENDBRANCH  23  25
ENDBRANCH  20  23
ENDBRANCH   6  20
BRANCH   1  33
ATOM     32  C   UNL     1       4.373   2.250  20.255  0.00  0.00    +0.000 C 
ATOM     33  O   UNL     1       5.132   3.256  19.574  0.00  0.00    +0.000 OA
ENDBRANCH   1  33
TORSDOF 9
ENDMDL
MODEL 8
REMARK VINA RESULT:      -7.4      2.104      2.924
REMARK  Name = 
REMARK  10 active torsions:
REMARK  status: ('A' for Active; 'I' for Inactive)
REMARK    1  A    between atoms: C_1  and  O_2
REMARK    2  A    between atoms: O_2  and  C_3
REMARK    3  A    between atoms: C_6  and  N_7
REMARK    4  A    between atoms: C_8  and  C_10
REMARK    5  A    between atoms: C_10  and  C_11
REMARK    6  A    between atoms: C_11  and  C_12
REMARK    7  A    between atoms: C_12  and  C_14
REMARK    8  A    between atoms: C_20  and  S_21
REMARK    9  A    between atoms: S_21  and  N_24
REMARK   10  A    between atoms: N_24  and  C_25
REMARK                            x       y       z     vdW  Elec       q    Type
REMARK                         _______ _______ _______ _____ _____    ______ ____
ROOT
ATOM      1  C   UNL     1       4.131   4.318  19.413  0.00  0.00    +0.000 A 
ATOM      2  C   UNL     1       2.746   4.371  19.602  0.00  0.00    +0.000 A 
ATOM      3  C   UNL     1       2.056   5.583  19.545  0.00  0.00    +0.000 A 
ATOM      4  C   UNL     1       2.715   6.775  19.276  0.00  0.00    +0.000 A 
ATOM      5  C   UNL     1       4.101   6.738  19.067  0.00  0.00    +0.000 A 
ATOM      6  C   UNL     1       4.805   5.511  19.105  0.00  0.00    +0.000 A 
ENDROOT
BRANCH   4   7
ATOM      7  N   UNL     1       2.054   8.016  19.230  0.00  0.00    +0.000 N 
ATOM      8  C   UNL     1       2.007   8.847  18.126  0.00  0.00    +0.000 C 
ATOM      9  O   UNL     1       2.682   8.728  17.102  0.00  0.00    +0.000 OA
ATOM     10  H   UNL     1       1.584   8.319  20.075  0.00  0.00    +0.000 HD
BRANCH   8  11
ATOM     11  C   UNL     1       1.085  10.039  18.291  0.00  0.00    +0.000 C 
BRANCH  11  12
ATOM     12  C   UNL     1      -0.361   9.568  18.470  0.00  0.00    +0.000 C 
BRANCH  12  13
ATOM     13  C   UNL     1      -1.318  10.742  18.667  0.00  0.00    +0.000 C 
ATOM     14  O   UNL     1      -1.111  11.560  19.566  0.00  0.00    +0.000 OA
BRANCH  13  15
ATOM     15  C   UNL     1      -2.428  10.851  17.721  0.00  0.00    +0.000 A 
ATOM     16  C   UNL     1      -2.483  10.552  16.370  0.00  0.00    +0.000 A 
ATOM     17  C   UNL     1      -3.763  10.823  15.800  0.00  0.00    +0.000 A 
ATOM     18  C   UNL     1      -4.647  11.319  16.731  0.00  0.00    +0.000 A 
ATOM     19  S   UNL     1      -3.938  11.452  18.278  0.00  0.00    +0.000 S 
ENDBRANCH  13  15
ENDBRANCH  12  13
ENDBRANCH  11  12
ENDBRANCH   8  11
ENDBRANCH   4   7
BRANCH   6  20
ATOM     20  S   UNL     1       6.566   5.600  18.842  0.00  0.00    +0.000 S 
ATOM     21  O   UNL     1       6.829   6.756  18.016  0.00  0.00    +0.000 OA
ATOM     22  O   UNL     1       7.253   5.442  20.110  0.00  0.00    +0.000 OA
BRANCH  20  23
ATOM     23  N   UNL     1       6.928   4.223  17.934  0.00  0.00    +0.000 N 
ATOM     24  H   UNL     1       7.031   3.365  18.469  0.00  0.00    +0.000 HD
BRANCH  23  25
ATOM     25  C   UNL     1       6.636   4.171  16.548  0.00  0.00    +0.000 A 
ATOM     26  C   UNL     1       5.466   3.544  16.112  0.00  0.00    +0.000 A 
ATOM     27  C   UNL     1       5.165   3.501  14.747  0.00  0.00    +0.000 A 
ATOM     28  C   UNL     1       6.039   4.075  13.825  0.00  0.00    +0.000 A 
ATOM     29 CL   UNL     1       5.677   4.017  12.146  0.00  0.00    +0.000 Cl
ATOM     30  C   UNL     1       7.207   4.703  14.261  0.00  0.00    +0.000 A 
ATOM     31  C   UNL     1       7.499   4.761  15.627  0.00  0.00    +0.000 A 
ENDBRANCH  23  25
ENDBRANCH  20  23
ENDBRANCH   6  20
BRANCH   1  33
ATOM     32  C   UNL     1       4.001   1.954  19.418  0.00  0.00    +0.000 C 
ATOM     33  O   UNL     1       4.812   3.132  19.491  0.00  0.00    +0.000 OA
ENDBRANCH   1  33
TORSDOF 9
ENDMDL
MODEL 9
REMARK VINA RESULT:      -7.4      4.360      9.946
REMARK  Name = 
REMARK  10 active torsions:
REMARK  status: ('A' for Active; 'I' for Inactive)
REMARK    1  A    between atoms: C_1  and  O_2
REMARK    2  A    between atoms: O_2  and  C_3
REMARK    3  A    between atoms: C_6  and  N_7
REMARK    4  A    between atoms: C_8  and  C_10
REMARK    5  A    between atoms: C_10  and  C_11
REMARK    6  A    between atoms: C_11  and  C_12
REMARK    7  A    between atoms: C_12  and  C_14
REMARK    8  A    between atoms: C_20  and  S_21
REMARK    9  A    between atoms: S_21  and  N_24
REMARK   10  A    between atoms: N_24  and  C_25
REMARK                            x       y       z     vdW  Elec       q    Type
REMARK                         _______ _______ _______ _____ _____    ______ ____
ROOT
ATOM      1  C   UNL     1       1.265   9.749  18.808  0.00  0.00    +0.000 A 
ATOM      2  C   UNL     1       1.971   8.947  17.906  0.00  0.00    +0.000 A 
ATOM      3  C   UNL     1       2.490   7.711  18.292  0.00  0.00    +0.000 A 
ATOM      4  C   UNL     1       2.304   7.222  19.578  0.00  0.00    +0.000 A 
ATOM      5  C   UNL     1       1.584   8.005  20.492  0.00  0.00    +0.000 A 
ATOM      6  C   UNL     1       1.039   9.252  20.102  0.00  0.00    +0.000 A 
ENDROOT
BRANCH   4   7
ATOM      7  N   UNL     1       2.830   5.989  20.007  0.00  0.00    +0.000 N 
ATOM      8  C   UNL     1       2.499   4.759  19.469  0.00  0.00    +0.000 C 
ATOM      9  O   UNL     1       1.573   4.536  18.689  0.00  0.00    +0.000 OA
ATOM     10  H   UNL     1       3.495   6.012  20.770  0.00  0.00    +0.000 HD
BRANCH   8  11
ATOM     11  C   UNL     1       3.337   3.611  19.997  0.00  0.00    +0.000 C 
BRANCH  11  12
ATOM     12  C   UNL     1       4.459   3.279  19.009  0.00  0.00    +0.000 C 
BRANCH  12  13
ATOM     13  C   UNL     1       5.360   4.485  18.751  0.00  0.00    +0.000 C 
ATOM     14  O   UNL     1       6.018   4.970  19.675  0.00  0.00    +0.000 OA
BRANCH  13  15
ATOM     15  C   UNL     1       5.423   4.976  17.375  0.00  0.00    +0.000 A 
ATOM     16  C   UNL     1       5.222   6.251  16.873  0.00  0.00    +0.000 A 
ATOM     17  C   UNL     1       5.356   6.307  15.453  0.00  0.00    +0.000 A 
ATOM     18  C   UNL     1       5.655   5.076  14.913  0.00  0.00    +0.000 A 
ATOM     19  S   UNL     1       5.777   3.867  16.112  0.00  0.00    +0.000 S 
ENDBRANCH  13  15
ENDBRANCH  12  13
ENDBRANCH  11  12
ENDBRANCH   8  11
ENDBRANCH   4   7
BRANCH   6  20
ATOM     20  S   UNL     1       0.161  10.160  21.360  0.00  0.00    +0.000 S 
ATOM     21  O   UNL     1      -0.434   9.199  22.260  0.00  0.00    +0.000 OA
ATOM     22  O   UNL     1       1.012  11.213  21.879  0.00  0.00    +0.000 OA
BRANCH  20  23
ATOM     23  N   UNL     1      -1.090  10.932  20.529  0.00  0.00    +0.000 N 
ATOM     24  H   UNL     1      -1.491  10.403  19.759  0.00  0.00    +0.000 HD
BRANCH  23  25
ATOM     25  C   UNL     1      -1.828  11.978  21.137  0.00  0.00    +0.000 A 
ATOM     26  C   UNL     1      -2.439  12.947  20.338  0.00  0.00    +0.000 A 
ATOM     27  C   UNL     1      -3.180  13.975  20.931  0.00  0.00    +0.000 A 
ATOM     28  C   UNL     1      -3.295  14.034  22.319  0.00  0.00    +0.000 A 
ATOM     29 CL   UNL     1      -4.198  15.300  23.052  0.00  0.00    +0.000 Cl
ATOM     30  C   UNL     1      -2.686  13.065  23.117  0.00  0.00    +0.000 A 
ATOM     31  C   UNL     1      -1.961  12.029  22.523  0.00  0.00    +0.000 A 
ENDBRANCH  23  25
ENDBRANCH  20  23
ENDBRANCH   6  20
BRANCH   1  33
ATOM     32  C   UNL     1       1.719  12.049  18.474  0.00  0.00    +0.000 C 
ATOM     33  O   UNL     1       0.775  10.972  18.435  0.00  0.00    +0.000 OA
ENDBRANCH   1  33
TORSDOF 9
ENDMDL
