MODEL 1
REMARK VINA RESULT:      -6.5      0.000      0.000
REMARK  Name = 
REMARK  6 active torsions:
REMARK  status: ('A' for Active; 'I' for Inactive)
REMARK    1  A    between atoms: C_1  and  O_2
REMARK    2  A    between atoms: O_2  and  C_3
REMARK    3  A    between atoms: C_8  and  O_9
REMARK    4  A    between atoms: O_9  and  C_10
REMARK    5  A    between atoms: S_11  and  C_12
REMARK    6  A    between atoms: C_20  and  C_22
REMARK                            x       y       z     vdW  Elec       q    Type
REMARK                         _______ _______ _______ _____ _____    ______ ____
ROOT
ATOM      1  C   UNL     1      -0.322  12.377  18.912  0.00  0.00    +0.000 A 
ATOM      2  C   UNL     1       0.655  11.385  18.580  0.00  0.00    +0.000 A 
ATOM      3  C   UNL     1       0.759  10.191  19.311  0.00  0.00    +0.000 A 
ATOM      4  C   UNL     1      -0.122  10.009  20.363  0.00  0.00    +0.000 A 
ATOM      5  C   UNL     1      -1.125  10.910  20.656  0.00  0.00    +0.000 A 
ATOM      6  C   UNL     1      -1.261  12.093  19.950  0.00  0.00    +0.000 A 
ATOM      7  S   UNL     1       0.211   8.755  21.512  0.00  0.00    +0.000 S 
ATOM      8  C   UNL     1       1.182   9.407  22.889  0.00  0.00    +0.000 C 
ATOM      9  O   UNL     1      -1.020   7.918  21.889  0.00  0.00    +0.000 OA
ATOM     10  N   UNL     1       1.118   7.711  20.746  0.00  0.00    +0.000 NA
ATOM     11  C   UNL     1       1.936   8.074  19.638  0.00  0.00    +0.000 C 
ATOM     12  N   UNL     1       2.938   7.130  19.202  0.00  0.00    +0.000 N 
ATOM     13  C   UNL     1       3.105   5.825  19.845  0.00  0.00    +0.000 C 
ATOM     14  C   UNL     1       2.867   4.718  18.799  0.00  0.00    +0.000 C 
ATOM     15  N   UNL     1       3.698   4.965  17.617  0.00  0.00    +0.000 N 
ATOM     16  C   UNL     1       4.497   3.961  17.092  0.00  0.00    +0.000 C 
ATOM     17  O   UNL     1       4.453   2.848  17.586  0.00  0.00    +0.000 OA
ATOM     18  C   UNL     1       3.530   6.293  17.015  0.00  0.00    +0.000 C 
ATOM     19  C   UNL     1       3.801   7.378  18.059  0.00  0.00    +0.000 C 
ATOM     20  N   UNL     1       1.771   9.214  19.014  0.00  0.00    +0.000 NA
ENDROOT
BRANCH  16  21
ATOM     21  C   UNL     1       5.387   4.145  15.900  0.00  0.00    +0.000 A 
ATOM     22  C   UNL     1       6.700   4.581  15.950  0.00  0.00    +0.000 A 
ATOM     23  C   UNL     1       7.148   4.591  14.645  0.00  0.00    +0.000 A 
ATOM     24  C   UNL     1       6.083   4.189  13.874  0.00  0.00    +0.000 A 
ATOM     25  O   UNL     1       5.056   3.929  14.647  0.00  0.00    +0.000 OA
ENDBRANCH  16  21
BRANCH   1  27
ATOM     26  C   UNL     1       0.210  14.741  18.814  0.00  0.00    +0.000 C 
ATOM     27  O   UNL     1      -0.324  13.576  18.273  0.00  0.00    +0.000 OA
ENDBRANCH   1  27
BRANCH   6  28
ATOM     28  O   UNL     1      -2.273  12.880  20.414  0.00  0.00    +0.000 OA
ATOM     29  C   UNL     1      -3.635  12.888  20.229  0.00  0.00    +0.000 C 
ENDBRANCH   6  28
TORSDOF 3
ENDMDL
MODEL 2
REMARK VINA RESULT:      -6.3      3.093      9.341
REMARK  Name = 
REMARK  6 active torsions:
REMARK  status: ('A' for Active; 'I' for Inactive)
REMARK    1  A    between atoms: C_1  and  O_2
REMARK    2  A    between atoms: O_2  and  C_3
REMARK    3  A    between atoms: C_8  and  O_9
REMARK    4  A    between atoms: O_9  and  C_10
REMARK    5  A    between atoms: S_11  and  C_12
REMARK    6  A    between atoms: C_20  and  C_22
REMARK                            x       y       z     vdW  Elec       q    Type
REMARK                         _______ _______ _______ _____ _____    ______ ____
ROOT
ATOM      1  C   UNL     1       2.353   7.162  18.607  0.00  0.00    +0.000 A 
ATOM      2  C   UNL     1       1.917   8.516  18.448  0.00  0.00    +0.000 A 
ATOM      3  C   UNL     1       1.501   9.281  19.549  0.00  0.00    +0.000 A 
ATOM      4  C   UNL     1       1.533   8.678  20.794  0.00  0.00    +0.000 A 
ATOM      5  C   UNL     1       2.024   7.403  20.989  0.00  0.00    +0.000 A 
ATOM      6  C   UNL     1       2.450   6.624  19.927  0.00  0.00    +0.000 A 
ATOM      7  S   UNL     1       0.684   9.435  22.102  0.00  0.00    +0.000 S 
ATOM      8  C   UNL     1      -0.999   8.790  22.213  0.00  0.00    +0.000 C 
ATOM      9  O   UNL     1       1.480   9.478  23.413  0.00  0.00    +0.000 OA
ATOM     10  N   UNL     1       0.581  10.963  21.709  0.00  0.00    +0.000 NA
ATOM     11  C   UNL     1       0.614  11.411  20.357  0.00  0.00    +0.000 C 
ATOM     12  N   UNL     1       0.219  12.774  20.088  0.00  0.00    +0.000 N 
ATOM     13  C   UNL     1      -0.178  13.691  21.159  0.00  0.00    +0.000 C 
ATOM     14  C   UNL     1       0.782  14.896  21.166  0.00  0.00    +0.000 C 
ATOM     15  N   UNL     1       0.864  15.473  19.822  0.00  0.00    +0.000 N 
ATOM     16  C   UNL     1       0.688  16.834  19.623  0.00  0.00    +0.000 C 
ATOM     17  O   UNL     1       0.527  17.558  20.590  0.00  0.00    +0.000 OA
ATOM     18  C   UNL     1       1.233  14.522  18.767  0.00  0.00    +0.000 C 
ATOM     19  C   UNL     1       0.251  13.349  18.755  0.00  0.00    +0.000 C 
ATOM     20  N   UNL     1       1.014  10.625  19.389  0.00  0.00    +0.000 NA
ENDROOT
BRANCH  16  21
ATOM     21  C   UNL     1       0.737  17.492  18.278  0.00  0.00    +0.000 A 
ATOM     22  C   UNL     1      -0.371  17.834  17.521  0.00  0.00    +0.000 A 
ATOM     23  C   UNL     1       0.119  18.425  16.374  0.00  0.00    +0.000 A 
ATOM     24  C   UNL     1       1.489  18.386  16.482  0.00  0.00    +0.000 A 
ATOM     25  O   UNL     1       1.824  17.830  17.622  0.00  0.00    +0.000 OA
ENDBRANCH  16  21
BRANCH   1  27
ATOM     26  C   UNL     1       3.897   5.895  17.232  0.00  0.00    +0.000 C 
ATOM     27  O   UNL     1       2.632   6.401  17.517  0.00  0.00    +0.000 OA
ENDBRANCH   1  27
BRANCH   6  28
ATOM     28  O   UNL     1       2.851   5.377  20.305  0.00  0.00    +0.000 OA
ATOM     29  C   UNL     1       2.284   4.385  21.070  0.00  0.00    +0.000 C 
ENDBRANCH   6  28
TORSDOF 3
ENDMDL
MODEL 3
REMARK VINA RESULT:      -6.2      2.309      9.206
REMARK  Name = 
REMARK  6 active torsions:
REMARK  status: ('A' for Active; 'I' for Inactive)
REMARK    1  A    between atoms: C_1  and  O_2
REMARK    2  A    between atoms: O_2  and  C_3
REMARK    3  A    between atoms: C_8  and  O_9
REMARK    4  A    between atoms: O_9  and  C_10
REMARK    5  A    between atoms: S_11  and  C_12
REMARK    6  A    between atoms: C_20  and  C_22
REMARK                            x       y       z     vdW  Elec       q    Type
REMARK                         _______ _______ _______ _____ _____    ______ ____
ROOT
ATOM      1  C   UNL     1       4.961   6.447  17.029  0.00  0.00    +0.000 A 
ATOM      2  C   UNL     1       3.964   7.353  17.513  0.00  0.00    +0.000 A 
ATOM      3  C   UNL     1       3.180   7.042  18.635  0.00  0.00    +0.000 A 
ATOM      4  C   UNL     1       3.412   5.828  19.258  0.00  0.00    +0.000 A 
ATOM      5  C   UNL     1       4.419   4.972  18.864  0.00  0.00    +0.000 A 
ATOM      6  C   UNL     1       5.216   5.251  17.767  0.00  0.00    +0.000 A 
ATOM      7  S   UNL     1       2.235   5.240  20.387  0.00  0.00    +0.000 S 
ATOM      8  C   UNL     1       1.030   4.189  19.547  0.00  0.00    +0.000 C 
ATOM      9  O   UNL     1       2.845   4.673  21.677  0.00  0.00    +0.000 OA
ATOM     10  N   UNL     1       1.468   6.523  20.901  0.00  0.00    +0.000 NA
ATOM     11  C   UNL     1       1.371   7.718  20.133  0.00  0.00    +0.000 C 
ATOM     12  N   UNL     1       0.412   8.713  20.552  0.00  0.00    +0.000 N 
ATOM     13  C   UNL     1      -0.422   8.533  21.743  0.00  0.00    +0.000 C 
ATOM     14  C   UNL     1      -0.123   9.668  22.740  0.00  0.00    +0.000 C 
ATOM     15  N   UNL     1      -0.236  10.964  22.065  0.00  0.00    +0.000 N 
ATOM     16  C   UNL     1      -1.004  11.982  22.610  0.00  0.00    +0.000 C 
ATOM     17  O   UNL     1      -1.535  11.810  23.693  0.00  0.00    +0.000 OA
ATOM     18  C   UNL     1       0.589  11.102  20.859  0.00  0.00    +0.000 C 
ATOM     19  C   UNL     1       0.256   9.985  19.868  0.00  0.00    +0.000 C 
ATOM     20  N   UNL     1       2.142   7.925  19.095  0.00  0.00    +0.000 NA
ENDROOT
BRANCH  16  21
ATOM     21  C   UNL     1      -1.182  13.324  21.969  0.00  0.00    +0.000 A 
ATOM     22  C   UNL     1      -0.560  14.490  22.382  0.00  0.00    +0.000 A 
ATOM     23  C   UNL     1      -0.986  15.477  21.516  0.00  0.00    +0.000 A 
ATOM     24  C   UNL     1      -1.858  14.868  20.645  0.00  0.00    +0.000 A 
ATOM     25  O   UNL     1      -1.951  13.593  20.937  0.00  0.00    +0.000 OA
ENDBRANCH  16  21
BRANCH   1  27
ATOM     26  C   UNL     1       5.571   5.891  14.750  0.00  0.00    +0.000 C 
ATOM     27  O   UNL     1       5.621   6.712  15.872  0.00  0.00    +0.000 OA
ENDBRANCH   1  27
BRANCH   6  28
ATOM     28  O   UNL     1       6.121   4.267  17.497  0.00  0.00    +0.000 OA
ATOM     29  C   UNL     1       7.492   4.233  17.409  0.00  0.00    +0.000 C 
ENDBRANCH   6  28
TORSDOF 3
ENDMDL
MODEL 4
REMARK VINA RESULT:      -6.1      3.364      5.281
REMARK  Name = 
REMARK  6 active torsions:
REMARK  status: ('A' for Active; 'I' for Inactive)
REMARK    1  A    between atoms: C_1  and  O_2
REMARK    2  A    between atoms: O_2  and  C_3
REMARK    3  A    between atoms: C_8  and  O_9
REMARK    4  A    between atoms: O_9  and  C_10
REMARK    5  A    between atoms: S_11  and  C_12
REMARK    6  A    between atoms: C_20  and  C_22
REMARK                            x       y       z     vdW  Elec       q    Type
REMARK                         _______ _______ _______ _____ _____    ______ ____
ROOT
ATOM      1  C   UNL     1      -0.929  14.196  23.211  0.00  0.00    +0.000 A 
ATOM      2  C   UNL     1      -0.751  12.860  22.730  0.00  0.00    +0.000 A 
ATOM      3  C   UNL     1      -0.086  12.603  21.521  0.00  0.00    +0.000 A 
ATOM      4  C   UNL     1       0.395  13.691  20.814  0.00  0.00    +0.000 A 
ATOM      5  C   UNL     1       0.309  14.983  21.291  0.00  0.00    +0.000 A 
ATOM      6  C   UNL     1      -0.333  15.271  22.482  0.00  0.00    +0.000 A 
ATOM      7  S   UNL     1       0.872  13.460  19.163  0.00  0.00    +0.000 S 
ATOM      8  C   UNL     1      -0.517  13.789  18.057  0.00  0.00    +0.000 C 
ATOM      9  O   UNL     1       2.200  14.139  18.802  0.00  0.00    +0.000 OA
ATOM     10  N   UNL     1       1.223  11.924  19.038  0.00  0.00    +0.000 NA
ATOM     11  C   UNL     1       0.661  10.935  19.897  0.00  0.00    +0.000 C 
ATOM     12  N   UNL     1       0.809   9.550  19.518  0.00  0.00    +0.000 N 
ATOM     13  C   UNL     1       1.535   9.150  18.311  0.00  0.00    +0.000 C 
ATOM     14  C   UNL     1       2.723   8.256  18.715  0.00  0.00    +0.000 C 
ATOM     15  N   UNL     1       2.254   7.166  19.575  0.00  0.00    +0.000 N 
ATOM     16  C   UNL     1       2.595   5.851  19.300  0.00  0.00    +0.000 C 
ATOM     17  O   UNL     1       3.344   5.614  18.369  0.00  0.00    +0.000 OA
ATOM     18  C   UNL     1       1.503   7.599  20.760  0.00  0.00    +0.000 C 
ATOM     19  C   UNL     1       0.311   8.459  20.337  0.00  0.00    +0.000 C 
ATOM     20  N   UNL     1       0.052  11.266  21.008  0.00  0.00    +0.000 NA
ENDROOT
BRANCH  16  21
ATOM     21  C   UNL     1       2.137   4.684  20.121  0.00  0.00    +0.000 A 
ATOM     22  C   UNL     1       1.141   3.796  19.752  0.00  0.00    +0.000 A 
ATOM     23  C   UNL     1       1.051   2.876  20.777  0.00  0.00    +0.000 A 
ATOM     24  C   UNL     1       1.972   3.266  21.720  0.00  0.00    +0.000 A 
ATOM     25  O   UNL     1       2.601   4.339  21.301  0.00  0.00    +0.000 OA
ENDBRANCH  16  21
BRANCH   1  27
ATOM     26  C   UNL     1      -3.023  14.079  24.427  0.00  0.00    +0.000 C 
ATOM     27  O   UNL     1      -1.682  14.431  24.317  0.00  0.00    +0.000 OA
ENDBRANCH   1  27
BRANCH   6  28
ATOM     28  O   UNL     1      -0.365  16.605  22.765  0.00  0.00    +0.000 OA
ATOM     29  C   UNL     1      -1.166  17.645  22.359  0.00  0.00    +0.000 C 
ENDBRANCH   6  28
TORSDOF 3
ENDMDL
MODEL 5
REMARK VINA RESULT:      -6.1      6.849      8.781
REMARK  Name = 
REMARK  6 active torsions:
REMARK  status: ('A' for Active; 'I' for Inactive)
REMARK    1  A    between atoms: C_1  and  O_2
REMARK    2  A    between atoms: O_2  and  C_3
REMARK    3  A    between atoms: C_8  and  O_9
REMARK    4  A    between atoms: O_9  and  C_10
REMARK    5  A    between atoms: S_11  and  C_12
REMARK    6  A    between atoms: C_20  and  C_22
REMARK                            x       y       z     vdW  Elec       q    Type
REMARK                         _______ _______ _______ _____ _____    ______ ____
ROOT
ATOM      1  C   UNL     1       0.621  12.423  18.925  0.00  0.00    +0.000 A 
ATOM      2  C   UNL     1       1.983  12.706  18.587  0.00  0.00    +0.000 A 
ATOM      3  C   UNL     1       2.548  13.967  18.835  0.00  0.00    +0.000 A 
ATOM      4  C   UNL     1       1.739  14.924  19.422  0.00  0.00    +0.000 A 
ATOM      5  C   UNL     1       0.449  14.656  19.831  0.00  0.00    +0.000 A 
ATOM      6  C   UNL     1      -0.137  13.422  19.610  0.00  0.00    +0.000 A 
ATOM      7  S   UNL     1       2.261  16.577  19.394  0.00  0.00    +0.000 S 
ATOM      8  C   UNL     1       1.609  17.416  17.934  0.00  0.00    +0.000 C 
ATOM      9  O   UNL     1       2.076  17.306  20.733  0.00  0.00    +0.000 OA
ATOM     10  N   UNL     1       3.833  16.519  19.246  0.00  0.00    +0.000 NA
ATOM     11  C   UNL     1       4.508  15.416  18.649  0.00  0.00    +0.000 C 
ATOM     12  N   UNL     1       5.897  15.586  18.294  0.00  0.00    +0.000 N 
ATOM     13  C   UNL     1       6.617  16.835  18.557  0.00  0.00    +0.000 C 
ATOM     14  C   UNL     1       7.801  16.540  19.497  0.00  0.00    +0.000 C 
ATOM     15  N   UNL     1       8.601  15.438  18.958  0.00  0.00    +0.000 N 
ATOM     16  C   UNL     1       9.976  15.558  18.826  0.00  0.00    +0.000 C 
ATOM     17  O   UNL     1      10.523  16.571  19.225  0.00  0.00    +0.000 OA
ATOM     18  C   UNL     1       7.845  14.211  18.676  0.00  0.00    +0.000 C 
ATOM     19  C   UNL     1       6.693  14.517  17.717  0.00  0.00    +0.000 C 
ATOM     20  N   UNL     1       3.900  14.273  18.451  0.00  0.00    +0.000 NA
ENDROOT
BRANCH  16  21
ATOM     21  C   UNL     1      10.856  14.483  18.265  0.00  0.00    +0.000 A 
ATOM     22  C   UNL     1      11.342  14.451  16.969  0.00  0.00    +0.000 A 
ATOM     23  C   UNL     1      12.114  13.310  16.880  0.00  0.00    +0.000 A 
ATOM     24  C   UNL     1      12.035  12.700  18.109  0.00  0.00    +0.000 A 
ATOM     25  O   UNL     1      11.285  13.421  18.909  0.00  0.00    +0.000 OA
ENDBRANCH  16  21
BRANCH   1  27
ATOM     26  C   UNL     1      -0.069  10.153  19.424  0.00  0.00    +0.000 C 
ATOM     27  O   UNL     1       0.059  11.240  18.565  0.00  0.00    +0.000 OA
ENDBRANCH   1  27
BRANCH   6  28
ATOM     28  O   UNL     1      -1.431  13.359  20.034  0.00  0.00    +0.000 OA
ATOM     29  C   UNL     1      -2.024  13.083  21.243  0.00  0.00    +0.000 C 
ENDBRANCH   6  28
TORSDOF 3
ENDMDL
MODEL 6
REMARK VINA RESULT:      -5.8      6.825      8.917
REMARK  Name = 
REMARK  6 active torsions:
REMARK  status: ('A' for Active; 'I' for Inactive)
REMARK    1  A    between atoms: C_1  and  O_2
REMARK    2  A    between atoms: O_2  and  C_3
REMARK    3  A    between atoms: C_8  and  O_9
REMARK    4  A    between atoms: O_9  and  C_10
REMARK    5  A    between atoms: S_11  and  C_12
REMARK    6  A    between atoms: C_20  and  C_22
REMARK                            x       y       z     vdW  Elec       q    Type
REMARK                         _______ _______ _______ _____ _____    ______ ____
ROOT
ATOM      1  C   UNL     1       0.814  11.872  18.921  0.00  0.00    +0.000 A 
ATOM      2  C   UNL     1       2.129  12.342  18.607  0.00  0.00    +0.000 A 
ATOM      3  C   UNL     1       2.539  13.642  18.943  0.00  0.00    +0.000 A 
ATOM      4  C   UNL     1       1.624  14.450  19.594  0.00  0.00    +0.000 A 
ATOM      5  C   UNL     1       0.379  14.000  19.981  0.00  0.00    +0.000 A 
ATOM      6  C   UNL     1      -0.054  12.722  19.673  0.00  0.00    +0.000 A 
ATOM      7  S   UNL     1       1.941  16.152  19.683  0.00  0.00    +0.000 S 
ATOM      8  C   UNL     1       1.183  17.006  18.284  0.00  0.00    +0.000 C 
ATOM      9  O   UNL     1       1.678  16.758  21.069  0.00  0.00    +0.000 OA
ATOM     10  N   UNL     1       3.508  16.297  19.534  0.00  0.00    +0.000 NA
ATOM     11  C   UNL     1       4.308  15.327  18.863  0.00  0.00    +0.000 C 
ATOM     12  N   UNL     1       5.663  15.689  18.524  0.00  0.00    +0.000 N 
ATOM     13  C   UNL     1       6.228  16.995  18.875  0.00  0.00    +0.000 C 
ATOM     14  C   UNL     1       7.445  16.782  19.795  0.00  0.00    +0.000 C 
ATOM     15  N   UNL     1       8.370  15.825  19.182  0.00  0.00    +0.000 N 
ATOM     16  C   UNL     1       9.719  16.120  19.061  0.00  0.00    +0.000 C 
ATOM     17  O   UNL     1      10.142  17.162  19.531  0.00  0.00    +0.000 OA
ATOM     18  C   UNL     1       7.766  14.538  18.813  0.00  0.00    +0.000 C 
ATOM     19  C   UNL     1       6.580  14.768  17.875  0.00  0.00    +0.000 C 
ATOM     20  N   UNL     1       3.842  14.135  18.585  0.00  0.00    +0.000 NA
ENDROOT
BRANCH  16  21
ATOM     21  C   UNL     1      10.719  15.202  18.429  0.00  0.00    +0.000 A 
ATOM     22  C   UNL     1      11.617  14.408  19.122  0.00  0.00    +0.000 A 
ATOM     23  C   UNL     1      12.332  13.716  18.165  0.00  0.00    +0.000 A 
ATOM     24  C   UNL     1      11.852  14.143  16.950  0.00  0.00    +0.000 A 
ATOM     25  O   UNL     1      10.896  15.020  17.139  0.00  0.00    +0.000 OA
ENDBRANCH  16  21
BRANCH   1  27
ATOM     26  C   UNL     1       1.148   9.493  18.598  0.00  0.00    +0.000 C 
ATOM     27  O   UNL     1       0.397  10.658  18.478  0.00  0.00    +0.000 OA
ENDBRANCH   1  27
BRANCH   6  28
ATOM     28  O   UNL     1      -1.329  12.473  20.089  0.00  0.00    +0.000 OA
ATOM     29  C   UNL     1      -2.547  12.431  19.454  0.00  0.00    +0.000 C 
ENDBRANCH   6  28
TORSDOF 3
ENDMDL
MODEL 7
REMARK VINA RESULT:      -5.7      2.549      4.187
REMARK  Name = 
REMARK  6 active torsions:
REMARK  status: ('A' for Active; 'I' for Inactive)
REMARK    1  A    between atoms: C_1  and  O_2
REMARK    2  A    between atoms: O_2  and  C_3
REMARK    3  A    between atoms: C_8  and  O_9
REMARK    4  A    between atoms: O_9  and  C_10
REMARK    5  A    between atoms: S_11  and  C_12
REMARK    6  A    between atoms: C_20  and  C_22
REMARK                            x       y       z     vdW  Elec       q    Type
REMARK                         _______ _______ _______ _____ _____    ______ ____
ROOT
ATOM      1  C   UNL     1      -1.242  12.057  22.893  0.00  0.00    +0.000 A 
ATOM      2  C   UNL     1      -0.782  10.893  22.199  0.00  0.00    +0.000 A 
ATOM      3  C   UNL     1       0.018  10.998  21.050  0.00  0.00    +0.000 A 
ATOM      4  C   UNL     1       0.349  12.269  20.617  0.00  0.00    +0.000 A 
ATOM      5  C   UNL     1      -0.011  13.407  21.310  0.00  0.00    +0.000 A 
ATOM      6  C   UNL     1      -0.793  13.339  22.451  0.00  0.00    +0.000 A 
ATOM      7  S   UNL     1       0.997  12.457  19.020  0.00  0.00    +0.000 S 
ATOM      8  C   UNL     1      -0.331  12.773  17.838  0.00  0.00    +0.000 C 
ATOM      9  O   UNL     1       2.204  13.403  18.950  0.00  0.00    +0.000 OA
ATOM     10  N   UNL     1       1.633  11.057  18.657  0.00  0.00    +0.000 NA
ATOM     11  C   UNL     1       1.191   9.837  19.246  0.00  0.00    +0.000 C 
ATOM     12  N   UNL     1       1.621   8.600  18.639  0.00  0.00    +0.000 N 
ATOM     13  C   UNL     1       2.507   8.576  17.472  0.00  0.00    +0.000 C 
ATOM     14  C   UNL     1       3.800   7.825  17.843  0.00  0.00    +0.000 C 
ATOM     15  N   UNL     1       3.468   6.522  18.426  0.00  0.00    +0.000 N 
ATOM     16  C   UNL     1       4.065   5.363  17.955  0.00  0.00    +0.000 C 
ATOM     17  O   UNL     1       4.921   5.444  17.091  0.00  0.00    +0.000 OA
ATOM     18  C   UNL     1       2.554   6.578  19.573  0.00  0.00    +0.000 C 
ATOM     19  C   UNL     1       1.264   7.299  19.178  0.00  0.00    +0.000 C 
ATOM     20  N   UNL     1       0.441   9.833  20.319  0.00  0.00    +0.000 NA
ENDROOT
BRANCH  16  21
ATOM     21  C   UNL     1       3.762   3.995  18.487  0.00  0.00    +0.000 A 
ATOM     22  C   UNL     1       2.819   3.130  17.959  0.00  0.00    +0.000 A 
ATOM     23  C   UNL     1       2.874   1.988  18.732  0.00  0.00    +0.000 A 
ATOM     24  C   UNL     1       3.822   2.228  19.698  0.00  0.00    +0.000 A 
ATOM     25  O   UNL     1       4.331   3.425  19.524  0.00  0.00    +0.000 OA
ENDBRANCH  16  21
BRANCH   1  27
ATOM     26  C   UNL     1      -3.472  12.231  23.829  0.00  0.00    +0.000 C 
ATOM     27  O   UNL     1      -2.115  11.937  23.926  0.00  0.00    +0.000 OA
ENDBRANCH   1  27
BRANCH   6  28
ATOM     28  O   UNL     1      -1.092  14.565  22.969  0.00  0.00    +0.000 OA
ATOM     29  C   UNL     1      -1.106  15.083  24.242  0.00  0.00    +0.000 C 
ENDBRANCH   6  28
TORSDOF 3
ENDMDL
MODEL 8
REMARK VINA RESULT:      -5.5      7.086      9.009
REMARK  Name = 
REMARK  6 active torsions:
REMARK  status: ('A' for Active; 'I' for Inactive)
REMARK    1  A    between atoms: C_1  and  O_2
REMARK    2  A    between atoms: O_2  and  C_3
REMARK    3  A    between atoms: C_8  and  O_9
REMARK    4  A    between atoms: O_9  and  C_10
REMARK    5  A    between atoms: S_11  and  C_12
REMARK    6  A    between atoms: C_20  and  C_22
REMARK                            x       y       z     vdW  Elec       q    Type
REMARK                         _______ _______ _______ _____ _____    ______ ____
ROOT
ATOM      1  C   UNL     1       0.874  12.752  20.525  0.00  0.00    +0.000 A 
ATOM      2  C   UNL     1       2.168  12.995  19.963  0.00  0.00    +0.000 A 
ATOM      3  C   UNL     1       2.760  14.266  20.020  0.00  0.00    +0.000 A 
ATOM      4  C   UNL     1       2.048  15.274  20.645  0.00  0.00    +0.000 A 
ATOM      5  C   UNL     1       0.836  15.052  21.266  0.00  0.00    +0.000 A 
ATOM      6  C   UNL     1       0.227  13.809  21.236  0.00  0.00    +0.000 A 
ATOM      7  S   UNL     1       2.554  16.915  20.407  0.00  0.00    +0.000 S 
ATOM      8  C   UNL     1       1.685  17.642  19.000  0.00  0.00    +0.000 C 
ATOM      9  O   UNL     1       2.573  17.749  21.695  0.00  0.00    +0.000 OA
ATOM     10  N   UNL     1       4.086  16.832  20.026  0.00  0.00    +0.000 NA
ATOM     11  C   UNL     1       4.665  15.678  19.423  0.00  0.00    +0.000 C 
ATOM     12  N   UNL     1       5.983  15.807  18.849  0.00  0.00    +0.000 N 
ATOM     13  C   UNL     1       6.731  17.066  18.898  0.00  0.00    +0.000 C 
ATOM     14  C   UNL     1       8.045  16.836  19.668  0.00  0.00    +0.000 C 
ATOM     15  N   UNL     1       8.757  15.687  19.103  0.00  0.00    +0.000 N 
ATOM     16  C   UNL     1      10.096  15.784  18.755  0.00  0.00    +0.000 C 
ATOM     17  O   UNL     1      10.694  16.820  18.984  0.00  0.00    +0.000 OA
ATOM     18  C   UNL     1       7.971  14.449  19.038  0.00  0.00    +0.000 C 
ATOM     19  C   UNL     1       6.685  14.688  18.245  0.00  0.00    +0.000 C 
ATOM     20  N   UNL     1       4.037  14.528  19.412  0.00  0.00    +0.000 NA
ENDROOT
BRANCH  16  21
ATOM     21  C   UNL     1      10.883  14.659  18.155  0.00  0.00    +0.000 A 
ATOM     22  C   UNL     1      11.261  14.577  16.825  0.00  0.00    +0.000 A 
ATOM     23  C   UNL     1      11.977  13.402  16.704  0.00  0.00    +0.000 A 
ATOM     24  C   UNL     1      11.973  12.825  17.952  0.00  0.00    +0.000 A 
ATOM     25  O   UNL     1      11.320  13.595  18.790  0.00  0.00    +0.000 OA
ENDBRANCH  16  21
BRANCH   1  27
ATOM     26  C   UNL     1       0.273  10.536  21.303  0.00  0.00    +0.000 C 
ATOM     27  O   UNL     1       0.267  11.550  20.350  0.00  0.00    +0.000 OA
ENDBRANCH   1  27
BRANCH   6  28
ATOM     28  O   UNL     1      -0.987  13.792  21.855  0.00  0.00    +0.000 OA
ATOM     29  C   UNL     1      -1.397  13.523  23.140  0.00  0.00    +0.000 C 
ENDBRANCH   6  28
TORSDOF 3
ENDMDL
MODEL 9
REMARK VINA RESULT:      -5.5      9.540     12.235
REMARK  Name = 
REMARK  6 active torsions:
REMARK  status: ('A' for Active; 'I' for Inactive)
REMARK    1  A    between atoms: C_1  and  O_2
REMARK    2  A    between atoms: O_2  and  C_3
REMARK    3  A    between atoms: C_8  and  O_9
REMARK    4  A    between atoms: O_9  and  C_10
REMARK    5  A    between atoms: S_11  and  C_12
REMARK    6  A    between atoms: C_20  and  C_22
REMARK                            x       y       z     vdW  Elec       q    Type
REMARK                         _______ _______ _______ _____ _____    ______ ____
ROOT
ATOM      1  C   UNL     1      11.111  13.575  19.297  0.00  0.00    +0.000 A 
ATOM      2  C   UNL     1      10.533  13.232  20.560  0.00  0.00    +0.000 A 
ATOM      3  C   UNL     1       9.696  14.127  21.245  0.00  0.00    +0.000 A 
ATOM      4  C   UNL     1       9.448  15.351  20.650  0.00  0.00    +0.000 A 
ATOM      5  C   UNL     1       9.924  15.677  19.397  0.00  0.00    +0.000 A 
ATOM      6  C   UNL     1      10.746  14.816  18.690  0.00  0.00    +0.000 A 
ATOM      7  S   UNL     1       8.750  16.613  21.612  0.00  0.00    +0.000 S 
ATOM      8  C   UNL     1      10.048  17.625  22.356  0.00  0.00    +0.000 C 
ATOM      9  O   UNL     1       7.618  17.374  20.907  0.00  0.00    +0.000 OA
ATOM     10  N   UNL     1       7.992  15.876  22.787  0.00  0.00    +0.000 NA
ATOM     11  C   UNL     1       8.362  14.578  23.244  0.00  0.00    +0.000 C 
ATOM     12  N   UNL     1       7.811  14.122  24.498  0.00  0.00    +0.000 N 
ATOM     13  C   UNL     1       6.878  14.939  25.278  0.00  0.00    +0.000 C 
ATOM     14  C   UNL     1       5.547  14.177  25.421  0.00  0.00    +0.000 C 
ATOM     15  N   UNL     1       5.800  12.826  25.931  0.00  0.00    +0.000 N 
ATOM     16  C   UNL     1       5.095  12.336  27.019  0.00  0.00    +0.000 C 
ATOM     17  O   UNL     1       4.214  13.018  27.511  0.00  0.00    +0.000 OA
ATOM     18  C   UNL     1       6.764  12.045  25.145  0.00  0.00    +0.000 C 
ATOM     19  C   UNL     1       8.088  12.803  25.040  0.00  0.00    +0.000 C 
ATOM     20  N   UNL     1       9.154  13.809  22.539  0.00  0.00    +0.000 NA
ENDROOT
BRANCH  16  21
ATOM     21  C   UNL     1       5.314  10.975  27.607  0.00  0.00    +0.000 A 
ATOM     22  C   UNL     1       4.472   9.890  27.430  0.00  0.00    +0.000 A 
ATOM     23  C   UNL     1       5.048   8.844  28.122  0.00  0.00    +0.000 A 
ATOM     24  C   UNL     1       6.187   9.352  28.700  0.00  0.00    +0.000 A 
ATOM     25  O   UNL     1       6.318  10.616  28.374  0.00  0.00    +0.000 OA
ENDBRANCH  16  21
BRANCH   1  27
ATOM     26  C   UNL     1      11.697  11.488  18.210  0.00  0.00    +0.000 C 
ATOM     27  O   UNL     1      12.015  12.747  18.711  0.00  0.00    +0.000 OA
ENDBRANCH   1  27
BRANCH   6  28
ATOM     28  O   UNL     1      11.161  15.329  17.497  0.00  0.00    +0.000 OA
ATOM     29  C   UNL     1      10.736  16.372  16.710  0.00  0.00    +0.000 C 
ENDBRANCH   6  28
TORSDOF 3
ENDMDL
