MODEL 1
REMARK VINA RESULT:      -8.1      0.000      0.000
REMARK  Name = 
REMARK  6 active torsions:
REMARK  status: ('A' for Active; 'I' for Inactive)
REMARK    1  A    between atoms: C_2  and  C_4
REMARK    2  A    between atoms: C_7  and  C_8
REMARK    3  A    between atoms: C_11  and  C_12
REMARK    4  A    between atoms: C_12  and  C_13
REMARK    5  A    between atoms: C_18  and  C_19
REMARK    6  A    between atoms: C_19  and  O_21
REMARK                            x       y       z     vdW  Elec       q    Type
REMARK                         _______ _______ _______ _____ _____    ______ ____
ROOT
ATOM      1  C   UNL     1       2.523   6.116  19.016  0.00  0.00    +0.000 C 
ATOM      2  N   UNL     1       1.988   5.294  18.162  0.00  0.00    +0.000 NA
ATOM      3  O   UNL     1       2.507   4.016  18.429  0.00  0.00    +0.000 OA
ATOM      4  C   UNL     1       3.258   4.068  19.650  0.00  0.00    +0.000 C 
ATOM      5  C   UNL     1       3.526   5.529  19.931  0.00  0.00    +0.000 C 
ENDROOT
BRANCH   1   9
ATOM      6  C   UNL     1       1.215  10.160  18.890  0.00  0.00    +0.000 A 
ATOM      7  C   UNL     1       1.051   9.413  20.066  0.00  0.00    +0.000 A 
ATOM      8  C   UNL     1       1.534   8.106  20.157  0.00  0.00    +0.000 A 
ATOM      9  C   UNL     1       2.141   7.531  19.043  0.00  0.00    +0.000 A 
ATOM     10  C   UNL     1       2.288   8.263  17.861  0.00  0.00    +0.000 A 
ATOM     11  C   UNL     1       1.799   9.562  17.772  0.00  0.00    +0.000 A 
BRANCH   6  13
ATOM     12  N   UNL     1       1.514  12.426  18.096  0.00  0.00    +0.000 NA
ATOM     13  C   UNL     1       0.879  11.617  18.885  0.00  0.00    +0.000 C 
ATOM     14  N   UNL     1      -0.136  12.118  19.640  0.00  0.00    +0.000 N 
ATOM     15  H   UNL     1       1.108  13.363  18.223  0.00  0.00    +0.000 HD
ATOM     16  H   UNL     1      -0.184  13.111  19.803  0.00  0.00    +0.000 HD
ATOM     17  H   UNL     1      -0.470  11.583  20.436  0.00  0.00    +0.000 HD
ENDBRANCH   6  13
ENDBRANCH   1   9
BRANCH   4  18
ATOM     18  C   UNL     1       4.520   3.276  19.398  0.00  0.00    +0.000 C 
BRANCH  18  19
ATOM     19  C   UNL     1       5.693   4.163  19.068  0.00  0.00    +0.000 C 
ATOM     20  O   UNL     1       6.299   4.783  19.942  0.00  0.00    +0.000 OA
ATOM     21  N   UNL     1       6.049   4.217  17.732  0.00  0.00    +0.000 N 
ATOM     22  C   UNL     1       7.264   4.921  17.345  0.00  0.00    +0.000 C 
ATOM     23  C   UNL     1       6.922   6.119  16.463  0.00  0.00    +0.000 C 
ATOM     24  C   UNL     1       6.058   5.709  15.261  0.00  0.00    +0.000 C 
ATOM     25  C   UNL     1       4.821   4.935  15.744  0.00  0.00    +0.000 C 
ATOM     26  C   UNL     1       5.206   3.750  16.630  0.00  0.00    +0.000 C 
BRANCH  24  27
ATOM     27  C   UNL     1       6.837   4.894  14.236  0.00  0.00    +0.000 C 
ATOM     28  O   UNL     1       6.449   3.850  13.736  0.00  0.00    +0.000 OA
BRANCH  27  29
ATOM     29  O   UNL     1       8.015   5.451  13.885  0.00  0.00    +0.000 OA
ATOM     30  H   UNL     1       8.406   6.039  14.558  0.00  0.00    +0.000 HD
ENDBRANCH  27  29
ENDBRANCH  24  27
ENDBRANCH  18  19
ENDBRANCH   4  18
TORSDOF 6
ENDMDL
MODEL 2
REMARK VINA RESULT:      -7.9      0.423      1.039
REMARK  Name = 
REMARK  6 active torsions:
REMARK  status: ('A' for Active; 'I' for Inactive)
REMARK    1  A    between atoms: C_2  and  C_4
REMARK    2  A    between atoms: C_7  and  C_8
REMARK    3  A    between atoms: C_11  and  C_12
REMARK    4  A    between atoms: C_12  and  C_13
REMARK    5  A    between atoms: C_18  and  C_19
REMARK    6  A    between atoms: C_19  and  O_21
REMARK                            x       y       z     vdW  Elec       q    Type
REMARK                         _______ _______ _______ _____ _____    ______ ____
ROOT
ATOM      1  C   UNL     1       2.490   6.024  18.934  0.00  0.00    +0.000 C 
ATOM      2  N   UNL     1       1.975   5.116  18.158  0.00  0.00    +0.000 NA
ATOM      3  O   UNL     1       2.568   3.889  18.498  0.00  0.00    +0.000 OA
ATOM      4  C   UNL     1       3.351   4.067  19.688  0.00  0.00    +0.000 C 
ATOM      5  C   UNL     1       3.548   5.556  19.855  0.00  0.00    +0.000 C 
ENDROOT
BRANCH   1   9
ATOM      6  C   UNL     1       1.365  10.124  18.968  0.00  0.00    +0.000 A 
ATOM      7  C   UNL     1       1.926   9.567  17.809  0.00  0.00    +0.000 A 
ATOM      8  C   UNL     1       2.239   8.208  17.747  0.00  0.00    +0.000 A 
ATOM      9  C   UNL     1       2.035   7.416  18.874  0.00  0.00    +0.000 A 
ATOM     10  C   UNL     1       1.496   7.970  20.040  0.00  0.00    +0.000 A 
ATOM     11  C   UNL     1       1.192   9.325  20.100  0.00  0.00    +0.000 A 
BRANCH   6  13
ATOM     12  N   UNL     1       1.486  12.467  19.561  0.00  0.00    +0.000 NA
ATOM     13  C   UNL     1       0.847  11.527  18.941  0.00  0.00    +0.000 C 
ATOM     14  N   UNL     1      -0.253  11.866  18.214  0.00  0.00    +0.000 N 
ATOM     15  H   UNL     1       0.986  13.349  19.386  0.00  0.00    +0.000 HD
ATOM     16  H   UNL     1      -0.715  12.742  18.402  0.00  0.00    +0.000 HD
ATOM     17  H   UNL     1      -0.907  11.140  17.939  0.00  0.00    +0.000 HD
ENDBRANCH   6  13
ENDBRANCH   1   9
BRANCH   4  18
ATOM     18  C   UNL     1       4.644   3.324  19.451  0.00  0.00    +0.000 C 
BRANCH  18  19
ATOM     19  C   UNL     1       5.773   4.250  19.074  0.00  0.00    +0.000 C 
ATOM     20  O   UNL     1       6.364   4.922  19.919  0.00  0.00    +0.000 OA
ATOM     21  N   UNL     1       6.105   4.277  17.731  0.00  0.00    +0.000 N 
ATOM     22  C   UNL     1       7.282   5.020  17.302  0.00  0.00    +0.000 C 
ATOM     23  C   UNL     1       6.874   6.175  16.390  0.00  0.00    +0.000 C 
ATOM     24  C   UNL     1       6.011   5.691  15.216  0.00  0.00    +0.000 C 
ATOM     25  C   UNL     1       4.816   4.879  15.743  0.00  0.00    +0.000 C 
ATOM     26  C   UNL     1       5.266   3.740  16.658  0.00  0.00    +0.000 C 
BRANCH  24  27
ATOM     27  C   UNL     1       6.808   4.878  14.204  0.00  0.00    +0.000 C 
ATOM     28  O   UNL     1       6.428   3.837  13.691  0.00  0.00    +0.000 OA
BRANCH  27  29
ATOM     29  O   UNL     1       7.994   5.433  13.879  0.00  0.00    +0.000 OA
ATOM     30  H   UNL     1       7.935   6.223  13.310  0.00  0.00    +0.000 HD
ENDBRANCH  27  29
ENDBRANCH  24  27
ENDBRANCH  18  19
ENDBRANCH   4  18
TORSDOF 6
ENDMDL
MODEL 3
REMARK VINA RESULT:      -7.7      3.692      8.283
REMARK  Name = 
REMARK  6 active torsions:
REMARK  status: ('A' for Active; 'I' for Inactive)
REMARK    1  A    between atoms: C_2  and  C_4
REMARK    2  A    between atoms: C_7  and  C_8
REMARK    3  A    between atoms: C_11  and  C_12
REMARK    4  A    between atoms: C_12  and  C_13
REMARK    5  A    between atoms: C_18  and  C_19
REMARK    6  A    between atoms: C_19  and  O_21
REMARK                            x       y       z     vdW  Elec       q    Type
REMARK                         _______ _______ _______ _____ _____    ______ ____
ROOT
ATOM      1  C   UNL     1       3.126   6.207  18.964  0.00  0.00    +0.000 C 
ATOM      2  N   UNL     1       2.867   5.364  19.920  0.00  0.00    +0.000 NA
ATOM      3  O   UNL     1       1.938   5.975  20.778  0.00  0.00    +0.000 OA
ATOM      4  C   UNL     1       1.481   7.193  20.173  0.00  0.00    +0.000 C 
ATOM      5  C   UNL     1       2.466   7.526  19.076  0.00  0.00    +0.000 C 
ENDROOT
BRANCH   1   9
ATOM      6  C   UNL     1       5.491   5.047  15.627  0.00  0.00    +0.000 A 
ATOM      7  C   UNL     1       5.336   6.408  15.929  0.00  0.00    +0.000 A 
ATOM      8  C   UNL     1       4.623   6.814  17.058  0.00  0.00    +0.000 A 
ATOM      9  C   UNL     1       4.021   5.848  17.861  0.00  0.00    +0.000 A 
ATOM     10  C   UNL     1       4.154   4.490  17.553  0.00  0.00    +0.000 A 
ATOM     11  C   UNL     1       4.859   4.090  16.423  0.00  0.00    +0.000 A 
BRANCH   6  13
ATOM     12  N   UNL     1       7.501   5.319  14.308  0.00  0.00    +0.000 NA
ATOM     13  C   UNL     1       6.428   4.631  14.538  0.00  0.00    +0.000 C 
ATOM     14  N   UNL     1       6.224   3.494  13.818  0.00  0.00    +0.000 N 
ATOM     15  H   UNL     1       8.016   4.845  13.553  0.00  0.00    +0.000 HD
ATOM     16  H   UNL     1       6.720   3.367  12.950  0.00  0.00    +0.000 HD
ATOM     17  H   UNL     1       5.295   3.086  13.791  0.00  0.00    +0.000 HD
ENDBRANCH   6  13
ENDBRANCH   1   9
BRANCH   4  18
ATOM     18  C   UNL     1       1.458   8.224  21.277  0.00  0.00    +0.000 C 
BRANCH  18  19
ATOM     19  C   UNL     1       0.137   8.946  21.356  0.00  0.00    +0.000 C 
ATOM     20  O   UNL     1      -0.854   8.423  21.868  0.00  0.00    +0.000 OA
ATOM     21  N   UNL     1       0.120  10.228  20.836  0.00  0.00    +0.000 N 
ATOM     22  C   UNL     1      -1.067  11.054  21.012  0.00  0.00    +0.000 C 
ATOM     23  C   UNL     1      -1.696  11.370  19.657  0.00  0.00    +0.000 C 
ATOM     24  C   UNL     1      -0.675  11.986  18.689  0.00  0.00    +0.000 C 
ATOM     25  C   UNL     1       0.565  11.083  18.590  0.00  0.00    +0.000 C 
ATOM     26  C   UNL     1       1.159  10.784  19.966  0.00  0.00    +0.000 C 
BRANCH  24  27
ATOM     27  C   UNL     1      -0.278  13.403  19.087  0.00  0.00    +0.000 C 
ATOM     28  O   UNL     1       0.861  13.842  19.057  0.00  0.00    +0.000 OA
BRANCH  27  29
ATOM     29  O   UNL     1      -1.323  14.174  19.455  0.00  0.00    +0.000 OA
ATOM     30  H   UNL     1      -1.102  14.895  20.073  0.00  0.00    +0.000 HD
ENDBRANCH  27  29
ENDBRANCH  24  27
ENDBRANCH  18  19
ENDBRANCH   4  18
TORSDOF 6
ENDMDL
MODEL 4
REMARK VINA RESULT:      -7.7      3.720      8.304
REMARK  Name = 
REMARK  6 active torsions:
REMARK  status: ('A' for Active; 'I' for Inactive)
REMARK    1  A    between atoms: C_2  and  C_4
REMARK    2  A    between atoms: C_7  and  C_8
REMARK    3  A    between atoms: C_11  and  C_12
REMARK    4  A    between atoms: C_12  and  C_13
REMARK    5  A    between atoms: C_18  and  C_19
REMARK    6  A    between atoms: C_19  and  O_21
REMARK                            x       y       z     vdW  Elec       q    Type
REMARK                         _______ _______ _______ _____ _____    ______ ____
ROOT
ATOM      1  C   UNL     1       3.007   6.216  18.931  0.00  0.00    +0.000 C 
ATOM      2  N   UNL     1       2.756   5.424  19.931  0.00  0.00    +0.000 NA
ATOM      3  O   UNL     1       1.890   6.107  20.801  0.00  0.00    +0.000 OA
ATOM      4  C   UNL     1       1.456   7.318  20.165  0.00  0.00    +0.000 C 
ATOM      5  C   UNL     1       2.407   7.565  19.015  0.00  0.00    +0.000 C 
ENDROOT
BRANCH   1   9
ATOM      6  C   UNL     1       5.656   4.996  15.837  0.00  0.00    +0.000 A 
ATOM      7  C   UNL     1       4.785   4.060  16.415  0.00  0.00    +0.000 A 
ATOM      8  C   UNL     1       3.857   4.449  17.383  0.00  0.00    +0.000 A 
ATOM      9  C   UNL     1       3.839   5.776  17.808  0.00  0.00    +0.000 A 
ATOM     10  C   UNL     1       4.720   6.708  17.251  0.00  0.00    +0.000 A 
ATOM     11  C   UNL     1       5.647   6.316  16.293  0.00  0.00    +0.000 A 
BRANCH   6  13
ATOM     12  N   UNL     1       6.194   3.543  13.979  0.00  0.00    +0.000 NA
ATOM     13  C   UNL     1       6.492   4.603  14.661  0.00  0.00    +0.000 C 
ATOM     14  N   UNL     1       7.529   5.374  14.234  0.00  0.00    +0.000 N 
ATOM     15  H   UNL     1       6.865   3.477  13.202  0.00  0.00    +0.000 HD
ATOM     16  H   UNL     1       8.212   4.976  13.609  0.00  0.00    +0.000 HD
ATOM     17  H   UNL     1       7.942   6.046  14.874  0.00  0.00    +0.000 HD
ENDBRANCH   6  13
ENDBRANCH   1   9
BRANCH   4  18
ATOM     18  C   UNL     1       1.522   8.392  21.224  0.00  0.00    +0.000 C 
BRANCH  18  19
ATOM     19  C   UNL     1       0.214   9.127  21.373  0.00  0.00    +0.000 C 
ATOM     20  O   UNL     1      -0.732   8.641  21.991  0.00  0.00    +0.000 OA
ATOM     21  N   UNL     1       0.159  10.380  20.788  0.00  0.00    +0.000 N 
ATOM     22  C   UNL     1      -1.006  11.223  21.016  0.00  0.00    +0.000 C 
ATOM     23  C   UNL     1      -1.744  11.472  19.702  0.00  0.00    +0.000 C 
ATOM     24  C   UNL     1      -0.805  12.028  18.622  0.00  0.00    +0.000 C 
ATOM     25  C   UNL     1       0.420  11.110  18.469  0.00  0.00    +0.000 C 
ATOM     26  C   UNL     1       1.124  10.880  19.807  0.00  0.00    +0.000 C 
BRANCH  24  27
ATOM     27  C   UNL     1      -0.371  13.460  18.908  0.00  0.00    +0.000 C 
ATOM     28  O   UNL     1       0.731  13.919  18.654  0.00  0.00    +0.000 OA
BRANCH  27  29
ATOM     29  O   UNL     1      -1.344  14.220  19.453  0.00  0.00    +0.000 OA
ATOM     30  H   UNL     1      -1.136  14.583  20.334  0.00  0.00    +0.000 HD
ENDBRANCH  27  29
ENDBRANCH  24  27
ENDBRANCH  18  19
ENDBRANCH   4  18
TORSDOF 6
ENDMDL
MODEL 5
REMARK VINA RESULT:      -7.7      4.627      6.678
REMARK  Name = 
REMARK  6 active torsions:
REMARK  status: ('A' for Active; 'I' for Inactive)
REMARK    1  A    between atoms: C_2  and  C_4
REMARK    2  A    between atoms: C_7  and  C_8
REMARK    3  A    between atoms: C_11  and  C_12
REMARK    4  A    between atoms: C_12  and  C_13
REMARK    5  A    between atoms: C_18  and  C_19
REMARK    6  A    between atoms: C_19  and  O_21
REMARK                            x       y       z     vdW  Elec       q    Type
REMARK                         _______ _______ _______ _____ _____    ______ ____
ROOT
ATOM      1  C   UNL     1       7.894   8.519  17.942  0.00  0.00    +0.000 C 
ATOM      2  N   UNL     1       6.981   8.516  17.016  0.00  0.00    +0.000 NA
ATOM      3  O   UNL     1       6.446   7.218  16.959  0.00  0.00    +0.000 OA
ATOM      4  C   UNL     1       6.957   6.459  18.065  0.00  0.00    +0.000 C 
ATOM      5  C   UNL     1       8.154   7.217  18.592  0.00  0.00    +0.000 C 
ENDROOT
BRANCH   1   9
ATOM      6  C   UNL     1       9.703  12.218  19.003  0.00  0.00    +0.000 A 
ATOM      7  C   UNL     1       9.893  11.093  19.819  0.00  0.00    +0.000 A 
ATOM      8  C   UNL     1       9.369   9.851  19.457  0.00  0.00    +0.000 A 
ATOM      9  C   UNL     1       8.607   9.750  18.295  0.00  0.00    +0.000 A 
ATOM     10  C   UNL     1       8.397  10.873  17.489  0.00  0.00    +0.000 A 
ATOM     11  C   UNL     1       8.914  12.110  17.856  0.00  0.00    +0.000 A 
BRANCH   6  13
ATOM     12  N   UNL     1      11.056  13.625  20.432  0.00  0.00    +0.000 NA
ATOM     13  C   UNL     1      10.444  13.483  19.299  0.00  0.00    +0.000 C 
ATOM     14  N   UNL     1      10.559  14.475  18.375  0.00  0.00    +0.000 N 
ATOM     15  H   UNL     1      11.526  14.541  20.417  0.00  0.00    +0.000 HD
ATOM     16  H   UNL     1      10.845  15.395  18.675  0.00  0.00    +0.000 HD
ATOM     17  H   UNL     1       9.899  14.512  17.605  0.00  0.00    +0.000 HD
ENDBRANCH   6  13
ENDBRANCH   1   9
BRANCH   4  18
ATOM     18  C   UNL     1       7.318   5.102  17.507  0.00  0.00    +0.000 C 
BRANCH  18  19
ATOM     19  C   UNL     1       6.146   4.431  16.836  0.00  0.00    +0.000 C 
ATOM     20  O   UNL     1       6.043   4.387  15.611  0.00  0.00    +0.000 OA
ATOM     21  N   UNL     1       5.215   3.859  17.685  0.00  0.00    +0.000 N 
ATOM     22  C   UNL     1       4.138   3.055  17.124  0.00  0.00    +0.000 C 
ATOM     23  C   UNL     1       2.788   3.711  17.405  0.00  0.00    +0.000 C 
ATOM     24  C   UNL     1       2.601   4.002  18.902  0.00  0.00    +0.000 C 
ATOM     25  C   UNL     1       3.795   4.813  19.432  0.00  0.00    +0.000 C 
ATOM     26  C   UNL     1       5.126   4.127  19.122  0.00  0.00    +0.000 C 
BRANCH  24  27
ATOM     27  C   UNL     1       2.407   2.732  19.722  0.00  0.00    +0.000 C 
ATOM     28  O   UNL     1       2.679   2.620  20.907  0.00  0.00    +0.000 OA
BRANCH  27  29
ATOM     29  O   UNL     1       1.861   1.716  19.023  0.00  0.00    +0.000 OA
ATOM     30  H   UNL     1       2.109   0.825  19.334  0.00  0.00    +0.000 HD
ENDBRANCH  27  29
ENDBRANCH  24  27
ENDBRANCH  18  19
ENDBRANCH   4  18
TORSDOF 6
ENDMDL
MODEL 6
REMARK VINA RESULT:      -7.6      4.938      7.081
REMARK  Name = 
REMARK  6 active torsions:
REMARK  status: ('A' for Active; 'I' for Inactive)
REMARK    1  A    between atoms: C_2  and  C_4
REMARK    2  A    between atoms: C_7  and  C_8
REMARK    3  A    between atoms: C_11  and  C_12
REMARK    4  A    between atoms: C_12  and  C_13
REMARK    5  A    between atoms: C_18  and  C_19
REMARK    6  A    between atoms: C_19  and  O_21
REMARK                            x       y       z     vdW  Elec       q    Type
REMARK                         _______ _______ _______ _____ _____    ______ ____
ROOT
ATOM      1  C   UNL     1       8.311   8.737  18.329  0.00  0.00    +0.000 C 
ATOM      2  N   UNL     1       8.529   7.627  18.971  0.00  0.00    +0.000 NA
ATOM      3  O   UNL     1       7.708   6.642  18.399  0.00  0.00    +0.000 OA
ATOM      4  C   UNL     1       7.104   7.176  17.212  0.00  0.00    +0.000 C 
ATOM      5  C   UNL     1       7.267   8.678  17.283  0.00  0.00    +0.000 C 
ENDROOT
BRANCH   1   9
ATOM      6  C   UNL     1      10.247  12.419  19.208  0.00  0.00    +0.000 A 
ATOM      7  C   UNL     1      10.153  11.430  20.199  0.00  0.00    +0.000 A 
ATOM      8  C   UNL     1       9.585  10.186  19.916  0.00  0.00    +0.000 A 
ATOM      9  C   UNL     1       9.064   9.954  18.645  0.00  0.00    +0.000 A 
ATOM     10  C   UNL     1       9.135  10.944  17.660  0.00  0.00    +0.000 A 
ATOM     11  C   UNL     1       9.696  12.183  17.947  0.00  0.00    +0.000 A 
BRANCH   6  13
ATOM     12  N   UNL     1      12.331  13.638  19.354  0.00  0.00    +0.000 NA
ATOM     13  C   UNL     1      11.041  13.658  19.471  0.00  0.00    +0.000 C 
ATOM     14  N   UNL     1      10.439  14.843  19.763  0.00  0.00    +0.000 N 
ATOM     15  H   UNL     1      12.673  14.591  19.541  0.00  0.00    +0.000 HD
ATOM     16  H   UNL     1      10.987  15.587  20.167  0.00  0.00    +0.000 HD
ATOM     17  H   UNL     1       9.484  14.840  20.109  0.00  0.00    +0.000 HD
ENDBRANCH   6  13
ENDBRANCH   1   9
BRANCH   4  18
ATOM     18  C   UNL     1       5.659   6.739  17.246  0.00  0.00    +0.000 C 
BRANCH  18  19
ATOM     19  C   UNL     1       5.517   5.238  17.244  0.00  0.00    +0.000 C 
ATOM     20  O   UNL     1       6.258   4.522  16.571  0.00  0.00    +0.000 OA
ATOM     21  N   UNL     1       4.518   4.727  18.054  0.00  0.00    +0.000 N 
ATOM     22  C   UNL     1       4.413   3.286  18.234  0.00  0.00    +0.000 C 
ATOM     23  C   UNL     1       3.090   2.778  17.666  0.00  0.00    +0.000 C 
ATOM     24  C   UNL     1       1.893   3.543  18.249  0.00  0.00    +0.000 C 
ATOM     25  C   UNL     1       2.096   5.056  18.062  0.00  0.00    +0.000 C 
ATOM     26  C   UNL     1       3.434   5.522  18.635  0.00  0.00    +0.000 C 
BRANCH  24  27
ATOM     27  C   UNL     1       1.647   3.211  19.715  0.00  0.00    +0.000 C 
ATOM     28  O   UNL     1       2.397   2.548  20.415  0.00  0.00    +0.000 OA
BRANCH  27  29
ATOM     29  O   UNL     1       0.515   3.754  20.210  0.00  0.00    +0.000 OA
ATOM     30  H   UNL     1      -0.068   4.163  19.544  0.00  0.00    +0.000 HD
ENDBRANCH  27  29
ENDBRANCH  24  27
ENDBRANCH  18  19
ENDBRANCH   4  18
TORSDOF 6
ENDMDL
MODEL 7
REMARK VINA RESULT:      -7.5      3.178      5.130
REMARK  Name = 
REMARK  6 active torsions:
REMARK  status: ('A' for Active; 'I' for Inactive)
REMARK    1  A    between atoms: C_2  and  C_4
REMARK    2  A    between atoms: C_7  and  C_8
REMARK    3  A    between atoms: C_11  and  C_12
REMARK    4  A    between atoms: C_12  and  C_13
REMARK    5  A    between atoms: C_18  and  C_19
REMARK    6  A    between atoms: C_19  and  O_21
REMARK                            x       y       z     vdW  Elec       q    Type
REMARK                         _______ _______ _______ _____ _____    ______ ____
ROOT
ATOM      1  C   UNL     1       0.547   9.433  20.434  0.00  0.00    +0.000 C 
ATOM      2  N   UNL     1       1.069   8.426  21.070  0.00  0.00    +0.000 NA
ATOM      3  O   UNL     1       1.995   7.818  20.206  0.00  0.00    +0.000 OA
ATOM      4  C   UNL     1       2.160   8.649  19.047  0.00  0.00    +0.000 C 
ATOM      5  C   UNL     1       0.992   9.609  19.035  0.00  0.00    +0.000 C 
ENDROOT
BRANCH   1   9
ATOM      6  C   UNL     1      -2.042  12.102  22.496  0.00  0.00    +0.000 A 
ATOM      7  C   UNL     1      -1.819  12.274  21.121  0.00  0.00    +0.000 A 
ATOM      8  C   UNL     1      -1.030  11.371  20.406  0.00  0.00    +0.000 A 
ATOM      9  C   UNL     1      -0.421  10.319  21.087  0.00  0.00    +0.000 A 
ATOM     10  C   UNL     1      -0.622  10.156  22.461  0.00  0.00    +0.000 A 
ATOM     11  C   UNL     1      -1.403  11.061  23.171  0.00  0.00    +0.000 A 
BRANCH   6  13
ATOM     12  N   UNL     1      -3.654  12.511  24.253  0.00  0.00    +0.000 NA
ATOM     13  C   UNL     1      -3.053  12.954  23.194  0.00  0.00    +0.000 C 
ATOM     14  N   UNL     1      -3.314  14.227  22.790  0.00  0.00    +0.000 N 
ATOM     15  H   UNL     1      -4.273  13.260  24.593  0.00  0.00    +0.000 HD
ATOM     16  H   UNL     1      -4.152  14.684  23.115  0.00  0.00    +0.000 HD
ATOM     17  H   UNL     1      -3.067  14.507  21.846  0.00  0.00    +0.000 HD
ENDBRANCH   6  13
ENDBRANCH   1   9
BRANCH   4  18
ATOM     18  C   UNL     1       2.167   7.714  17.861  0.00  0.00    +0.000 C 
BRANCH  18  19
ATOM     19  C   UNL     1       3.430   6.894  17.788  0.00  0.00    +0.000 C 
ATOM     20  O   UNL     1       4.492   7.379  17.398  0.00  0.00    +0.000 OA
ATOM     21  N   UNL     1       3.317   5.579  18.203  0.00  0.00    +0.000 N 
ATOM     22  C   UNL     1       4.517   4.761  18.315  0.00  0.00    +0.000 C 
ATOM     23  C   UNL     1       4.461   3.601  17.323  0.00  0.00    +0.000 C 
ATOM     24  C   UNL     1       3.166   2.790  17.475  0.00  0.00    +0.000 C 
ATOM     25  C   UNL     1       1.948   3.724  17.390  0.00  0.00    +0.000 C 
ATOM     26  C   UNL     1       2.047   4.875  18.391  0.00  0.00    +0.000 C 
BRANCH  24  27
ATOM     27  C   UNL     1       3.134   1.980  18.765  0.00  0.00    +0.000 C 
ATOM     28  O   UNL     1       4.095   1.793  19.495  0.00  0.00    +0.000 OA
BRANCH  27  29
ATOM     29  O   UNL     1       1.911   1.497  19.069  0.00  0.00    +0.000 OA
ATOM     30  H   UNL     1       1.169   1.962  18.641  0.00  0.00    +0.000 HD
ENDBRANCH  27  29
ENDBRANCH  24  27
ENDBRANCH  18  19
ENDBRANCH   4  18
TORSDOF 6
ENDMDL
MODEL 8
REMARK VINA RESULT:      -7.5      0.581      1.039
REMARK  Name = 
REMARK  6 active torsions:
REMARK  status: ('A' for Active; 'I' for Inactive)
REMARK    1  A    between atoms: C_2  and  C_4
REMARK    2  A    between atoms: C_7  and  C_8
REMARK    3  A    between atoms: C_11  and  C_12
REMARK    4  A    between atoms: C_12  and  C_13
REMARK    5  A    between atoms: C_18  and  C_19
REMARK    6  A    between atoms: C_19  and  O_21
REMARK                            x       y       z     vdW  Elec       q    Type
REMARK                         _______ _______ _______ _____ _____    ______ ____
ROOT
ATOM      1  C   UNL     1       2.463   6.135  19.200  0.00  0.00    +0.000 C 
ATOM      2  N   UNL     1       2.119   5.536  18.098  0.00  0.00    +0.000 NA
ATOM      3  O   UNL     1       2.630   4.229  18.154  0.00  0.00    +0.000 OA
ATOM      4  C   UNL     1       3.150   3.992  19.470  0.00  0.00    +0.000 C 
ATOM      5  C   UNL     1       3.309   5.347  20.122  0.00  0.00    +0.000 C 
ENDROOT
BRANCH   1   9
ATOM      6  C   UNL     1       0.983  10.071  19.830  0.00  0.00    +0.000 A 
ATOM      7  C   UNL     1       0.998   9.156  20.894  0.00  0.00    +0.000 A 
ATOM      8  C   UNL     1       1.543   7.881  20.732  0.00  0.00    +0.000 A 
ATOM      9  C   UNL     1       2.029   7.506  19.482  0.00  0.00    +0.000 A 
ATOM     10  C   UNL     1       1.997   8.406  18.412  0.00  0.00    +0.000 A 
ATOM     11  C   UNL     1       1.447   9.673  18.575  0.00  0.00    +0.000 A 
BRANCH   6  13
ATOM     12  N   UNL     1       0.468  11.927  21.294  0.00  0.00    +0.000 NA
ATOM     13  C   UNL     1       0.589  11.492  20.080  0.00  0.00    +0.000 C 
ATOM     14  N   UNL     1       0.422  12.375  19.058  0.00  0.00    +0.000 N 
ATOM     15  H   UNL     1       0.230  12.927  21.241  0.00  0.00    +0.000 HD
ATOM     16  H   UNL     1      -0.070  13.238  19.231  0.00  0.00    +0.000 HD
ATOM     17  H   UNL     1       0.256  12.022  18.121  0.00  0.00    +0.000 HD
ENDBRANCH   6  13
ENDBRANCH   1   9
BRANCH   4  18
ATOM     18  C   UNL     1       4.465   3.274  19.276  0.00  0.00    +0.000 C 
BRANCH  18  19
ATOM     19  C   UNL     1       5.596   4.226  18.979  0.00  0.00    +0.000 C 
ATOM     20  O   UNL     1       6.109   4.913  19.862  0.00  0.00    +0.000 OA
ATOM     21  N   UNL     1       6.023   4.260  17.663  0.00  0.00    +0.000 N 
ATOM     22  C   UNL     1       7.210   5.031  17.318  0.00  0.00    +0.000 C 
ATOM     23  C   UNL     1       6.842   6.175  16.376  0.00  0.00    +0.000 C 
ATOM     24  C   UNL     1       6.077   5.669  15.144  0.00  0.00    +0.000 C 
ATOM     25  C   UNL     1       4.867   4.829  15.586  0.00  0.00    +0.000 C 
ATOM     26  C   UNL     1       5.277   3.702  16.534  0.00  0.00    +0.000 C 
BRANCH  24  27
ATOM     27  C   UNL     1       6.964   4.875  14.194  0.00  0.00    +0.000 C 
ATOM     28  O   UNL     1       8.044   5.253  13.767  0.00  0.00    +0.000 OA
BRANCH  27  29
ATOM     29  O   UNL     1       6.464   3.662  13.875  0.00  0.00    +0.000 OA
ATOM     30  H   UNL     1       6.901   3.225  13.121  0.00  0.00    +0.000 HD
ENDBRANCH  27  29
ENDBRANCH  24  27
ENDBRANCH  18  19
ENDBRANCH   4  18
TORSDOF 6
ENDMDL
MODEL 9
REMARK VINA RESULT:      -7.5      2.830      4.210
REMARK  Name = 
REMARK  6 active torsions:
REMARK  status: ('A' for Active; 'I' for Inactive)
REMARK    1  A    between atoms: C_2  and  C_4
REMARK    2  A    between atoms: C_7  and  C_8
REMARK    3  A    between atoms: C_11  and  C_12
REMARK    4  A    between atoms: C_12  and  C_13
REMARK    5  A    between atoms: C_18  and  C_19
REMARK    6  A    between atoms: C_19  and  O_21
REMARK                            x       y       z     vdW  Elec       q    Type
REMARK                         _______ _______ _______ _____ _____    ______ ____
ROOT
ATOM      1  C   UNL     1       0.707  10.028  19.496  0.00  0.00    +0.000 C 
ATOM      2  N   UNL     1       0.870  10.561  18.320  0.00  0.00    +0.000 NA
ATOM      3  O   UNL     1       1.616   9.655  17.548  0.00  0.00    +0.000 OA
ATOM      4  C   UNL     1       1.736   8.421  18.271  0.00  0.00    +0.000 C 
ATOM      5  C   UNL     1       1.375   8.726  19.708  0.00  0.00    +0.000 C 
ENDROOT
BRANCH   1   9
ATOM      6  C   UNL     1      -1.841  11.877  22.353  0.00  0.00    +0.000 A 
ATOM      7  C   UNL     1      -0.954  10.870  22.762  0.00  0.00    +0.000 A 
ATOM      8  C   UNL     1      -0.058  10.296  21.859  0.00  0.00    +0.000 A 
ATOM      9  C   UNL     1      -0.088  10.701  20.526  0.00  0.00    +0.000 A 
ATOM     10  C   UNL     1      -0.985  11.689  20.108  0.00  0.00    +0.000 A 
ATOM     11  C   UNL     1      -1.880  12.254  21.009  0.00  0.00    +0.000 A 
BRANCH   6  13
ATOM     12  N   UNL     1      -3.681  12.067  23.912  0.00  0.00    +0.000 NA
ATOM     13  C   UNL     1      -2.641  12.620  23.375  0.00  0.00    +0.000 C 
ATOM     14  N   UNL     1      -2.264  13.851  23.818  0.00  0.00    +0.000 N 
ATOM     15  H   UNL     1      -4.059  12.726  24.606  0.00  0.00    +0.000 HD
ATOM     16  H   UNL     1      -2.933  14.421  24.311  0.00  0.00    +0.000 HD
ATOM     17  H   UNL     1      -1.630  14.407  23.253  0.00  0.00    +0.000 HD
ENDBRANCH   6  13
ENDBRANCH   1   9
BRANCH   4  18
ATOM     18  C   UNL     1       3.171   7.979  18.106  0.00  0.00    +0.000 C 
BRANCH  18  19
ATOM     19  C   UNL     1       3.300   6.480  18.018  0.00  0.00    +0.000 C 
ATOM     20  O   UNL     1       2.605   5.732  18.704  0.00  0.00    +0.000 OA
ATOM     21  N   UNL     1       4.230   6.009  17.108  0.00  0.00    +0.000 N 
ATOM     22  C   UNL     1       4.309   4.579  16.843  0.00  0.00    +0.000 C 
ATOM     23  C   UNL     1       5.666   4.035  17.281  0.00  0.00    +0.000 C 
ATOM     24  C   UNL     1       6.823   4.825  16.651  0.00  0.00    +0.000 C 
ATOM     25  C   UNL     1       6.648   6.327  16.934  0.00  0.00    +0.000 C 
ATOM     26  C   UNL     1       5.274   6.829  16.490  0.00  0.00    +0.000 C 
BRANCH  24  27
ATOM     27  C   UNL     1       6.954   4.572  15.154  0.00  0.00    +0.000 C 
ATOM     28  O   UNL     1       6.382   3.682  14.545  0.00  0.00    +0.000 OA
BRANCH  27  29
ATOM     29  O   UNL     1       7.752   5.460  14.524  0.00  0.00    +0.000 OA
ATOM     30  H   UNL     1       8.700   5.233  14.529  0.00  0.00    +0.000 HD
ENDBRANCH  27  29
ENDBRANCH  24  27
ENDBRANCH  18  19
ENDBRANCH   4  18
TORSDOF 6
ENDMDL
