MODEL 1
REMARK VINA RESULT:      -8.3      0.000      0.000
REMARK  Name = 
REMARK  8 active torsions:
REMARK  status: ('A' for Active; 'I' for Inactive)
REMARK    1  A    between atoms: C_1  and  O_2
REMARK    2  A    between atoms: O_2  and  C_3
REMARK    3  A    between atoms: C_6  and  C_7
REMARK    4  A    between atoms: C_7  and  C_9
REMARK    5  A    between atoms: C_10  and  C_11
REMARK    6  A    between atoms: N_12  and  C_13
REMARK    7  A    between atoms: C_13  and  C_14
REMARK    8  A    between atoms: N_19  and  C_20
REMARK                            x       y       z     vdW  Elec       q    Type
REMARK                         _______ _______ _______ _____ _____    ______ ____
ROOT
ATOM      1  C   UNL     1       5.246   5.741  16.973  0.00  0.00    +0.000 A 
ATOM      2  C   UNL     1       5.480   4.967  18.130  0.00  0.00    +0.000 A 
ATOM      3  C   UNL     1       6.405   5.528  19.218  0.00  0.00    +0.000 C 
ATOM      4  N   UNL     1       4.192   4.520  18.390  0.00  0.00    +0.000 N 
ATOM      5  C   UNL     1       3.583   5.749  18.576  0.00  0.00    +0.000 A 
ATOM      6  C   UNL     1       2.575   6.085  19.465  0.00  0.00    +0.000 A 
ATOM      7  C   UNL     1       2.080   7.369  19.357  0.00  0.00    +0.000 A 
ATOM      8  C   UNL     1       2.561   8.216  18.354  0.00  0.00    +0.000 A 
ATOM      9  C   UNL     1       3.567   7.824  17.422  0.00  0.00    +0.000 A 
ATOM     10  C   UNL     1       4.160   6.558  17.547  0.00  0.00    +0.000 A 
ENDROOT
BRANCH   1  11
ATOM     11  C   UNL     1       6.275   5.574  15.932  0.00  0.00    +0.000 C 
ATOM     12  O   UNL     1       7.369   6.113  16.162  0.00  0.00    +0.000 OA
BRANCH  11  16
ATOM     13  C   UNL     1       5.972   3.329  12.238  0.00  0.00    +0.000 A 
ATOM     14  C   UNL     1       4.953   3.350  13.179  0.00  0.00    +0.000 A 
ATOM     15  C   UNL     1       5.099   4.093  14.348  0.00  0.00    +0.000 A 
ATOM     16  C   UNL     1       6.273   4.840  14.635  0.00  0.00    +0.000 A 
ATOM     17  C   UNL     1       7.287   4.819  13.688  0.00  0.00    +0.000 A 
ATOM     18  C   UNL     1       7.137   4.067  12.490  0.00  0.00    +0.000 A 
BRANCH  13  20
ATOM     19  C   UNL     1       6.291   1.213  11.188  0.00  0.00    +0.000 C 
ATOM     20  O   UNL     1       5.726   2.515  11.169  0.00  0.00    +0.000 OA
ENDBRANCH  13  20
ENDBRANCH  11  16
ENDBRANCH   1  11
BRANCH   4  21
ATOM     21  C   UNL     1       3.361   3.555  17.631  0.00  0.00    +0.000 C 
BRANCH  21  22
ATOM     22  C   UNL     1       2.983   2.190  18.237  0.00  0.00    +0.000 C 
ATOM     23  C   UNL     1       4.173   1.566  18.990  0.00  0.00    +0.000 C 
ATOM     24  C   UNL     1       4.478   2.277  20.308  0.00  0.00    +0.000 C 
ATOM     25  C   UNL     1       3.234   2.310  21.183  0.00  0.00    +0.000 C 
ATOM     26  C   UNL     1       2.056   2.926  20.437  0.00  0.00    +0.000 C 
ATOM     27  N   UNL     1       1.805   2.230  19.169  0.00  0.00    +0.000 NA
ATOM     28  C   UNL     1       0.572   2.727  18.557  0.00  0.00    +0.000 C 
ENDBRANCH  21  22
ENDBRANCH   4  21
TORSDOF 5
ENDMDL
MODEL 2
REMARK VINA RESULT:      -8.2      5.311      9.068
REMARK  Name = 
REMARK  8 active torsions:
REMARK  status: ('A' for Active; 'I' for Inactive)
REMARK    1  A    between atoms: C_1  and  O_2
REMARK    2  A    between atoms: O_2  and  C_3
REMARK    3  A    between atoms: C_6  and  C_7
REMARK    4  A    between atoms: C_7  and  C_9
REMARK    5  A    between atoms: C_10  and  C_11
REMARK    6  A    between atoms: N_12  and  C_13
REMARK    7  A    between atoms: C_13  and  C_14
REMARK    8  A    between atoms: N_19  and  C_20
REMARK                            x       y       z     vdW  Elec       q    Type
REMARK                         _______ _______ _______ _____ _____    ______ ____
ROOT
ATOM      1  C   UNL     1       0.902   9.789  19.474  0.00  0.00    +0.000 A 
ATOM      2  C   UNL     1      -0.012  10.644  18.821  0.00  0.00    +0.000 A 
ATOM      3  C   UNL     1      -1.370  10.078  18.386  0.00  0.00    +0.000 C 
ATOM      4  N   UNL     1       0.116  11.783  19.604  0.00  0.00    +0.000 N 
ATOM      5  C   UNL     1      -0.289  11.246  20.813  0.00  0.00    +0.000 A 
ATOM      6  C   UNL     1      -1.026  11.848  21.819  0.00  0.00    +0.000 A 
ATOM      7  C   UNL     1      -1.193  11.106  22.971  0.00  0.00    +0.000 A 
ATOM      8  C   UNL     1      -0.581   9.854  23.084  0.00  0.00    +0.000 A 
ATOM      9  C   UNL     1       0.214   9.281  22.048  0.00  0.00    +0.000 A 
ATOM     10  C   UNL     1       0.340   9.960  20.827  0.00  0.00    +0.000 A 
ENDROOT
BRANCH   1  11
ATOM     11  C   UNL     1       1.731   8.994  18.551  0.00  0.00    +0.000 C 
ATOM     12  O   UNL     1       1.908   9.484  17.425  0.00  0.00    +0.000 OA
BRANCH  11  16
ATOM     13  C   UNL     1       3.954   5.279  18.750  0.00  0.00    +0.000 A 
ATOM     14  C   UNL     1       4.108   6.180  17.707  0.00  0.00    +0.000 A 
ATOM     15  C   UNL     1       3.373   7.363  17.694  0.00  0.00    +0.000 A 
ATOM     16  C   UNL     1       2.444   7.695  18.716  0.00  0.00    +0.000 A 
ATOM     17  C   UNL     1       2.297   6.791  19.760  0.00  0.00    +0.000 A 
ATOM     18  C   UNL     1       3.052   5.586  19.779  0.00  0.00    +0.000 A 
BRANCH  13  20
ATOM     19  C   UNL     1       4.295   3.004  19.374  0.00  0.00    +0.000 C 
ATOM     20  O   UNL     1       4.687   4.134  18.610  0.00  0.00    +0.000 OA
ENDBRANCH  13  20
ENDBRANCH  11  16
ENDBRANCH   1  11
BRANCH   4  21
ATOM     21  C   UNL     1       1.261  12.717  19.723  0.00  0.00    +0.000 C 
BRANCH  21  22
ATOM     22  C   UNL     1       1.308  14.018  18.899  0.00  0.00    +0.000 C 
ATOM     23  C   UNL     1      -0.088  14.660  18.792  0.00  0.00    +0.000 C 
ATOM     24  C   UNL     1      -0.552  15.288  20.106  0.00  0.00    +0.000 C 
ATOM     25  C   UNL     1       0.478  16.296  20.596  0.00  0.00    +0.000 C 
ATOM     26  C   UNL     1       1.859  15.659  20.700  0.00  0.00    +0.000 C 
ATOM     27  N   UNL     1       2.264  15.051  19.426  0.00  0.00    +0.000 NA
ATOM     28  C   UNL     1       3.653  14.602  19.502  0.00  0.00    +0.000 C 
ENDBRANCH  21  22
ENDBRANCH   4  21
TORSDOF 5
ENDMDL
MODEL 3
REMARK VINA RESULT:      -8.1      5.197      8.865
REMARK  Name = 
REMARK  8 active torsions:
REMARK  status: ('A' for Active; 'I' for Inactive)
REMARK    1  A    between atoms: C_1  and  O_2
REMARK    2  A    between atoms: O_2  and  C_3
REMARK    3  A    between atoms: C_6  and  C_7
REMARK    4  A    between atoms: C_7  and  C_9
REMARK    5  A    between atoms: C_10  and  C_11
REMARK    6  A    between atoms: N_12  and  C_13
REMARK    7  A    between atoms: C_13  and  C_14
REMARK    8  A    between atoms: N_19  and  C_20
REMARK                            x       y       z     vdW  Elec       q    Type
REMARK                         _______ _______ _______ _____ _____    ______ ____
ROOT
ATOM      1  C   UNL     1       1.008   9.720  19.479  0.00  0.00    +0.000 A 
ATOM      2  C   UNL     1       0.160  10.653  18.844  0.00  0.00    +0.000 A 
ATOM      3  C   UNL     1      -1.220  10.188  18.364  0.00  0.00    +0.000 C 
ATOM      4  N   UNL     1       0.342  11.752  19.673  0.00  0.00    +0.000 N 
ATOM      5  C   UNL     1      -0.119  11.195  20.853  0.00  0.00    +0.000 A 
ATOM      6  C   UNL     1      -0.838  11.802  21.869  0.00  0.00    +0.000 A 
ATOM      7  C   UNL     1      -1.072  11.029  22.988  0.00  0.00    +0.000 A 
ATOM      8  C   UNL     1      -0.539   9.739  23.063  0.00  0.00    +0.000 A 
ATOM      9  C   UNL     1       0.240   9.158  22.019  0.00  0.00    +0.000 A 
ATOM     10  C   UNL     1       0.431   9.874  20.828  0.00  0.00    +0.000 A 
ENDROOT
BRANCH   1  11
ATOM     11  C   UNL     1       1.806   8.911  18.540  0.00  0.00    +0.000 C 
ATOM     12  O   UNL     1       1.988   9.408  17.418  0.00  0.00    +0.000 OA
BRANCH  11  16
ATOM     13  C   UNL     1       3.927   5.135  18.684  0.00  0.00    +0.000 A 
ATOM     14  C   UNL     1       4.119   6.054  17.664  0.00  0.00    +0.000 A 
ATOM     15  C   UNL     1       3.416   7.257  17.668  0.00  0.00    +0.000 A 
ATOM     16  C   UNL     1       2.482   7.591  18.685  0.00  0.00    +0.000 A 
ATOM     17  C   UNL     1       2.297   6.668  19.706  0.00  0.00    +0.000 A 
ATOM     18  C   UNL     1       3.020   5.443  19.708  0.00  0.00    +0.000 A 
BRANCH  13  20
ATOM     19  C   UNL     1       4.469   2.967  19.514  0.00  0.00    +0.000 C 
ATOM     20  O   UNL     1       4.631   3.974  18.528  0.00  0.00    +0.000 OA
ENDBRANCH  13  20
ENDBRANCH  11  16
ENDBRANCH   1  11
BRANCH   4  21
ATOM     21  C   UNL     1       1.538  12.609  19.848  0.00  0.00    +0.000 C 
BRANCH  21  22
ATOM     22  C   UNL     1       1.427  13.993  20.517  0.00  0.00    +0.000 C 
ATOM     23  C   UNL     1       2.713  14.342  21.290  0.00  0.00    +0.000 C 
ATOM     24  C   UNL     1       3.886  14.674  20.368  0.00  0.00    +0.000 C 
ATOM     25  C   UNL     1       3.499  15.795  19.414  0.00  0.00    +0.000 C 
ATOM     26  C   UNL     1       2.225  15.449  18.651  0.00  0.00    +0.000 C 
ATOM     27  N   UNL     1       1.127  15.118  19.568  0.00  0.00    +0.000 NA
ATOM     28  C   UNL     1      -0.121  14.958  18.823  0.00  0.00    +0.000 C 
ENDBRANCH  21  22
ENDBRANCH   4  21
TORSDOF 5
ENDMDL
MODEL 4
REMARK VINA RESULT:      -8.1      5.244      8.919
REMARK  Name = 
REMARK  8 active torsions:
REMARK  status: ('A' for Active; 'I' for Inactive)
REMARK    1  A    between atoms: C_1  and  O_2
REMARK    2  A    between atoms: O_2  and  C_3
REMARK    3  A    between atoms: C_6  and  C_7
REMARK    4  A    between atoms: C_7  and  C_9
REMARK    5  A    between atoms: C_10  and  C_11
REMARK    6  A    between atoms: N_12  and  C_13
REMARK    7  A    between atoms: C_13  and  C_14
REMARK    8  A    between atoms: N_19  and  C_20
REMARK                            x       y       z     vdW  Elec       q    Type
REMARK                         _______ _______ _______ _____ _____    ______ ____
ROOT
ATOM      1  C   UNL     1       1.030   9.758  19.436  0.00  0.00    +0.000 A 
ATOM      2  C   UNL     1       0.117  10.684  18.886  0.00  0.00    +0.000 A 
ATOM      3  C   UNL     1      -1.249  10.177  18.406  0.00  0.00    +0.000 C 
ATOM      4  N   UNL     1       0.262  11.732  19.785  0.00  0.00    +0.000 N 
ATOM      5  C   UNL     1      -0.138  11.072  20.934  0.00  0.00    +0.000 A 
ATOM      6  C   UNL     1      -0.862  11.569  22.005  0.00  0.00    +0.000 A 
ATOM      7  C   UNL     1      -1.024  10.710  23.073  0.00  0.00    +0.000 A 
ATOM      8  C   UNL     1      -0.422   9.449  23.046  0.00  0.00    +0.000 A 
ATOM      9  C   UNL     1       0.359   8.983  21.948  0.00  0.00    +0.000 A 
ATOM     10  C   UNL     1       0.481   9.788  20.804  0.00  0.00    +0.000 A 
ENDROOT
BRANCH   1  11
ATOM     11  C   UNL     1       1.845   9.059  18.426  0.00  0.00    +0.000 C 
ATOM     12  O   UNL     1       1.962   9.636  17.333  0.00  0.00    +0.000 OA
BRANCH  11  16
ATOM     13  C   UNL     1       3.884   5.256  18.821  0.00  0.00    +0.000 A 
ATOM     14  C   UNL     1       2.921   5.678  19.725  0.00  0.00    +0.000 A 
ATOM     15  C   UNL     1       2.291   6.908  19.549  0.00  0.00    +0.000 A 
ATOM     16  C   UNL     1       2.601   7.776  18.467  0.00  0.00    +0.000 A 
ATOM     17  C   UNL     1       3.563   7.346  17.563  0.00  0.00    +0.000 A 
ATOM     18  C   UNL     1       4.202   6.087  17.737  0.00  0.00    +0.000 A 
BRANCH  13  20
ATOM     19  C   UNL     1       3.680   3.118  19.855  0.00  0.00    +0.000 C 
ATOM     20  O   UNL     1       4.465   4.062  19.143  0.00  0.00    +0.000 OA
ENDBRANCH  13  20
ENDBRANCH  11  16
ENDBRANCH   1  11
BRANCH   4  21
ATOM     21  C   UNL     1       1.415  12.640  19.992  0.00  0.00    +0.000 C 
BRANCH  21  22
ATOM     22  C   UNL     1       1.299  14.147  19.690  0.00  0.00    +0.000 C 
ATOM     23  C   UNL     1       0.181  14.797  20.526  0.00  0.00    +0.000 C 
ATOM     24  C   UNL     1       0.549  14.931  22.003  0.00  0.00    +0.000 C 
ATOM     25  C   UNL     1       1.857  15.695  22.149  0.00  0.00    +0.000 C 
ATOM     26  C   UNL     1       2.962  15.051  21.320  0.00  0.00    +0.000 C 
ATOM     27  N   UNL     1       2.567  14.922  19.911  0.00  0.00    +0.000 NA
ATOM     28  C   UNL     1       3.700  14.462  19.110  0.00  0.00    +0.000 C 
ENDBRANCH  21  22
ENDBRANCH   4  21
TORSDOF 5
ENDMDL
MODEL 5
REMARK VINA RESULT:      -7.6      7.389     11.896
REMARK  Name = 
REMARK  8 active torsions:
REMARK  status: ('A' for Active; 'I' for Inactive)
REMARK    1  A    between atoms: C_1  and  O_2
REMARK    2  A    between atoms: O_2  and  C_3
REMARK    3  A    between atoms: C_6  and  C_7
REMARK    4  A    between atoms: C_7  and  C_9
REMARK    5  A    between atoms: C_10  and  C_11
REMARK    6  A    between atoms: N_12  and  C_13
REMARK    7  A    between atoms: C_13  and  C_14
REMARK    8  A    between atoms: N_19  and  C_20
REMARK                            x       y       z     vdW  Elec       q    Type
REMARK                         _______ _______ _______ _____ _____    ______ ____
ROOT
ATOM      1  C   UNL     1       0.160  10.446  21.245  0.00  0.00    +0.000 A 
ATOM      2  C   UNL     1       0.454  11.520  20.378  0.00  0.00    +0.000 A 
ATOM      3  C   UNL     1       1.800  12.240  20.525  0.00  0.00    +0.000 C 
ATOM      4  N   UNL     1       0.006  10.993  19.174  0.00  0.00    +0.000 N 
ATOM      5  C   UNL     1       0.845   9.893  19.109  0.00  0.00    +0.000 A 
ATOM      6  C   UNL     1       1.435   9.326  17.993  0.00  0.00    +0.000 A 
ATOM      7  C   UNL     1       2.142   8.161  18.211  0.00  0.00    +0.000 A 
ATOM      8  C   UNL     1       2.175   7.599  19.491  0.00  0.00    +0.000 A 
ATOM      9  C   UNL     1       1.515   8.182  20.613  0.00  0.00    +0.000 A 
ATOM     10  C   UNL     1       0.857   9.411  20.457  0.00  0.00    +0.000 A 
ENDROOT
BRANCH   1  11
ATOM     11  C   UNL     1      -0.410  10.867  22.537  0.00  0.00    +0.000 C 
ATOM     12  O   UNL     1      -0.115  10.161  23.514  0.00  0.00    +0.000 OA
BRANCH  11  16
ATOM     13  C   UNL     1      -3.147  14.014  23.713  0.00  0.00    +0.000 A 
ATOM     14  C   UNL     1      -3.497  12.673  23.756  0.00  0.00    +0.000 A 
ATOM     15  C   UNL     1      -2.577  11.700  23.372  0.00  0.00    +0.000 A 
ATOM     16  C   UNL     1      -1.270  12.023  22.919  0.00  0.00    +0.000 A 
ATOM     17  C   UNL     1      -0.924  13.367  22.882  0.00  0.00    +0.000 A 
ATOM     18  C   UNL     1      -1.860  14.362  23.281  0.00  0.00    +0.000 A 
BRANCH  13  20
ATOM     19  C   UNL     1      -5.404  14.711  23.392  0.00  0.00    +0.000 C 
ATOM     20  O   UNL     1      -4.160  14.865  24.057  0.00  0.00    +0.000 OA
ENDBRANCH  13  20
ENDBRANCH  11  16
ENDBRANCH   1  11
BRANCH   4  21
ATOM     21  C   UNL     1      -1.379  10.709  18.730  0.00  0.00    +0.000 C 
BRANCH  21  22
ATOM     22  C   UNL     1      -2.188  11.760  17.945  0.00  0.00    +0.000 C 
ATOM     23  C   UNL     1      -2.398  11.323  16.483  0.00  0.00    +0.000 C 
ATOM     24  C   UNL     1      -3.400  10.176  16.347  0.00  0.00    +0.000 C 
ATOM     25  C   UNL     1      -4.721  10.558  17.000  0.00  0.00    +0.000 C 
ATOM     26  C   UNL     1      -4.511  10.992  18.446  0.00  0.00    +0.000 C 
ATOM     27  N   UNL     1      -3.530  12.081  18.539  0.00  0.00    +0.000 NA
ATOM     28  C   UNL     1      -3.474  12.593  19.908  0.00  0.00    +0.000 C 
ENDBRANCH  21  22
ENDBRANCH   4  21
TORSDOF 5
ENDMDL
MODEL 6
REMARK VINA RESULT:      -7.5      3.167      7.243
REMARK  Name = 
REMARK  8 active torsions:
REMARK  status: ('A' for Active; 'I' for Inactive)
REMARK    1  A    between atoms: C_1  and  O_2
REMARK    2  A    between atoms: O_2  and  C_3
REMARK    3  A    between atoms: C_6  and  C_7
REMARK    4  A    between atoms: C_7  and  C_9
REMARK    5  A    between atoms: C_10  and  C_11
REMARK    6  A    between atoms: N_12  and  C_13
REMARK    7  A    between atoms: C_13  and  C_14
REMARK    8  A    between atoms: N_19  and  C_20
REMARK                            x       y       z     vdW  Elec       q    Type
REMARK                         _______ _______ _______ _____ _____    ______ ____
ROOT
ATOM      1  C   UNL     1       2.962   6.928  17.826  0.00  0.00    +0.000 A 
ATOM      2  C   UNL     1       2.187   5.762  17.999  0.00  0.00    +0.000 A 
ATOM      3  C   UNL     1       1.201   5.361  16.893  0.00  0.00    +0.000 C 
ATOM      4  N   UNL     1       3.152   4.899  18.500  0.00  0.00    +0.000 N 
ATOM      5  C   UNL     1       4.020   4.915  17.422  0.00  0.00    +0.000 A 
ATOM      6  C   UNL     1       4.784   3.877  16.916  0.00  0.00    +0.000 A 
ATOM      7  C   UNL     1       5.649   4.209  15.893  0.00  0.00    +0.000 A 
ATOM      8  C   UNL     1       5.751   5.539  15.475  0.00  0.00    +0.000 A 
ATOM      9  C   UNL     1       4.985   6.595  16.050  0.00  0.00    +0.000 A 
ATOM     10  C   UNL     1       4.031   6.293  17.033  0.00  0.00    +0.000 A 
ENDROOT
BRANCH   1  11
ATOM     11  C   UNL     1       2.273   8.163  18.241  0.00  0.00    +0.000 C 
ATOM     12  O   UNL     1       2.098   9.010  17.352  0.00  0.00    +0.000 OA
BRANCH  11  16
ATOM     13  C   UNL     1       0.530   9.702  21.899  0.00  0.00    +0.000 A 
ATOM     14  C   UNL     1       0.535  10.428  20.717  0.00  0.00    +0.000 A 
ATOM     15  C   UNL     1       1.103   9.884  19.567  0.00  0.00    +0.000 A 
ATOM     16  C   UNL     1       1.702   8.596  19.548  0.00  0.00    +0.000 A 
ATOM     17  C   UNL     1       1.690   7.872  20.733  0.00  0.00    +0.000 A 
ATOM     18  C   UNL     1       1.103   8.422  21.906  0.00  0.00    +0.000 A 
BRANCH  13  20
ATOM     19  C   UNL     1      -0.902  11.437  22.688  0.00  0.00    +0.000 C 
ATOM     20  O   UNL     1      -0.003  10.373  22.963  0.00  0.00    +0.000 OA
ENDBRANCH  13  20
ENDBRANCH  11  16
ENDBRANCH   1  11
BRANCH   4  21
ATOM     21  C   UNL     1       3.837   4.917  19.814  0.00  0.00    +0.000 C 
BRANCH  21  22
ATOM     22  C   UNL     1       3.417   3.950  20.938  0.00  0.00    +0.000 C 
ATOM     23  C   UNL     1       2.023   4.307  21.489  0.00  0.00    +0.000 C 
ATOM     24  C   UNL     1       0.897   3.963  20.515  0.00  0.00    +0.000 C 
ATOM     25  C   UNL     1       0.972   2.493  20.128  0.00  0.00    +0.000 C 
ATOM     26  C   UNL     1       2.352   2.140  19.586  0.00  0.00    +0.000 C 
ATOM     27  N   UNL     1       3.409   2.501  20.538  0.00  0.00    +0.000 NA
ATOM     28  C   UNL     1       4.701   2.000  20.071  0.00  0.00    +0.000 C 
ENDBRANCH  21  22
ENDBRANCH   4  21
TORSDOF 5
ENDMDL
MODEL 7
REMARK VINA RESULT:      -7.4      3.186      6.828
REMARK  Name = 
REMARK  8 active torsions:
REMARK  status: ('A' for Active; 'I' for Inactive)
REMARK    1  A    between atoms: C_1  and  O_2
REMARK    2  A    between atoms: O_2  and  C_3
REMARK    3  A    between atoms: C_6  and  C_7
REMARK    4  A    between atoms: C_7  and  C_9
REMARK    5  A    between atoms: C_10  and  C_11
REMARK    6  A    between atoms: N_12  and  C_13
REMARK    7  A    between atoms: C_13  and  C_14
REMARK    8  A    between atoms: N_19  and  C_20
REMARK                            x       y       z     vdW  Elec       q    Type
REMARK                         _______ _______ _______ _____ _____    ______ ____
ROOT
ATOM      1  C   UNL     1       2.918   6.445  18.556  0.00  0.00    +0.000 A 
ATOM      2  C   UNL     1       2.250   5.236  18.265  0.00  0.00    +0.000 A 
ATOM      3  C   UNL     1       1.200   5.224  17.147  0.00  0.00    +0.000 C 
ATOM      4  N   UNL     1       3.319   4.351  18.308  0.00  0.00    +0.000 N 
ATOM      5  C   UNL     1       4.081   4.902  17.292  0.00  0.00    +0.000 A 
ATOM      6  C   UNL     1       4.871   4.252  16.358  0.00  0.00    +0.000 A 
ATOM      7  C   UNL     1       5.611   5.065  15.525  0.00  0.00    +0.000 A 
ATOM      8  C   UNL     1       5.575   6.452  15.697  0.00  0.00    +0.000 A 
ATOM      9  C   UNL     1       4.788   7.090  16.701  0.00  0.00    +0.000 A 
ATOM     10  C   UNL     1       3.954   6.310  17.515  0.00  0.00    +0.000 A 
ENDROOT
BRANCH   1  11
ATOM     11  C   UNL     1       2.179   7.319  19.486  0.00  0.00    +0.000 C 
ATOM     12  O   UNL     1       1.951   6.843  20.609  0.00  0.00    +0.000 OA
BRANCH  11  16
ATOM     13  C   UNL     1       0.546  11.332  19.387  0.00  0.00    +0.000 A 
ATOM     14  C   UNL     1       0.371  10.487  20.472  0.00  0.00    +0.000 A 
ATOM     15  C   UNL     1       0.922   9.207  20.456  0.00  0.00    +0.000 A 
ATOM     16  C   UNL     1       1.664   8.711  19.351  0.00  0.00    +0.000 A 
ATOM     17  C   UNL     1       1.840   9.563  18.269  0.00  0.00    +0.000 A 
ATOM     18  C   UNL     1       1.284  10.872  18.287  0.00  0.00    +0.000 A 
BRANCH  13  20
ATOM     19  C   UNL     1      -0.464  13.204  18.312  0.00  0.00    +0.000 C 
ATOM     20  O   UNL     1      -0.096  12.532  19.506  0.00  0.00    +0.000 OA
ENDBRANCH  13  20
ENDBRANCH  11  16
ENDBRANCH   1  11
BRANCH   4  21
ATOM     21  C   UNL     1       4.118   3.899  19.471  0.00  0.00    +0.000 C 
BRANCH  21  22
ATOM     22  C   UNL     1       3.707   2.650  20.275  0.00  0.00    +0.000 C 
ATOM     23  C   UNL     1       2.773   3.021  21.442  0.00  0.00    +0.000 C 
ATOM     24  C   UNL     1       1.372   3.413  20.977  0.00  0.00    +0.000 C 
ATOM     25  C   UNL     1       0.772   2.299  20.129  0.00  0.00    +0.000 C 
ATOM     26  C   UNL     1       1.698   1.931  18.976  0.00  0.00    +0.000 C 
ATOM     27  N   UNL     1       3.040   1.579  19.459  0.00  0.00    +0.000 NA
ATOM     28  C   UNL     1       3.854   1.068  18.357  0.00  0.00    +0.000 C 
ENDBRANCH  21  22
ENDBRANCH   4  21
TORSDOF 5
ENDMDL
MODEL 8
REMARK VINA RESULT:      -7.3      5.330      9.049
REMARK  Name = 
REMARK  8 active torsions:
REMARK  status: ('A' for Active; 'I' for Inactive)
REMARK    1  A    between atoms: C_1  and  O_2
REMARK    2  A    between atoms: O_2  and  C_3
REMARK    3  A    between atoms: C_6  and  C_7
REMARK    4  A    between atoms: C_7  and  C_9
REMARK    5  A    between atoms: C_10  and  C_11
REMARK    6  A    between atoms: N_12  and  C_13
REMARK    7  A    between atoms: C_13  and  C_14
REMARK    8  A    between atoms: N_19  and  C_20
REMARK                            x       y       z     vdW  Elec       q    Type
REMARK                         _______ _______ _______ _____ _____    ______ ____
ROOT
ATOM      1  C   UNL     1       0.557  10.336  19.304  0.00  0.00    +0.000 A 
ATOM      2  C   UNL     1      -0.538  10.868  18.590  0.00  0.00    +0.000 A 
ATOM      3  C   UNL     1      -1.744   9.964  18.308  0.00  0.00    +0.000 C 
ATOM      4  N   UNL     1      -0.650  12.109  19.204  0.00  0.00    +0.000 N 
ATOM      5  C   UNL     1      -0.900  11.676  20.494  0.00  0.00    +0.000 A 
ATOM      6  C   UNL     1      -1.732  12.241  21.447  0.00  0.00    +0.000 A 
ATOM      7  C   UNL     1      -1.704  11.654  22.695  0.00  0.00    +0.000 A 
ATOM      8  C   UNL     1      -0.827  10.595  22.945  0.00  0.00    +0.000 A 
ATOM      9  C   UNL     1       0.053  10.066  21.956  0.00  0.00    +0.000 A 
ATOM     10  C   UNL     1      -0.000  10.573  20.649  0.00  0.00    +0.000 A 
ENDROOT
BRANCH   1  11
ATOM     11  C   UNL     1       1.523   9.616  18.455  0.00  0.00    +0.000 C 
ATOM     12  O   UNL     1       1.882  10.206  17.425  0.00  0.00    +0.000 OA
BRANCH  11  16
ATOM     13  C   UNL     1       3.327   5.744  19.188  0.00  0.00    +0.000 A 
ATOM     14  C   UNL     1       2.448   6.334  20.084  0.00  0.00    +0.000 A 
ATOM     15  C   UNL     1       1.891   7.578  19.797  0.00  0.00    +0.000 A 
ATOM     16  C   UNL     1       2.195   8.294  18.608  0.00  0.00    +0.000 A 
ATOM     17  C   UNL     1       3.072   7.697  17.713  0.00  0.00    +0.000 A 
ATOM     18  C   UNL     1       3.636   6.423  18.001  0.00  0.00    +0.000 A 
BRANCH  13  20
ATOM     19  C   UNL     1       4.355   3.666  18.636  0.00  0.00    +0.000 C 
ATOM     20  O   UNL     1       3.846   4.556  19.618  0.00  0.00    +0.000 OA
ENDBRANCH  13  20
ENDBRANCH  11  16
ENDBRANCH   1  11
BRANCH   4  21
ATOM     21  C   UNL     1       0.260  13.276  19.135  0.00  0.00    +0.000 C 
BRANCH  21  22
ATOM     22  C   UNL     1       1.642  13.242  19.816  0.00  0.00    +0.000 C 
ATOM     23  C   UNL     1       2.775  13.191  18.774  0.00  0.00    +0.000 C 
ATOM     24  C   UNL     1       2.962  14.518  18.039  0.00  0.00    +0.000 C 
ATOM     25  C   UNL     1       3.189  15.642  19.040  0.00  0.00    +0.000 C 
ATOM     26  C   UNL     1       2.069  15.689  20.072  0.00  0.00    +0.000 C 
ATOM     27  N   UNL     1       1.905  14.394  20.744  0.00  0.00    +0.000 NA
ATOM     28  C   UNL     1       0.947  14.513  21.842  0.00  0.00    +0.000 C 
ENDBRANCH  21  22
ENDBRANCH   4  21
TORSDOF 5
ENDMDL
MODEL 9
REMARK VINA RESULT:      -7.3      3.438      7.442
REMARK  Name = 
REMARK  8 active torsions:
REMARK  status: ('A' for Active; 'I' for Inactive)
REMARK    1  A    between atoms: C_1  and  O_2
REMARK    2  A    between atoms: O_2  and  C_3
REMARK    3  A    between atoms: C_6  and  C_7
REMARK    4  A    between atoms: C_7  and  C_9
REMARK    5  A    between atoms: C_10  and  C_11
REMARK    6  A    between atoms: N_12  and  C_13
REMARK    7  A    between atoms: C_13  and  C_14
REMARK    8  A    between atoms: N_19  and  C_20
REMARK                            x       y       z     vdW  Elec       q    Type
REMARK                         _______ _______ _______ _____ _____    ______ ____
ROOT
ATOM      1  C   UNL     1       2.235   6.884  18.425  0.00  0.00    +0.000 A 
ATOM      2  C   UNL     1       2.722   6.852  19.750  0.00  0.00    +0.000 A 
ATOM      3  C   UNL     1       1.716   6.880  20.907  0.00  0.00    +0.000 C 
ATOM      4  N   UNL     1       3.704   5.877  19.625  0.00  0.00    +0.000 N 
ATOM      5  C   UNL     1       2.896   4.824  19.233  0.00  0.00    +0.000 A 
ATOM      6  C   UNL     1       3.012   3.482  19.559  0.00  0.00    +0.000 A 
ATOM      7  C   UNL     1       2.124   2.632  18.933  0.00  0.00    +0.000 A 
ATOM      8  C   UNL     1       1.224   3.139  17.991  0.00  0.00    +0.000 A 
ATOM      9  C   UNL     1       1.162   4.519  17.640  0.00  0.00    +0.000 A 
ATOM     10  C   UNL     1       1.986   5.434  18.313  0.00  0.00    +0.000 A 
ENDROOT
BRANCH   1  11
ATOM     11  C   UNL     1       1.971   8.245  17.926  0.00  0.00    +0.000 C 
ATOM     12  O   UNL     1       2.712   8.638  17.012  0.00  0.00    +0.000 OA
BRANCH  11  16
ATOM     13  C   UNL     1      -1.207  11.075  18.748  0.00  0.00    +0.000 A 
ATOM     14  C   UNL     1      -1.309  10.114  17.753  0.00  0.00    +0.000 A 
ATOM     15  C   UNL     1      -0.260   9.224  17.533  0.00  0.00    +0.000 A 
ATOM     16  C   UNL     1       0.942   9.260  18.290  0.00  0.00    +0.000 A 
ATOM     17  C   UNL     1       1.036  10.221  19.287  0.00  0.00    +0.000 A 
ATOM     18  C   UNL     1      -0.036  11.126  19.518  0.00  0.00    +0.000 A 
BRANCH  13  20
ATOM     19  C   UNL     1      -3.448  11.562  18.098  0.00  0.00    +0.000 C 
ATOM     20  O   UNL     1      -2.278  11.921  18.817  0.00  0.00    +0.000 OA
ENDBRANCH  13  20
ENDBRANCH  11  16
ENDBRANCH   1  11
BRANCH   4  21
ATOM     21  C   UNL     1       4.997   5.934  18.904  0.00  0.00    +0.000 C 
BRANCH  21  22
ATOM     22  C   UNL     1       5.760   4.643  18.546  0.00  0.00    +0.000 C 
ATOM     23  C   UNL     1       5.169   3.977  17.289  0.00  0.00    +0.000 C 
ATOM     24  C   UNL     1       5.490   4.745  16.007  0.00  0.00    +0.000 C 
ATOM     25  C   UNL     1       6.995   4.930  15.873  0.00  0.00    +0.000 C 
ATOM     26  C   UNL     1       7.578   5.587  17.118  0.00  0.00    +0.000 C 
ATOM     27  N   UNL     1       7.234   4.834  18.331  0.00  0.00    +0.000 NA
ATOM     28  C   UNL     1       7.944   5.385  19.484  0.00  0.00    +0.000 C 
ENDBRANCH  21  22
ENDBRANCH   4  21
TORSDOF 5
ENDMDL
