MODEL 1
REMARK VINA RESULT:      -7.4      0.000      0.000
REMARK  Name = 
REMARK  5 active torsions:
REMARK  status: ('A' for Active; 'I' for Inactive)
REMARK    1  A    between atoms: C_2  and  C_3
REMARK    2  A    between atoms: C_3  and  N_4
REMARK    3  A    between atoms: N_4  and  C_5
REMARK    4  A    between atoms: N_10  and  C_11
REMARK    5  A    between atoms: C_17  and  N_18
REMARK                            x       y       z     vdW  Elec       q    Type
REMARK                         _______ _______ _______ _____ _____    ______ ____
ROOT
ATOM      1  O   UNL     1       7.004   5.200  19.843  0.00  0.00    +0.000 OA
ATOM      2  C   UNL     1       6.543   5.232  18.705  0.00  0.00    +0.000 C 
ATOM      3  N   UNL     1       5.119   5.281  18.441  0.00  0.00    +0.000 N 
ATOM      4  H   UNL     1       4.881   5.490  17.483  0.00  0.00    +0.000 HD
ENDROOT
BRANCH   3   5
ATOM      5  C   UNL     1       3.911   5.061  19.249  0.00  0.00    +0.000 A 
ATOM      6  C   UNL     1       3.116   6.147  19.651  0.00  0.00    +0.000 A 
ATOM      7  C   UNL     1       1.936   5.974  20.419  0.00  0.00    +0.000 A 
ATOM      8 CL   UNL     1       0.963   7.331  20.845  0.00  0.00    +0.000 Cl
ATOM      9  C   UNL     1       1.506   4.723  20.845  0.00  0.00    +0.000 A 
ATOM     10  C   UNL     1       2.256   3.622  20.495  0.00  0.00    +0.000 A 
ATOM     11  C   UNL     1       3.433   3.763  19.704  0.00  0.00    +0.000 A 
BRANCH  11  12
ATOM     12  N   UNL     1       4.074   2.457  19.454  0.00  0.00    +0.000 N 
ATOM     13  O   UNL     1       3.656   1.753  18.545  0.00  0.00    +0.000 OA
ATOM     14  O   UNL     1       5.018   2.104  20.181  0.00  0.00    +0.000 OA
ENDBRANCH  11  12
ENDBRANCH   3   5
BRANCH   2  15
ATOM     15  C   UNL     1       7.511   5.157  17.386  0.00  0.00    +0.000 C 
BRANCH  15  16
ATOM     16  N   UNL     1       7.142   5.535  15.991  0.00  0.00    +0.000 NA
ATOM     17  H   UNL     1       7.471   6.439  15.669  0.00  0.00    +0.000 HD
BRANCH  16  18
ATOM     18  C   UNL     1       6.974   4.526  14.951  0.00  0.00    +0.000 C 
ATOM     19  C   UNL     1       5.505   4.228  14.541  0.00  0.00    +0.000 C 
ATOM     20  C   UNL     1       5.602   3.658  13.123  0.00  0.00    +0.000 C 
ATOM     21  C   UNL     1       6.862   4.269  12.523  0.00  0.00    +0.000 C 
ATOM     22  C   UNL     1       7.574   5.013  13.646  0.00  0.00    +0.000 C 
ENDBRANCH  16  18
ENDBRANCH  15  16
ENDBRANCH   2  15
TORSDOF 5
ENDMDL
MODEL 2
REMARK VINA RESULT:      -7.4      0.830      1.410
REMARK  Name = 
REMARK  5 active torsions:
REMARK  status: ('A' for Active; 'I' for Inactive)
REMARK    1  A    between atoms: C_2  and  C_3
REMARK    2  A    between atoms: C_3  and  N_4
REMARK    3  A    between atoms: N_4  and  C_5
REMARK    4  A    between atoms: N_10  and  C_11
REMARK    5  A    between atoms: C_17  and  N_18
REMARK                            x       y       z     vdW  Elec       q    Type
REMARK                         _______ _______ _______ _____ _____    ______ ____
ROOT
ATOM      1  O   UNL     1       6.812   4.948  19.086  0.00  0.00    +0.000 OA
ATOM      2  C   UNL     1       6.280   4.819  17.986  0.00  0.00    +0.000 C 
ATOM      3  N   UNL     1       4.847   4.907  17.797  0.00  0.00    +0.000 N 
ATOM      4  H   UNL     1       4.557   4.969  16.832  0.00  0.00    +0.000 HD
ENDROOT
BRANCH   3   5
ATOM      5  C   UNL     1       3.684   4.896  18.697  0.00  0.00    +0.000 A 
ATOM      6  C   UNL     1       3.235   6.084  19.297  0.00  0.00    +0.000 A 
ATOM      7  C   UNL     1       2.109   6.114  20.159  0.00  0.00    +0.000 A 
ATOM      8 CL   UNL     1       1.564   7.604  20.832  0.00  0.00    +0.000 Cl
ATOM      9  C   UNL     1       1.395   4.968  20.486  0.00  0.00    +0.000 A 
ATOM     10  C   UNL     1       1.800   3.770  19.941  0.00  0.00    +0.000 A 
ATOM     11  C   UNL     1       2.913   3.712  19.052  0.00  0.00    +0.000 A 
BRANCH  11  12
ATOM     12  N   UNL     1       3.166   2.332  18.595  0.00  0.00    +0.000 N 
ATOM     13  O   UNL     1       3.976   1.643  19.201  0.00  0.00    +0.000 OA
ATOM     14  O   UNL     1       2.555   1.909  17.599  0.00  0.00    +0.000 OA
ENDBRANCH  11  12
ENDBRANCH   3   5
BRANCH   2  15
ATOM     15  C   UNL     1       7.156   4.470  16.646  0.00  0.00    +0.000 C 
BRANCH  15  16
ATOM     16  N   UNL     1       7.457   5.397  15.517  0.00  0.00    +0.000 NA
ATOM     17  H   UNL     1       8.375   5.830  15.524  0.00  0.00    +0.000 HD
BRANCH  16  18
ATOM     18  C   UNL     1       6.873   5.196  14.195  0.00  0.00    +0.000 C 
ATOM     19  C   UNL     1       7.889   5.103  13.023  0.00  0.00    +0.000 C 
ATOM     20  C   UNL     1       7.154   4.325  11.928  0.00  0.00    +0.000 C 
ATOM     21  C   UNL     1       6.157   3.434  12.659  0.00  0.00    +0.000 C 
ATOM     22  C   UNL     1       6.186   3.845  14.126  0.00  0.00    +0.000 C 
ENDBRANCH  16  18
ENDBRANCH  15  16
ENDBRANCH   2  15
TORSDOF 5
ENDMDL
MODEL 3
REMARK VINA RESULT:      -7.2      1.159      1.345
REMARK  Name = 
REMARK  5 active torsions:
REMARK  status: ('A' for Active; 'I' for Inactive)
REMARK    1  A    between atoms: C_2  and  C_3
REMARK    2  A    between atoms: C_3  and  N_4
REMARK    3  A    between atoms: N_4  and  C_5
REMARK    4  A    between atoms: N_10  and  C_11
REMARK    5  A    between atoms: C_17  and  N_18
REMARK                            x       y       z     vdW  Elec       q    Type
REMARK                         _______ _______ _______ _____ _____    ______ ____
ROOT
ATOM      1  O   UNL     1       4.689   6.583  16.822  0.00  0.00    +0.000 OA
ATOM      2  C   UNL     1       5.440   5.681  17.186  0.00  0.00    +0.000 C 
ATOM      3  N   UNL     1       5.058   4.703  18.184  0.00  0.00    +0.000 N 
ATOM      4  H   UNL     1       5.685   3.916  18.256  0.00  0.00    +0.000 HD
ENDROOT
BRANCH   3   5
ATOM      5  C   UNL     1       3.966   4.599  19.163  0.00  0.00    +0.000 A 
ATOM      6  C   UNL     1       3.237   5.738  19.541  0.00  0.00    +0.000 A 
ATOM      7  C   UNL     1       2.168   5.673  20.471  0.00  0.00    +0.000 A 
ATOM      8 CL   UNL     1       1.267   7.088  20.867  0.00  0.00    +0.000 Cl
ATOM      9  C   UNL     1       1.792   4.486  21.088  0.00  0.00    +0.000 A 
ATOM     10  C   UNL     1       2.484   3.338  20.768  0.00  0.00    +0.000 A 
ATOM     11  C   UNL     1       3.546   3.368  19.819  0.00  0.00    +0.000 A 
BRANCH  11  12
ATOM     12  N   UNL     1       4.142   2.030  19.635  0.00  0.00    +0.000 N 
ATOM     13  O   UNL     1       5.019   1.658  20.405  0.00  0.00    +0.000 OA
ATOM     14  O   UNL     1       3.743   1.320  18.697  0.00  0.00    +0.000 OA
ENDBRANCH  11  12
ENDBRANCH   3   5
BRANCH   2  15
ATOM     15  C   UNL     1       6.968   5.553  16.609  0.00  0.00    +0.000 C 
BRANCH  15  16
ATOM     16  N   UNL     1       7.394   5.691  15.186  0.00  0.00    +0.000 NA
ATOM     17  H   UNL     1       8.166   6.325  15.008  0.00  0.00    +0.000 HD
BRANCH  16  18
ATOM     18  C   UNL     1       7.269   4.581  14.247  0.00  0.00    +0.000 C 
ATOM     19  C   UNL     1       5.816   4.105  13.968  0.00  0.00    +0.000 C 
ATOM     20  C   UNL     1       5.884   3.424  12.598  0.00  0.00    +0.000 C 
ATOM     21  C   UNL     1       7.033   4.101  11.862  0.00  0.00    +0.000 C 
ATOM     22  C   UNL     1       7.732   5.008  12.867  0.00  0.00    +0.000 C 
ENDBRANCH  16  18
ENDBRANCH  15  16
ENDBRANCH   2  15
TORSDOF 5
ENDMDL
MODEL 4
REMARK VINA RESULT:      -7.1      2.905      6.217
REMARK  Name = 
REMARK  5 active torsions:
REMARK  status: ('A' for Active; 'I' for Inactive)
REMARK    1  A    between atoms: C_2  and  C_3
REMARK    2  A    between atoms: C_3  and  N_4
REMARK    3  A    between atoms: N_4  and  C_5
REMARK    4  A    between atoms: N_10  and  C_11
REMARK    5  A    between atoms: C_17  and  N_18
REMARK                            x       y       z     vdW  Elec       q    Type
REMARK                         _______ _______ _______ _____ _____    ______ ____
ROOT
ATOM      1  O   UNL     1       2.572   7.001  18.095  0.00  0.00    +0.000 OA
ATOM      2  C   UNL     1       3.033   6.319  19.007  0.00  0.00    +0.000 C 
ATOM      3  N   UNL     1       4.313   5.648  18.909  0.00  0.00    +0.000 N 
ATOM      4  H   UNL     1       4.658   5.279  19.783  0.00  0.00    +0.000 HD
ENDROOT
BRANCH   3   5
ATOM      5  C   UNL     1       5.237   5.341  17.807  0.00  0.00    +0.000 A 
ATOM      6  C   UNL     1       4.748   4.864  16.580  0.00  0.00    +0.000 A 
ATOM      7  C   UNL     1       5.607   4.571  15.490  0.00  0.00    +0.000 A 
ATOM      8 CL   UNL     1       4.958   4.036  13.985  0.00  0.00    +0.000 Cl
ATOM      9  C   UNL     1       6.987   4.710  15.574  0.00  0.00    +0.000 A 
ATOM     10  C   UNL     1       7.525   5.158  16.761  0.00  0.00    +0.000 A 
ATOM     11  C   UNL     1       6.685   5.484  17.865  0.00  0.00    +0.000 A 
BRANCH  11  12
ATOM     12  N   UNL     1       7.474   5.938  19.027  0.00  0.00    +0.000 N 
ATOM     13  O   UNL     1       7.295   5.405  20.114  0.00  0.00    +0.000 OA
ATOM     14  O   UNL     1       8.295   6.858  18.871  0.00  0.00    +0.000 OA
ENDBRANCH  11  12
ENDBRANCH   3   5
BRANCH   2  15
ATOM     15  C   UNL     1       2.197   6.062  20.392  0.00  0.00    +0.000 C 
BRANCH  15  16
ATOM     16  N   UNL     1       2.273   4.853  21.264  0.00  0.00    +0.000 NA
ATOM     17  H   UNL     1       2.154   5.009  22.259  0.00  0.00    +0.000 HD
BRANCH  16  18
ATOM     18  C   UNL     1       1.847   3.544  20.782  0.00  0.00    +0.000 C 
ATOM     19  C   UNL     1       0.784   3.564  19.648  0.00  0.00    +0.000 C 
ATOM     20  C   UNL     1       0.950   2.220  18.932  0.00  0.00    +0.000 C 
ATOM     21  C   UNL     1       2.408   1.827  19.134  0.00  0.00    +0.000 C 
ATOM     22  C   UNL     1       3.007   2.828  20.115  0.00  0.00    +0.000 C 
ENDBRANCH  16  18
ENDBRANCH  15  16
ENDBRANCH   2  15
TORSDOF 5
ENDMDL
MODEL 5
REMARK VINA RESULT:      -7.0      2.950      6.708
REMARK  Name = 
REMARK  5 active torsions:
REMARK  status: ('A' for Active; 'I' for Inactive)
REMARK    1  A    between atoms: C_2  and  C_3
REMARK    2  A    between atoms: C_3  and  N_4
REMARK    3  A    between atoms: N_4  and  C_5
REMARK    4  A    between atoms: N_10  and  C_11
REMARK    5  A    between atoms: C_17  and  N_18
REMARK                            x       y       z     vdW  Elec       q    Type
REMARK                         _______ _______ _______ _____ _____    ______ ____
ROOT
ATOM      1  O   UNL     1       2.353   3.401  16.567  0.00  0.00    +0.000 OA
ATOM      2  C   UNL     1       2.990   2.829  17.448  0.00  0.00    +0.000 C 
ATOM      3  N   UNL     1       4.354   3.185  17.780  0.00  0.00    +0.000 N 
ATOM      4  H   UNL     1       4.696   2.771  18.635  0.00  0.00    +0.000 HD
ENDROOT
BRANCH   3   5
ATOM      5  C   UNL     1       5.395   3.999  17.136  0.00  0.00    +0.000 A 
ATOM      6  C   UNL     1       5.664   3.859  15.765  0.00  0.00    +0.000 A 
ATOM      7  C   UNL     1       6.650   4.637  15.106  0.00  0.00    +0.000 A 
ATOM      8 CL   UNL     1       6.910   4.467  13.411  0.00  0.00    +0.000 Cl
ATOM      9  C   UNL     1       7.433   5.567  15.780  0.00  0.00    +0.000 A 
ATOM     10  C   UNL     1       7.226   5.735  17.132  0.00  0.00    +0.000 A 
ATOM     11  C   UNL     1       6.225   4.985  17.815  0.00  0.00    +0.000 A 
BRANCH  11  12
ATOM     12  N   UNL     1       6.182   5.326  19.251  0.00  0.00    +0.000 N 
ATOM     13  O   UNL     1       7.233   5.416  19.873  0.00  0.00    +0.000 OA
ATOM     14  O   UNL     1       5.078   5.506  19.791  0.00  0.00    +0.000 OA
ENDBRANCH  11  12
ENDBRANCH   3   5
BRANCH   2  15
ATOM     15  C   UNL     1       2.360   1.565  18.277  0.00  0.00    +0.000 C 
BRANCH  15  16
ATOM     16  N   UNL     1       1.217   1.613  19.235  0.00  0.00    +0.000 NA
ATOM     17  H   UNL     1       0.752   0.731  19.423  0.00  0.00    +0.000 HD
BRANCH  16  18
ATOM     18  C   UNL     1       1.184   2.580  20.327  0.00  0.00    +0.000 C 
ATOM     19  C   UNL     1       2.526   2.775  21.087  0.00  0.00    +0.000 C 
ATOM     20  C   UNL     1       2.424   4.170  21.710  0.00  0.00    +0.000 C 
ATOM     21  C   UNL     1       1.496   4.959  20.795  0.00  0.00    +0.000 C 
ATOM     22  C   UNL     1       0.923   3.973  19.784  0.00  0.00    +0.000 C 
ENDBRANCH  16  18
ENDBRANCH  15  16
ENDBRANCH   2  15
TORSDOF 5
ENDMDL
MODEL 6
REMARK VINA RESULT:      -7.0      1.129      1.602
REMARK  Name = 
REMARK  5 active torsions:
REMARK  status: ('A' for Active; 'I' for Inactive)
REMARK    1  A    between atoms: C_2  and  C_3
REMARK    2  A    between atoms: C_3  and  N_4
REMARK    3  A    between atoms: N_4  and  C_5
REMARK    4  A    between atoms: N_10  and  C_11
REMARK    5  A    between atoms: C_17  and  N_18
REMARK                            x       y       z     vdW  Elec       q    Type
REMARK                         _______ _______ _______ _____ _____    ______ ____
ROOT
ATOM      1  O   UNL     1       5.035   3.589  16.754  0.00  0.00    +0.000 OA
ATOM      2  C   UNL     1       5.595   4.519  17.329  0.00  0.00    +0.000 C 
ATOM      3  N   UNL     1       5.121   5.057  18.587  0.00  0.00    +0.000 N 
ATOM      4  H   UNL     1       5.767   5.685  19.041  0.00  0.00    +0.000 HD
ENDROOT
BRANCH   3   5
ATOM      5  C   UNL     1       3.879   4.927  19.364  0.00  0.00    +0.000 A 
ATOM      6  C   UNL     1       3.153   6.068  19.742  0.00  0.00    +0.000 A 
ATOM      7  C   UNL     1       1.944   5.982  20.478  0.00  0.00    +0.000 A 
ATOM      8 CL   UNL     1       1.059   7.407  20.876  0.00  0.00    +0.000 Cl
ATOM      9  C   UNL     1       1.415   4.767  20.897  0.00  0.00    +0.000 A 
ATOM     10  C   UNL     1       2.094   3.614  20.570  0.00  0.00    +0.000 A 
ATOM     11  C   UNL     1       3.299   3.668  19.810  0.00  0.00    +0.000 A 
BRANCH  11  12
ATOM     12  N   UNL     1       3.852   2.319  19.581  0.00  0.00    +0.000 N 
ATOM     13  O   UNL     1       4.892   1.999  20.142  0.00  0.00    +0.000 OA
ATOM     14  O   UNL     1       3.251   1.546  18.816  0.00  0.00    +0.000 OA
ENDBRANCH  11  12
ENDBRANCH   3   5
BRANCH   2  15
ATOM     15  C   UNL     1       6.896   5.270  16.677  0.00  0.00    +0.000 C 
BRANCH  15  16
ATOM     16  N   UNL     1       7.629   4.865  15.442  0.00  0.00    +0.000 NA
ATOM     17  H   UNL     1       8.310   4.121  15.548  0.00  0.00    +0.000 HD
BRANCH  16  18
ATOM     18  C   UNL     1       7.005   4.958  14.126  0.00  0.00    +0.000 C 
ATOM     19  C   UNL     1       7.985   5.155  12.936  0.00  0.00    +0.000 C 
ATOM     20  C   UNL     1       7.226   4.630  11.713  0.00  0.00    +0.000 C 
ATOM     21  C   UNL     1       6.266   3.576  12.250  0.00  0.00    +0.000 C 
ATOM     22  C   UNL     1       6.336   3.643  13.771  0.00  0.00    +0.000 C 
ENDBRANCH  16  18
ENDBRANCH  15  16
ENDBRANCH   2  15
TORSDOF 5
ENDMDL
MODEL 7
REMARK VINA RESULT:      -6.9      4.505      6.161
REMARK  Name = 
REMARK  5 active torsions:
REMARK  status: ('A' for Active; 'I' for Inactive)
REMARK    1  A    between atoms: C_2  and  C_3
REMARK    2  A    between atoms: C_3  and  N_4
REMARK    3  A    between atoms: N_4  and  C_5
REMARK    4  A    between atoms: N_10  and  C_11
REMARK    5  A    between atoms: C_17  and  N_18
REMARK                            x       y       z     vdW  Elec       q    Type
REMARK                         _______ _______ _______ _____ _____    ______ ____
ROOT
ATOM      1  O   UNL     1       6.959   7.817  16.755  0.00  0.00    +0.000 OA
ATOM      2  C   UNL     1       7.451   7.430  17.812  0.00  0.00    +0.000 C 
ATOM      3  N   UNL     1       7.024   6.214  18.473  0.00  0.00    +0.000 N 
ATOM      4  H   UNL     1       7.628   5.914  19.224  0.00  0.00    +0.000 HD
ENDROOT
BRANCH   3   5
ATOM      5  C   UNL     1       5.875   5.308  18.326  0.00  0.00    +0.000 A 
ATOM      6  C   UNL     1       4.858   5.285  19.294  0.00  0.00    +0.000 A 
ATOM      7  C   UNL     1       3.728   4.435  19.180  0.00  0.00    +0.000 A 
ATOM      8 CL   UNL     1       2.478   4.479  20.366  0.00  0.00    +0.000 Cl
ATOM      9  C   UNL     1       3.569   3.551  18.120  0.00  0.00    +0.000 A 
ATOM     10  C   UNL     1       4.545   3.517  17.149  0.00  0.00    +0.000 A 
ATOM     11  C   UNL     1       5.679   4.376  17.224  0.00  0.00    +0.000 A 
BRANCH  11  12
ATOM     12  N   UNL     1       6.592   4.166  16.082  0.00  0.00    +0.000 N 
ATOM     13  O   UNL     1       7.777   4.448  16.208  0.00  0.00    +0.000 OA
ATOM     14  O   UNL     1       6.130   3.717  15.021  0.00  0.00    +0.000 OA
ENDBRANCH  11  12
ENDBRANCH   3   5
BRANCH   2  15
ATOM     15  C   UNL     1       8.596   8.302  18.594  0.00  0.00    +0.000 C 
BRANCH  15  16
ATOM     16  N   UNL     1       8.716   9.789  18.620  0.00  0.00    +0.000 NA
ATOM     17  H   UNL     1       7.846  10.310  18.596  0.00  0.00    +0.000 HD
BRANCH  16  18
ATOM     18  C   UNL     1       9.819  10.448  19.310  0.00  0.00    +0.000 C 
ATOM     19  C   UNL     1      10.425  11.677  18.577  0.00  0.00    +0.000 C 
ATOM     20  C   UNL     1      11.078  12.511  19.684  0.00  0.00    +0.000 C 
ATOM     21  C   UNL     1      10.286  12.202  20.948  0.00  0.00    +0.000 C 
ATOM     22  C   UNL     1       9.331  11.064  20.608  0.00  0.00    +0.000 C 
ENDBRANCH  16  18
ENDBRANCH  15  16
ENDBRANCH   2  15
TORSDOF 5
ENDMDL
MODEL 8
REMARK VINA RESULT:      -6.9      2.890      6.764
REMARK  Name = 
REMARK  5 active torsions:
REMARK  status: ('A' for Active; 'I' for Inactive)
REMARK    1  A    between atoms: C_2  and  C_3
REMARK    2  A    between atoms: C_3  and  N_4
REMARK    3  A    between atoms: N_4  and  C_5
REMARK    4  A    between atoms: N_10  and  C_11
REMARK    5  A    between atoms: C_17  and  N_18
REMARK                            x       y       z     vdW  Elec       q    Type
REMARK                         _______ _______ _______ _____ _____    ______ ____
ROOT
ATOM      1  O   UNL     1       4.891   4.813  19.318  0.00  0.00    +0.000 OA
ATOM      2  C   UNL     1       4.146   5.551  18.678  0.00  0.00    +0.000 C 
ATOM      3  N   UNL     1       4.247   5.708  17.242  0.00  0.00    +0.000 N 
ATOM      4  H   UNL     1       3.468   6.191  16.820  0.00  0.00    +0.000 HD
ENDROOT
BRANCH   3   5
ATOM      5  C   UNL     1       5.255   5.351  16.232  0.00  0.00    +0.000 A 
ATOM      6  C   UNL     1       4.904   4.564  15.123  0.00  0.00    +0.000 A 
ATOM      7  C   UNL     1       5.845   4.210  14.122  0.00  0.00    +0.000 A 
ATOM      8 CL   UNL     1       5.357   3.286  12.752  0.00  0.00    +0.000 Cl
ATOM      9  C   UNL     1       7.178   4.596  14.188  0.00  0.00    +0.000 A 
ATOM     10  C   UNL     1       7.584   5.355  15.264  0.00  0.00    +0.000 A 
ATOM     11  C   UNL     1       6.656   5.746  16.272  0.00  0.00    +0.000 A 
BRANCH  11  12
ATOM     12  N   UNL     1       7.310   6.549  17.324  0.00  0.00    +0.000 N 
ATOM     13  O   UNL     1       7.440   7.755  17.158  0.00  0.00    +0.000 OA
ATOM     14  O   UNL     1       7.718   5.977  18.349  0.00  0.00    +0.000 OA
ENDBRANCH  11  12
ENDBRANCH   3   5
BRANCH   2  15
ATOM     15  C   UNL     1       3.010   6.471  19.417  0.00  0.00    +0.000 C 
BRANCH  15  16
ATOM     16  N   UNL     1       2.206   6.096  20.617  0.00  0.00    +0.000 NA
ATOM     17  H   UNL     1       1.814   6.863  21.152  0.00  0.00    +0.000 HD
BRANCH  16  18
ATOM     18  C   UNL     1       1.445   4.852  20.660  0.00  0.00    +0.000 C 
ATOM     19  C   UNL     1       1.284   4.122  19.297  0.00  0.00    +0.000 C 
ATOM     20  C   UNL     1       1.025   2.658  19.665  0.00  0.00    +0.000 C 
ATOM     21  C   UNL     1       1.713   2.447  21.008  0.00  0.00    +0.000 C 
ATOM     22  C   UNL     1       2.181   3.816  21.488  0.00  0.00    +0.000 C 
ENDBRANCH  16  18
ENDBRANCH  15  16
ENDBRANCH   2  15
TORSDOF 5
ENDMDL
MODEL 9
REMARK VINA RESULT:      -6.9      1.554      1.595
REMARK  Name = 
REMARK  5 active torsions:
REMARK  status: ('A' for Active; 'I' for Inactive)
REMARK    1  A    between atoms: C_2  and  C_3
REMARK    2  A    between atoms: C_3  and  N_4
REMARK    3  A    between atoms: N_4  and  C_5
REMARK    4  A    between atoms: N_10  and  C_11
REMARK    5  A    between atoms: C_17  and  N_18
REMARK                            x       y       z     vdW  Elec       q    Type
REMARK                         _______ _______ _______ _____ _____    ______ ____
ROOT
ATOM      1  O   UNL     1       4.601   6.952  16.673  0.00  0.00    +0.000 OA
ATOM      2  C   UNL     1       5.140   5.909  17.037  0.00  0.00    +0.000 C 
ATOM      3  N   UNL     1       4.493   4.965  17.925  0.00  0.00    +0.000 N 
ATOM      4  H   UNL     1       4.960   4.074  17.996  0.00  0.00    +0.000 HD
ENDROOT
BRANCH   3   5
ATOM      5  C   UNL     1       3.307   5.009  18.792  0.00  0.00    +0.000 A 
ATOM      6  C   UNL     1       3.007   6.165  19.532  0.00  0.00    +0.000 A 
ATOM      7  C   UNL     1       1.865   6.249  20.368  0.00  0.00    +0.000 A 
ATOM      8 CL   UNL     1       1.509   7.706  21.217  0.00  0.00    +0.000 Cl
ATOM      9  C   UNL     1       0.985   5.186  20.531  0.00  0.00    +0.000 A 
ATOM     10  C   UNL     1       1.238   4.020  19.843  0.00  0.00    +0.000 A 
ATOM     11  C   UNL     1       2.364   3.914  18.977  0.00  0.00    +0.000 A 
BRANCH  11  12
ATOM     12  N   UNL     1       2.439   2.580  18.349  0.00  0.00    +0.000 N 
ATOM     13  O   UNL     1       2.523   2.499  17.131  0.00  0.00    +0.000 OA
ATOM     14  O   UNL     1       2.405   1.573  19.076  0.00  0.00    +0.000 OA
ENDBRANCH  11  12
ENDBRANCH   3   5
BRANCH   2  15
ATOM     15  C   UNL     1       6.671   5.536  16.591  0.00  0.00    +0.000 C 
BRANCH  15  16
ATOM     16  N   UNL     1       7.262   5.687  15.230  0.00  0.00    +0.000 NA
ATOM     17  H   UNL     1       8.063   6.304  15.154  0.00  0.00    +0.000 HD
BRANCH  16  18
ATOM     18  C   UNL     1       7.220   4.598  14.260  0.00  0.00    +0.000 C 
ATOM     19  C   UNL     1       5.799   4.083  13.897  0.00  0.00    +0.000 C 
ATOM     20  C   UNL     1       5.957   3.439  12.516  0.00  0.00    +0.000 C 
ATOM     21  C   UNL     1       7.119   4.169  11.855  0.00  0.00    +0.000 C 
ATOM     22  C   UNL     1       7.737   5.073  12.915  0.00  0.00    +0.000 C 
ENDBRANCH  16  18
ENDBRANCH  15  16
ENDBRANCH   2  15
TORSDOF 5
ENDMDL
