MODEL 1
REMARK VINA RESULT:      -6.5      0.000      0.000
REMARK  Name = 
REMARK  11 active torsions:
REMARK  status: ('A' for Active; 'I' for Inactive)
REMARK    1  A    between atoms: C_1  and  C_2
REMARK    2  A    between atoms: C_2  and  C_3
REMARK    3  A    between atoms: C_3  and  C_4
REMARK    4  A    between atoms: C_9  and  C_10
REMARK    5  A    between atoms: C_9  and  C_15
REMARK    6  A    between atoms: C_10  and  O_12
REMARK    7  A    between atoms: O_12  and  C_13
REMARK    8  A    between atoms: C_13  and  C_14
REMARK    9  A    between atoms: C_15  and  O_17
REMARK   10  A    between atoms: O_17  and  C_18
REMARK   11  A    between atoms: C_18  and  C_19
REMARK                            x       y       z     vdW  Elec       q    Type
REMARK                         _______ _______ _______ _____ _____    ______ ____
ROOT
ATOM      1  C   UNL     1       5.090   5.003  16.379  0.00  0.00    +0.000 C 
ATOM      2  C   UNL     1       6.479   5.545  16.820  0.00  0.00    +0.000 C 
ATOM      3  C   UNL     1       6.923   4.556  17.867  0.00  0.00    +0.000 C 
ATOM      4  O   UNL     1       8.049   4.424  18.307  0.00  0.00    +0.000 OA
ATOM      5  N   UNL     1       5.816   3.862  18.283  0.00  0.00    +0.000 N 
ATOM      6  C   UNL     1       4.577   4.377  17.703  0.00  0.00    +0.000 C 
ATOM      7  H   UNL     1       5.856   3.230  19.076  0.00  0.00    +0.000 HD
ENDROOT
BRANCH   6   8
ATOM      8  C   UNL     1       3.956   5.534  18.528  0.00  0.00    +0.000 C 
ATOM      9  O   UNL     1       4.052   5.629  19.748  0.00  0.00    +0.000 OA
BRANCH   8  10
ATOM     10  O   UNL     1       3.226   6.386  17.757  0.00  0.00    +0.000 OA
BRANCH  10  11
ATOM     11  C   UNL     1       2.385   7.285  18.494  0.00  0.00    +0.000 C 
ATOM     12  C   UNL     1       2.356   8.612  17.756  0.00  0.00    +0.000 C 
ENDBRANCH  10  11
ENDBRANCH   8  10
ENDBRANCH   6   8
BRANCH   6  13
ATOM     13  C   UNL     1       3.461   3.324  17.672  0.00  0.00    +0.000 C 
ATOM     14  O   UNL     1       2.489   3.355  16.927  0.00  0.00    +0.000 OA
BRANCH  13  15
ATOM     15  O   UNL     1       3.566   2.485  18.751  0.00  0.00    +0.000 OA
BRANCH  15  16
ATOM     16  C   UNL     1       2.310   2.015  19.266  0.00  0.00    +0.000 C 
ATOM     17  C   UNL     1       1.899   2.880  20.450  0.00  0.00    +0.000 C 
ENDBRANCH  15  16
ENDBRANCH  13  15
ENDBRANCH   6  13
BRANCH   1  18
ATOM     18  C   UNL     1       5.308   4.095  15.149  0.00  0.00    +0.000 C 
BRANCH  18  20
ATOM     19  C   UNL     1       6.389   3.794  12.884  0.00  0.00    +0.000 C 
ATOM     20  C   UNL     1       6.453   4.506  14.227  0.00  0.00    +0.000 C 
ENDBRANCH  18  20
ENDBRANCH   1  18
TORSDOF 8
ENDMDL
MODEL 2
REMARK VINA RESULT:      -6.4      1.309      1.422
REMARK  Name = 
REMARK  11 active torsions:
REMARK  status: ('A' for Active; 'I' for Inactive)
REMARK    1  A    between atoms: C_1  and  C_2
REMARK    2  A    between atoms: C_2  and  C_3
REMARK    3  A    between atoms: C_3  and  C_4
REMARK    4  A    between atoms: C_9  and  C_10
REMARK    5  A    between atoms: C_9  and  C_15
REMARK    6  A    between atoms: C_10  and  O_12
REMARK    7  A    between atoms: O_12  and  C_13
REMARK    8  A    between atoms: C_13  and  C_14
REMARK    9  A    between atoms: C_15  and  O_17
REMARK   10  A    between atoms: O_17  and  C_18
REMARK   11  A    between atoms: C_18  and  C_19
REMARK                            x       y       z     vdW  Elec       q    Type
REMARK                         _______ _______ _______ _____ _____    ______ ____
ROOT
ATOM      1  C   UNL     1       4.306   5.409  17.143  0.00  0.00    +0.000 C 
ATOM      2  C   UNL     1       5.542   6.048  17.839  0.00  0.00    +0.000 C 
ATOM      3  C   UNL     1       5.705   5.220  19.088  0.00  0.00    +0.000 C 
ATOM      4  O   UNL     1       6.684   5.183  19.808  0.00  0.00    +0.000 OA
ATOM      5  N   UNL     1       4.527   4.552  19.304  0.00  0.00    +0.000 N 
ATOM      6  C   UNL     1       3.476   4.947  18.369  0.00  0.00    +0.000 C 
ATOM      7  H   UNL     1       4.366   4.032  20.160  0.00  0.00    +0.000 HD
ENDROOT
BRANCH   6   8
ATOM      8  C   UNL     1       2.670   6.181  18.849  0.00  0.00    +0.000 C 
ATOM      9  O   UNL     1       2.325   6.359  20.013  0.00  0.00    +0.000 OA
BRANCH   8  10
ATOM     10  O   UNL     1       2.319   7.002  17.821  0.00  0.00    +0.000 OA
BRANCH  10  11
ATOM     11  C   UNL     1       2.616   8.389  18.038  0.00  0.00    +0.000 C 
ATOM     12  C   UNL     1       1.332   9.179  17.855  0.00  0.00    +0.000 C 
ENDBRANCH  10  11
ENDBRANCH   8  10
ENDBRANCH   6   8
BRANCH   6  13
ATOM     13  C   UNL     1       2.401   3.863  18.203  0.00  0.00    +0.000 C 
ATOM     14  O   UNL     1       1.434   3.945  17.457  0.00  0.00    +0.000 OA
BRANCH  13  15
ATOM     15  O   UNL     1       2.531   2.908  19.177  0.00  0.00    +0.000 OA
BRANCH  15  16
ATOM     16  C   UNL     1       1.363   2.722  19.992  0.00  0.00    +0.000 C 
ATOM     17  C   UNL     1       1.680   3.130  21.424  0.00  0.00    +0.000 C 
ENDBRANCH  15  16
ENDBRANCH  13  15
ENDBRANCH   6  13
BRANCH   1  18
ATOM     18  C   UNL     1       4.825   4.355  16.141  0.00  0.00    +0.000 C 
BRANCH  18  20
ATOM     19  C   UNL     1       6.067   3.959  13.975  0.00  0.00    +0.000 C 
ATOM     20  C   UNL     1       5.949   4.824  15.221  0.00  0.00    +0.000 C 
ENDBRANCH  18  20
ENDBRANCH   1  18
TORSDOF 8
ENDMDL
MODEL 3
REMARK VINA RESULT:      -6.3      1.907      5.448
REMARK  Name = 
REMARK  11 active torsions:
REMARK  status: ('A' for Active; 'I' for Inactive)
REMARK    1  A    between atoms: C_1  and  C_2
REMARK    2  A    between atoms: C_2  and  C_3
REMARK    3  A    between atoms: C_3  and  C_4
REMARK    4  A    between atoms: C_9  and  C_10
REMARK    5  A    between atoms: C_9  and  C_15
REMARK    6  A    between atoms: C_10  and  O_12
REMARK    7  A    between atoms: O_12  and  C_13
REMARK    8  A    between atoms: C_13  and  C_14
REMARK    9  A    between atoms: C_15  and  O_17
REMARK   10  A    between atoms: O_17  and  C_18
REMARK   11  A    between atoms: C_18  and  C_19
REMARK                            x       y       z     vdW  Elec       q    Type
REMARK                         _______ _______ _______ _____ _____    ______ ____
ROOT
ATOM      1  C   UNL     1       4.432   5.246  17.494  0.00  0.00    +0.000 C 
ATOM      2  C   UNL     1       3.699   3.905  17.208  0.00  0.00    +0.000 C 
ATOM      3  C   UNL     1       4.308   2.956  18.209  0.00  0.00    +0.000 C 
ATOM      4  O   UNL     1       3.872   1.868  18.532  0.00  0.00    +0.000 OA
ATOM      5  N   UNL     1       5.481   3.511  18.653  0.00  0.00    +0.000 N 
ATOM      6  C   UNL     1       5.828   4.739  17.939  0.00  0.00    +0.000 C 
ATOM      7  H   UNL     1       6.124   2.989  19.238  0.00  0.00    +0.000 HD
ENDROOT
BRANCH   6   8
ATOM      8  C   UNL     1       6.638   4.478  16.644  0.00  0.00    +0.000 C 
ATOM      9  O   UNL     1       7.808   4.106  16.634  0.00  0.00    +0.000 OA
BRANCH   8  10
ATOM     10  O   UNL     1       5.932   4.783  15.520  0.00  0.00    +0.000 OA
BRANCH  10  11
ATOM     11  C   UNL     1       6.711   4.819  14.317  0.00  0.00    +0.000 C 
ATOM     12  C   UNL     1       6.154   3.775  13.364  0.00  0.00    +0.000 C 
ENDBRANCH  10  11
ENDBRANCH   8  10
ENDBRANCH   6   8
BRANCH   6  13
ATOM     13  C   UNL     1       6.752   5.651  18.757  0.00  0.00    +0.000 C 
ATOM     14  O   UNL     1       7.137   5.419  19.897  0.00  0.00    +0.000 OA
BRANCH  13  15
ATOM     15  O   UNL     1       6.886   6.869  18.144  0.00  0.00    +0.000 OA
BRANCH  15  16
ATOM     16  C   UNL     1       8.198   7.447  18.245  0.00  0.00    +0.000 C 
ATOM     17  C   UNL     1       8.111   8.940  17.956  0.00  0.00    +0.000 C 
ENDBRANCH  15  16
ENDBRANCH  13  15
ENDBRANCH   6  13
BRANCH   1  18
ATOM     18  C   UNL     1       3.568   6.051  18.490  0.00  0.00    +0.000 C 
BRANCH  18  20
ATOM     19  C   UNL     1       1.898   5.313  20.239  0.00  0.00    +0.000 C 
ATOM     20  C   UNL     1       2.174   5.486  18.753  0.00  0.00    +0.000 C 
ENDBRANCH  18  20
ENDBRANCH   1  18
TORSDOF 8
ENDMDL
MODEL 4
REMARK VINA RESULT:      -6.2      1.755      5.504
REMARK  Name = 
REMARK  11 active torsions:
REMARK  status: ('A' for Active; 'I' for Inactive)
REMARK    1  A    between atoms: C_1  and  C_2
REMARK    2  A    between atoms: C_2  and  C_3
REMARK    3  A    between atoms: C_3  and  C_4
REMARK    4  A    between atoms: C_9  and  C_10
REMARK    5  A    between atoms: C_9  and  C_15
REMARK    6  A    between atoms: C_10  and  O_12
REMARK    7  A    between atoms: O_12  and  C_13
REMARK    8  A    between atoms: C_13  and  C_14
REMARK    9  A    between atoms: C_15  and  O_17
REMARK   10  A    between atoms: O_17  and  C_18
REMARK   11  A    between atoms: C_18  and  C_19
REMARK                            x       y       z     vdW  Elec       q    Type
REMARK                         _______ _______ _______ _____ _____    ______ ____
ROOT
ATOM      1  C   UNL     1       3.734   5.242  18.195  0.00  0.00    +0.000 C 
ATOM      2  C   UNL     1       2.794   4.118  17.676  0.00  0.00    +0.000 C 
ATOM      3  C   UNL     1       3.604   2.864  17.884  0.00  0.00    +0.000 C 
ATOM      4  O   UNL     1       3.187   1.722  17.865  0.00  0.00    +0.000 OA
ATOM      5  N   UNL     1       4.915   3.233  18.045  0.00  0.00    +0.000 N 
ATOM      6  C   UNL     1       5.126   4.664  17.831  0.00  0.00    +0.000 C 
ATOM      7  H   UNL     1       5.658   2.543  18.074  0.00  0.00    +0.000 HD
ENDROOT
BRANCH   6   8
ATOM      8  C   UNL     1       5.382   5.024  16.345  0.00  0.00    +0.000 C 
ATOM      9  O   UNL     1       5.025   6.078  15.828  0.00  0.00    +0.000 OA
BRANCH   8  10
ATOM     10  O   UNL     1       5.974   4.007  15.660  0.00  0.00    +0.000 OA
BRANCH  10  11
ATOM     11  C   UNL     1       6.721   4.420  14.508  0.00  0.00    +0.000 C 
ATOM     12  C   UNL     1       6.117   3.743  13.289  0.00  0.00    +0.000 C 
ENDBRANCH  10  11
ENDBRANCH   8  10
ENDBRANCH   6   8
BRANCH   6  13
ATOM     13  C   UNL     1       6.383   5.183  18.543  0.00  0.00    +0.000 C 
ATOM     14  O   UNL     1       6.603   5.076  19.743  0.00  0.00    +0.000 OA
BRANCH  13  15
ATOM     15  O   UNL     1       7.105   5.995  17.708  0.00  0.00    +0.000 OA
BRANCH  15  16
ATOM     16  C   UNL     1       7.935   6.956  18.379  0.00  0.00    +0.000 C 
ATOM     17  C   UNL     1       7.836   8.294  17.659  0.00  0.00    +0.000 C 
ENDBRANCH  15  16
ENDBRANCH  13  15
ENDBRANCH   6  13
BRANCH   1  18
ATOM     18  C   UNL     1       3.386   5.499  19.677  0.00  0.00    +0.000 C 
BRANCH  18  20
ATOM     19  C   UNL     1       1.981   4.052  21.202  0.00  0.00    +0.000 C 
ATOM     20  C   UNL     1       1.974   5.098  20.097  0.00  0.00    +0.000 C 
ENDBRANCH  18  20
ENDBRANCH   1  18
TORSDOF 8
ENDMDL
MODEL 5
REMARK VINA RESULT:      -6.2      1.765      5.371
REMARK  Name = 
REMARK  11 active torsions:
REMARK  status: ('A' for Active; 'I' for Inactive)
REMARK    1  A    between atoms: C_1  and  C_2
REMARK    2  A    between atoms: C_2  and  C_3
REMARK    3  A    between atoms: C_3  and  C_4
REMARK    4  A    between atoms: C_9  and  C_10
REMARK    5  A    between atoms: C_9  and  C_15
REMARK    6  A    between atoms: C_10  and  O_12
REMARK    7  A    between atoms: O_12  and  C_13
REMARK    8  A    between atoms: C_13  and  C_14
REMARK    9  A    between atoms: C_15  and  O_17
REMARK   10  A    between atoms: O_17  and  C_18
REMARK   11  A    between atoms: C_18  and  C_19
REMARK                            x       y       z     vdW  Elec       q    Type
REMARK                         _______ _______ _______ _____ _____    ______ ____
ROOT
ATOM      1  C   UNL     1       3.539   5.320  18.008  0.00  0.00    +0.000 C 
ATOM      2  C   UNL     1       2.710   4.106  17.504  0.00  0.00    +0.000 C 
ATOM      3  C   UNL     1       3.568   2.922  17.868  0.00  0.00    +0.000 C 
ATOM      4  O   UNL     1       3.219   1.758  17.903  0.00  0.00    +0.000 OA
ATOM      5  N   UNL     1       4.839   3.383  18.101  0.00  0.00    +0.000 N 
ATOM      6  C   UNL     1       4.987   4.805  17.798  0.00  0.00    +0.000 C 
ATOM      7  H   UNL     1       5.615   2.744  18.240  0.00  0.00    +0.000 HD
ENDROOT
BRANCH   6   8
ATOM      8  C   UNL     1       5.342   5.074  16.313  0.00  0.00    +0.000 C 
ATOM      9  O   UNL     1       4.991   6.076  15.699  0.00  0.00    +0.000 OA
BRANCH   8  10
ATOM     10  O   UNL     1       6.018   4.037  15.746  0.00  0.00    +0.000 OA
BRANCH  10  11
ATOM     11  C   UNL     1       6.787   4.389  14.587  0.00  0.00    +0.000 C 
ATOM     12  C   UNL     1       6.115   3.772  13.372  0.00  0.00    +0.000 C 
ENDBRANCH  10  11
ENDBRANCH   8  10
ENDBRANCH   6   8
BRANCH   6  13
ATOM     13  C   UNL     1       6.150   5.450  18.563  0.00  0.00    +0.000 C 
ATOM     14  O   UNL     1       6.503   5.139  19.694  0.00  0.00    +0.000 OA
BRANCH  13  15
ATOM     15  O   UNL     1       6.579   6.581  17.918  0.00  0.00    +0.000 OA
BRANCH  15  16
ATOM     16  C   UNL     1       7.895   7.019  18.292  0.00  0.00    +0.000 C 
ATOM     17  C   UNL     1       8.092   8.458  17.834  0.00  0.00    +0.000 C 
ENDBRANCH  15  16
ENDBRANCH  13  15
ENDBRANCH   6  13
BRANCH   1  18
ATOM     18  C   UNL     1       3.057   5.659  19.435  0.00  0.00    +0.000 C 
BRANCH  18  20
ATOM     19  C   UNL     1       2.415   7.826  18.301  0.00  0.00    +0.000 C 
ATOM     20  C   UNL     1       2.426   7.039  19.603  0.00  0.00    +0.000 C 
ENDBRANCH  18  20
ENDBRANCH   1  18
TORSDOF 8
ENDMDL
MODEL 6
REMARK VINA RESULT:      -6.2      0.914      1.355
REMARK  Name = 
REMARK  11 active torsions:
REMARK  status: ('A' for Active; 'I' for Inactive)
REMARK    1  A    between atoms: C_1  and  C_2
REMARK    2  A    between atoms: C_2  and  C_3
REMARK    3  A    between atoms: C_3  and  C_4
REMARK    4  A    between atoms: C_9  and  C_10
REMARK    5  A    between atoms: C_9  and  C_15
REMARK    6  A    between atoms: C_10  and  O_12
REMARK    7  A    between atoms: O_12  and  C_13
REMARK    8  A    between atoms: C_13  and  C_14
REMARK    9  A    between atoms: C_15  and  O_17
REMARK   10  A    between atoms: O_17  and  C_18
REMARK   11  A    between atoms: C_18  and  C_19
REMARK                            x       y       z     vdW  Elec       q    Type
REMARK                         _______ _______ _______ _____ _____    ______ ____
ROOT
ATOM      1  C   UNL     1       5.285   4.993  15.985  0.00  0.00    +0.000 C 
ATOM      2  C   UNL     1       6.683   5.478  16.463  0.00  0.00    +0.000 C 
ATOM      3  C   UNL     1       6.951   4.625  17.676  0.00  0.00    +0.000 C 
ATOM      4  O   UNL     1       8.023   4.468  18.228  0.00  0.00    +0.000 OA
ATOM      5  N   UNL     1       5.755   4.096  18.089  0.00  0.00    +0.000 N 
ATOM      6  C   UNL     1       4.618   4.619  17.334  0.00  0.00    +0.000 C 
ATOM      7  H   UNL     1       5.676   3.590  18.964  0.00  0.00    +0.000 HD
ENDROOT
BRANCH   6   8
ATOM      8  C   UNL     1       4.050   5.934  17.927  0.00  0.00    +0.000 C 
ATOM      9  O   UNL     1       3.934   6.976  17.289  0.00  0.00    +0.000 OA
BRANCH   8  10
ATOM     10  O   UNL     1       3.768   5.824  19.255  0.00  0.00    +0.000 OA
BRANCH  10  11
ATOM     11  C   UNL     1       2.573   6.500  19.668  0.00  0.00    +0.000 C 
ATOM     12  C   UNL     1       1.805   5.573  20.595  0.00  0.00    +0.000 C 
ENDBRANCH  10  11
ENDBRANCH   8  10
ENDBRANCH   6   8
BRANCH   6  13
ATOM     13  C   UNL     1       3.412   3.669  17.357  0.00  0.00    +0.000 C 
ATOM     14  O   UNL     1       2.322   3.909  16.852  0.00  0.00    +0.000 OA
BRANCH  13  15
ATOM     15  O   UNL     1       3.637   2.632  18.224  0.00  0.00    +0.000 OA
BRANCH  15  16
ATOM     16  C   UNL     1       2.504   1.774  18.435  0.00  0.00    +0.000 C 
ATOM     17  C   UNL     1       1.835   2.140  19.753  0.00  0.00    +0.000 C 
ENDBRANCH  15  16
ENDBRANCH  13  15
ENDBRANCH   6  13
BRANCH   1  18
ATOM     18  C   UNL     1       5.507   3.896  14.921  0.00  0.00    +0.000 C 
BRANCH  18  20
ATOM     19  C   UNL     1       6.224   3.477  12.533  0.00  0.00    +0.000 C 
ATOM     20  C   UNL     1       6.501   4.246  13.816  0.00  0.00    +0.000 C 
ENDBRANCH  18  20
ENDBRANCH   1  18
TORSDOF 8
ENDMDL
MODEL 7
REMARK VINA RESULT:      -6.2      1.571      1.887
REMARK  Name = 
REMARK  11 active torsions:
REMARK  status: ('A' for Active; 'I' for Inactive)
REMARK    1  A    between atoms: C_1  and  C_2
REMARK    2  A    between atoms: C_2  and  C_3
REMARK    3  A    between atoms: C_3  and  C_4
REMARK    4  A    between atoms: C_9  and  C_10
REMARK    5  A    between atoms: C_9  and  C_15
REMARK    6  A    between atoms: C_10  and  O_12
REMARK    7  A    between atoms: O_12  and  C_13
REMARK    8  A    between atoms: C_13  and  C_14
REMARK    9  A    between atoms: C_15  and  O_17
REMARK   10  A    between atoms: O_17  and  C_18
REMARK   11  A    between atoms: C_18  and  C_19
REMARK                            x       y       z     vdW  Elec       q    Type
REMARK                         _______ _______ _______ _____ _____    ______ ____
ROOT
ATOM      1  C   UNL     1       4.397   5.403  16.980  0.00  0.00    +0.000 C 
ATOM      2  C   UNL     1       5.642   5.986  17.707  0.00  0.00    +0.000 C 
ATOM      3  C   UNL     1       5.614   5.301  19.049  0.00  0.00    +0.000 C 
ATOM      4  O   UNL     1       6.524   5.247  19.853  0.00  0.00    +0.000 OA
ATOM      5  N   UNL     1       4.353   4.793  19.234  0.00  0.00    +0.000 N 
ATOM      6  C   UNL     1       3.428   5.182  18.171  0.00  0.00    +0.000 C 
ATOM      7  H   UNL     1       4.068   4.399  20.124  0.00  0.00    +0.000 HD
ENDROOT
BRANCH   6   8
ATOM      8  C   UNL     1       2.737   6.544  18.438  0.00  0.00    +0.000 C 
ATOM      9  O   UNL     1       2.647   7.438  17.602  0.00  0.00    +0.000 OA
BRANCH   8  10
ATOM     10  O   UNL     1       2.313   6.666  19.726  0.00  0.00    +0.000 OA
BRANCH  10  11
ATOM     11  C   UNL     1       1.876   7.983  20.087  0.00  0.00    +0.000 C 
ATOM     12  C   UNL     1       1.006   7.866  21.327  0.00  0.00    +0.000 C 
ENDBRANCH  10  11
ENDBRANCH   8  10
ENDBRANCH   6   8
BRANCH   6  13
ATOM     13  C   UNL     1       2.251   4.207  18.032  0.00  0.00    +0.000 C 
ATOM     14  O   UNL     1       1.256   4.404  17.345  0.00  0.00    +0.000 OA
BRANCH  13  15
ATOM     15  O   UNL     1       2.344   3.208  18.965  0.00  0.00    +0.000 OA
BRANCH  15  16
ATOM     16  C   UNL     1       1.141   2.976  19.715  0.00  0.00    +0.000 C 
ATOM     17  C   UNL     1       1.423   3.193  21.196  0.00  0.00    +0.000 C 
ENDBRANCH  15  16
ENDBRANCH  13  15
ENDBRANCH   6  13
BRANCH   1  18
ATOM     18  C   UNL     1       4.864   4.187  16.150  0.00  0.00    +0.000 C 
BRANCH  18  20
ATOM     19  C   UNL     1       5.906   3.945  13.859  0.00  0.00    +0.000 C 
ATOM     20  C   UNL     1       6.105   4.417  15.292  0.00  0.00    +0.000 C 
ENDBRANCH  18  20
ENDBRANCH   1  18
TORSDOF 8
ENDMDL
MODEL 8
REMARK VINA RESULT:      -6.2      1.817      5.364
REMARK  Name = 
REMARK  11 active torsions:
REMARK  status: ('A' for Active; 'I' for Inactive)
REMARK    1  A    between atoms: C_1  and  C_2
REMARK    2  A    between atoms: C_2  and  C_3
REMARK    3  A    between atoms: C_3  and  C_4
REMARK    4  A    between atoms: C_9  and  C_10
REMARK    5  A    between atoms: C_9  and  C_15
REMARK    6  A    between atoms: C_10  and  O_12
REMARK    7  A    between atoms: O_12  and  C_13
REMARK    8  A    between atoms: C_13  and  C_14
REMARK    9  A    between atoms: C_15  and  O_17
REMARK   10  A    between atoms: O_17  and  C_18
REMARK   11  A    between atoms: C_18  and  C_19
REMARK                            x       y       z     vdW  Elec       q    Type
REMARK                         _______ _______ _______ _____ _____    ______ ____
ROOT
ATOM      1  C   UNL     1       4.490   5.343  17.615  0.00  0.00    +0.000 C 
ATOM      2  C   UNL     1       3.723   4.017  17.349  0.00  0.00    +0.000 C 
ATOM      3  C   UNL     1       4.315   3.064  18.356  0.00  0.00    +0.000 C 
ATOM      4  O   UNL     1       3.854   1.991  18.694  0.00  0.00    +0.000 OA
ATOM      5  N   UNL     1       5.503   3.596  18.788  0.00  0.00    +0.000 N 
ATOM      6  C   UNL     1       5.876   4.806  18.058  0.00  0.00    +0.000 C 
ATOM      7  H   UNL     1       6.136   3.064  19.376  0.00  0.00    +0.000 HD
ENDROOT
BRANCH   6   8
ATOM      8  C   UNL     1       6.672   4.511  16.761  0.00  0.00    +0.000 C 
ATOM      9  O   UNL     1       7.839   4.130  16.749  0.00  0.00    +0.000 OA
BRANCH   8  10
ATOM     10  O   UNL     1       5.958   4.799  15.638  0.00  0.00    +0.000 OA
BRANCH  10  11
ATOM     11  C   UNL     1       6.154   3.878  14.556  0.00  0.00    +0.000 C 
ATOM     12  C   UNL     1       6.860   4.618  13.432  0.00  0.00    +0.000 C 
ENDBRANCH  10  11
ENDBRANCH   8  10
ENDBRANCH   6   8
BRANCH   6  13
ATOM     13  C   UNL     1       6.827   5.705  18.861  0.00  0.00    +0.000 C 
ATOM     14  O   UNL     1       7.222   5.469  19.997  0.00  0.00    +0.000 OA
BRANCH  13  15
ATOM     15  O   UNL     1       6.975   6.918  18.242  0.00  0.00    +0.000 OA
BRANCH  15  16
ATOM     16  C   UNL     1       8.261   7.531  18.428  0.00  0.00    +0.000 C 
ATOM     17  C   UNL     1       8.199   8.980  17.963  0.00  0.00    +0.000 C 
ENDBRANCH  15  16
ENDBRANCH  13  15
ENDBRANCH   6  13
BRANCH   1  18
ATOM     18  C   UNL     1       3.652   6.180  18.606  0.00  0.00    +0.000 C 
BRANCH  18  20
ATOM     19  C   UNL     1       2.522   8.312  17.850  0.00  0.00    +0.000 C 
ATOM     20  C   UNL     1       2.386   6.807  18.027  0.00  0.00    +0.000 C 
ENDBRANCH  18  20
ENDBRANCH   1  18
TORSDOF 8
ENDMDL
MODEL 9
REMARK VINA RESULT:      -6.1      1.503      4.705
REMARK  Name = 
REMARK  11 active torsions:
REMARK  status: ('A' for Active; 'I' for Inactive)
REMARK    1  A    between atoms: C_1  and  C_2
REMARK    2  A    between atoms: C_2  and  C_3
REMARK    3  A    between atoms: C_3  and  C_4
REMARK    4  A    between atoms: C_9  and  C_10
REMARK    5  A    between atoms: C_9  and  C_15
REMARK    6  A    between atoms: C_10  and  O_12
REMARK    7  A    between atoms: O_12  and  C_13
REMARK    8  A    between atoms: C_13  and  C_14
REMARK    9  A    between atoms: C_15  and  O_17
REMARK   10  A    between atoms: O_17  and  C_18
REMARK   11  A    between atoms: C_18  and  C_19
REMARK                            x       y       z     vdW  Elec       q    Type
REMARK                         _______ _______ _______ _____ _____    ______ ____
ROOT
ATOM      1  C   UNL     1       3.390   3.460  17.412  0.00  0.00    +0.000 C 
ATOM      2  C   UNL     1       3.849   2.170  18.151  0.00  0.00    +0.000 C 
ATOM      3  C   UNL     1       4.433   2.696  19.437  0.00  0.00    +0.000 C 
ATOM      4  O   UNL     1       4.682   2.049  20.436  0.00  0.00    +0.000 OA
ATOM      5  N   UNL     1       4.691   4.032  19.265  0.00  0.00    +0.000 N 
ATOM      6  C   UNL     1       4.456   4.478  17.893  0.00  0.00    +0.000 C 
ATOM      7  H   UNL     1       5.204   4.564  19.960  0.00  0.00    +0.000 HD
ENDROOT
BRANCH   6   8
ATOM      8  C   UNL     1       5.692   4.293  16.976  0.00  0.00    +0.000 C 
ATOM      9  O   UNL     1       6.847   4.490  17.340  0.00  0.00    +0.000 OA
BRANCH   8  10
ATOM     10  O   UNL     1       5.345   3.966  15.700  0.00  0.00    +0.000 OA
BRANCH  10  11
ATOM     11  C   UNL     1       6.396   4.127  14.737  0.00  0.00    +0.000 C 
ATOM     12  C   UNL     1       5.831   3.799  13.366  0.00  0.00    +0.000 C 
ENDBRANCH  10  11
ENDBRANCH   8  10
ENDBRANCH   6   8
BRANCH   6  13
ATOM     13  C   UNL     1       4.172   5.984  17.807  0.00  0.00    +0.000 C 
ATOM     14  O   UNL     1       4.421   6.690  16.837  0.00  0.00    +0.000 OA
BRANCH  13  15
ATOM     15  O   UNL     1       3.837   6.479  19.041  0.00  0.00    +0.000 OA
BRANCH  15  16
ATOM     16  C   UNL     1       2.512   7.029  19.123  0.00  0.00    +0.000 C 
ATOM     17  C   UNL     1       1.840   6.528  20.395  0.00  0.00    +0.000 C 
ENDBRANCH  15  16
ENDBRANCH  13  15
ENDBRANCH   6  13
BRANCH   1  18
ATOM     18  C   UNL     1       1.905   3.698  17.761  0.00  0.00    +0.000 C 
BRANCH  18  20
ATOM     19  C   UNL     1       0.778   3.056  19.931  0.00  0.00    +0.000 C 
ATOM     20  C   UNL     1       1.232   2.584  18.558  0.00  0.00    +0.000 C 
ENDBRANCH  18  20
ENDBRANCH   1  18
TORSDOF 8
ENDMDL
