MODEL 1
REMARK VINA RESULT:      -7.0      0.000      0.000
REMARK  Name = 
REMARK  4 active torsions:
REMARK  status: ('A' for Active; 'I' for Inactive)
REMARK    1  A    between atoms: C_1  and  C_2
REMARK    2  A    between atoms: C_2  and  C_3
REMARK    3  A    between atoms: C_2  and  N_4
REMARK    4  A    between atoms: C_8  and  C_9
REMARK                            x       y       z     vdW  Elec       q    Type
REMARK                         _______ _______ _______ _____ _____    ______ ____
ROOT
ATOM      1  N   UNL     1       3.171   3.849  19.205  0.00  0.00    +0.000 NA
ATOM      2  C   UNL     1       3.786   3.929  17.857  0.00  0.00    +0.000 C 
ATOM      3  C   UNL     1       3.535   5.350  17.433  0.00  0.00    +0.000 C 
ATOM      4  C   UNL     1       4.562   6.396  17.715  0.00  0.00    +0.000 C 
ATOM      5  C   UNL     1       3.393   6.169  18.670  0.00  0.00    +0.000 C 
ATOM      6  C   UNL     1       3.497   5.173  19.813  0.00  0.00    +0.000 C 
ENDROOT
BRANCH   5   7
ATOM      7  C   UNL     1       2.482   7.352  18.885  0.00  0.00    +0.000 A 
ATOM      8  C   UNL     1       2.230   8.227  17.813  0.00  0.00    +0.000 A 
ATOM      9  C   UNL     1       1.474   9.388  17.969  0.00  0.00    +0.000 A 
ATOM     10  C   UNL     1       0.944   9.712  19.216  0.00  0.00    +0.000 A 
ATOM     11 CL   UNL     1       0.051  11.183  19.352  0.00  0.00    +0.000 Cl
ATOM     12  C   UNL     1       1.160   8.854  20.299  0.00  0.00    +0.000 A 
ATOM     13 CL   UNL     1       0.546   9.195  21.879  0.00  0.00    +0.000 Cl
ATOM     14  C   UNL     1       1.913   7.682  20.126  0.00  0.00    +0.000 A 
ENDBRANCH   5   7
BRANCH   1  16
ATOM     15  C   UNL     1       1.385   2.124  18.791  0.00  0.00    +0.000 C 
ATOM     16  C   UNL     1       1.708   3.588  19.140  0.00  0.00    +0.000 C 
ATOM     17  C   UNL     1       0.999   3.893  20.471  0.00  0.00    +0.000 C 
ENDBRANCH   1  16
TORSDOF 2
ENDMDL
MODEL 2
REMARK VINA RESULT:      -6.7      1.766      3.396
REMARK  Name = 
REMARK  4 active torsions:
REMARK  status: ('A' for Active; 'I' for Inactive)
REMARK    1  A    between atoms: C_1  and  C_2
REMARK    2  A    between atoms: C_2  and  C_3
REMARK    3  A    between atoms: C_2  and  N_4
REMARK    4  A    between atoms: C_8  and  C_9
REMARK                            x       y       z     vdW  Elec       q    Type
REMARK                         _______ _______ _______ _____ _____    ______ ____
ROOT
ATOM      1  N   UNL     1       5.999   5.528  17.276  0.00  0.00    +0.000 NA
ATOM      2  C   UNL     1       5.555   4.282  17.949  0.00  0.00    +0.000 C 
ATOM      3  C   UNL     1       4.233   4.657  18.560  0.00  0.00    +0.000 C 
ATOM      4  C   UNL     1       2.973   4.423  17.793  0.00  0.00    +0.000 C 
ATOM      5  C   UNL     1       3.671   5.781  17.758  0.00  0.00    +0.000 C 
ATOM      6  C   UNL     1       4.734   6.089  16.717  0.00  0.00    +0.000 C 
ENDROOT
BRANCH   5   7
ATOM      7  C   UNL     1       2.860   6.949  18.262  0.00  0.00    +0.000 A 
ATOM      8  C   UNL     1       2.633   8.045  17.410  0.00  0.00    +0.000 A 
ATOM      9  C   UNL     1       1.971   9.194  17.845  0.00  0.00    +0.000 A 
ATOM     10  C   UNL     1       1.517   9.281  19.159  0.00  0.00    +0.000 A 
ATOM     11 CL   UNL     1       0.743  10.744  19.646  0.00  0.00    +0.000 Cl
ATOM     12  C   UNL     1       1.712   8.202  20.027  0.00  0.00    +0.000 A 
ATOM     13 CL   UNL     1       1.188   8.240  21.675  0.00  0.00    +0.000 Cl
ATOM     14  C   UNL     1       2.367   7.046  19.574  0.00  0.00    +0.000 A 
ENDBRANCH   5   7
BRANCH   1  16
ATOM     15  C   UNL     1       7.680   5.743  19.139  0.00  0.00    +0.000 C 
ATOM     16  C   UNL     1       6.680   6.461  18.214  0.00  0.00    +0.000 C 
ATOM     17  C   UNL     1       7.465   7.560  17.480  0.00  0.00    +0.000 C 
ENDBRANCH   1  16
TORSDOF 2
ENDMDL
MODEL 3
REMARK VINA RESULT:      -6.7      3.660      5.065
REMARK  Name = 
REMARK  4 active torsions:
REMARK  status: ('A' for Active; 'I' for Inactive)
REMARK    1  A    between atoms: C_1  and  C_2
REMARK    2  A    between atoms: C_2  and  C_3
REMARK    3  A    between atoms: C_2  and  N_4
REMARK    4  A    between atoms: C_8  and  C_9
REMARK                            x       y       z     vdW  Elec       q    Type
REMARK                         _______ _______ _______ _____ _____    ______ ____
ROOT
ATOM      1  N   UNL     1       1.499   4.186  19.809  0.00  0.00    +0.000 NA
ATOM      2  C   UNL     1       1.561   5.459  20.570  0.00  0.00    +0.000 C 
ATOM      3  C   UNL     1       2.627   6.248  19.861  0.00  0.00    +0.000 C 
ATOM      4  C   UNL     1       2.244   7.186  18.765  0.00  0.00    +0.000 C 
ATOM      5  C   UNL     1       2.687   5.758  18.455  0.00  0.00    +0.000 C 
ATOM      6  C   UNL     1       1.681   4.622  18.392  0.00  0.00    +0.000 C 
ENDROOT
BRANCH   5   7
ATOM      7  C   UNL     1       3.911   5.626  17.583  0.00  0.00    +0.000 A 
ATOM      8  C   UNL     1       3.979   4.576  16.650  0.00  0.00    +0.000 A 
ATOM      9  C   UNL     1       5.119   4.343  15.881  0.00  0.00    +0.000 A 
ATOM     10  C   UNL     1       6.237   5.161  16.028  0.00  0.00    +0.000 A 
ATOM     11 CL   UNL     1       7.630   4.796  15.077  0.00  0.00    +0.000 Cl
ATOM     12  C   UNL     1       6.197   6.225  16.935  0.00  0.00    +0.000 A 
ATOM     13 CL   UNL     1       7.548   7.275  17.183  0.00  0.00    +0.000 Cl
ATOM     14  C   UNL     1       5.039   6.457  17.694  0.00  0.00    +0.000 A 
ENDBRANCH   5   7
BRANCH   1  16
ATOM     15  C   UNL     1       2.209   2.588  21.620  0.00  0.00    +0.000 C 
ATOM     16  C   UNL     1       2.535   3.215  20.252  0.00  0.00    +0.000 C 
ATOM     17  C   UNL     1       2.709   2.052  19.261  0.00  0.00    +0.000 C 
ENDBRANCH   1  16
TORSDOF 2
ENDMDL
MODEL 4
REMARK VINA RESULT:      -6.7      3.352      5.439
REMARK  Name = 
REMARK  4 active torsions:
REMARK  status: ('A' for Active; 'I' for Inactive)
REMARK    1  A    between atoms: C_1  and  C_2
REMARK    2  A    between atoms: C_2  and  C_3
REMARK    3  A    between atoms: C_2  and  N_4
REMARK    4  A    between atoms: C_8  and  C_9
REMARK                            x       y       z     vdW  Elec       q    Type
REMARK                         _______ _______ _______ _____ _____    ______ ____
ROOT
ATOM      1  N   UNL     1       6.771   6.546  16.221  0.00  0.00    +0.000 NA
ATOM      2  C   UNL     1       7.342   5.220  15.876  0.00  0.00    +0.000 C 
ATOM      3  C   UNL     1       6.296   4.247  16.345  0.00  0.00    +0.000 C 
ATOM      4  C   UNL     1       5.239   3.786  15.397  0.00  0.00    +0.000 C 
ATOM      5  C   UNL     1       4.986   4.960  16.340  0.00  0.00    +0.000 C 
ATOM      6  C   UNL     1       5.317   6.383  15.926  0.00  0.00    +0.000 C 
ENDROOT
BRANCH   5   7
ATOM      7  C   UNL     1       3.846   4.786  17.313  0.00  0.00    +0.000 A 
ATOM      8  C   UNL     1       3.514   5.844  18.177  0.00  0.00    +0.000 A 
ATOM      9  C   UNL     1       2.534   5.715  19.161  0.00  0.00    +0.000 A 
ATOM     10  C   UNL     1       1.854   4.509  19.313  0.00  0.00    +0.000 A 
ATOM     11 CL   UNL     1       0.682   4.401  20.575  0.00  0.00    +0.000 Cl
ATOM     12  C   UNL     1       2.148   3.441  18.459  0.00  0.00    +0.000 A 
ATOM     13 CL   UNL     1       1.355   1.911  18.593  0.00  0.00    +0.000 Cl
ATOM     14  C   UNL     1       3.127   3.588  17.464  0.00  0.00    +0.000 A 
ENDBRANCH   5   7
BRANCH   1  16
ATOM     15  C   UNL     1       7.793   5.822  18.405  0.00  0.00    +0.000 C 
ATOM     16  C   UNL     1       7.035   6.920  17.636  0.00  0.00    +0.000 C 
ATOM     17  C   UNL     1       7.874   8.204  17.756  0.00  0.00    +0.000 C 
ENDBRANCH   1  16
TORSDOF 2
ENDMDL
MODEL 5
REMARK VINA RESULT:      -6.7      3.891      5.656
REMARK  Name = 
REMARK  4 active torsions:
REMARK  status: ('A' for Active; 'I' for Inactive)
REMARK    1  A    between atoms: C_1  and  C_2
REMARK    2  A    between atoms: C_2  and  C_3
REMARK    3  A    between atoms: C_2  and  N_4
REMARK    4  A    between atoms: C_8  and  C_9
REMARK                            x       y       z     vdW  Elec       q    Type
REMARK                         _______ _______ _______ _____ _____    ______ ____
ROOT
ATOM      1  N   UNL     1       6.490   6.533  16.314  0.00  0.00    +0.000 NA
ATOM      2  C   UNL     1       7.121   5.364  15.655  0.00  0.00    +0.000 C 
ATOM      3  C   UNL     1       6.282   4.201  16.107  0.00  0.00    +0.000 C 
ATOM      4  C   UNL     1       5.124   3.759  15.274  0.00  0.00    +0.000 C 
ATOM      5  C   UNL     1       4.927   4.728  16.437  0.00  0.00    +0.000 C 
ATOM      6  C   UNL     1       5.030   6.230  16.232  0.00  0.00    +0.000 C 
ENDROOT
BRANCH   5   7
ATOM      7  C   UNL     1       4.004   4.257  17.534  0.00  0.00    +0.000 A 
ATOM      8  C   UNL     1       2.680   4.729  17.565  0.00  0.00    +0.000 A 
ATOM      9  C   UNL     1       1.805   4.406  18.603  0.00  0.00    +0.000 A 
ATOM     10  C   UNL     1       2.236   3.596  19.651  0.00  0.00    +0.000 A 
ATOM     11 CL   UNL     1       1.118   3.267  20.924  0.00  0.00    +0.000 Cl
ATOM     12  C   UNL     1       3.542   3.096  19.641  0.00  0.00    +0.000 A 
ATOM     13 CL   UNL     1       4.153   2.095  20.911  0.00  0.00    +0.000 Cl
ATOM     14  C   UNL     1       4.408   3.417  18.585  0.00  0.00    +0.000 A 
ENDBRANCH   5   7
BRANCH   1  16
ATOM     15  C   UNL     1       7.756   5.498  18.229  0.00  0.00    +0.000 C 
ATOM     16  C   UNL     1       6.964   6.714  17.712  0.00  0.00    +0.000 C 
ATOM     17  C   UNL     1       7.883   7.938  17.866  0.00  0.00    +0.000 C 
ENDBRANCH   1  16
TORSDOF 2
ENDMDL
MODEL 6
REMARK VINA RESULT:      -6.7      4.019      4.673
REMARK  Name = 
REMARK  4 active torsions:
REMARK  status: ('A' for Active; 'I' for Inactive)
REMARK    1  A    between atoms: C_1  and  C_2
REMARK    2  A    between atoms: C_2  and  C_3
REMARK    3  A    between atoms: C_2  and  N_4
REMARK    4  A    between atoms: C_8  and  C_9
REMARK                            x       y       z     vdW  Elec       q    Type
REMARK                         _______ _______ _______ _____ _____    ______ ____
ROOT
ATOM      1  N   UNL     1       2.423   2.444  19.566  0.00  0.00    +0.000 NA
ATOM      2  C   UNL     1       1.513   2.599  18.404  0.00  0.00    +0.000 C 
ATOM      3  C   UNL     1       2.217   3.600  17.530  0.00  0.00    +0.000 C 
ATOM      4  C   UNL     1       3.138   3.123  16.456  0.00  0.00    +0.000 C 
ATOM      5  C   UNL     1       3.674   3.513  17.832  0.00  0.00    +0.000 C 
ATOM      6  C   UNL     1       3.782   2.491  18.950  0.00  0.00    +0.000 C 
ENDROOT
BRANCH   5   7
ATOM      7  C   UNL     1       4.674   4.643  17.850  0.00  0.00    +0.000 A 
ATOM      8  C   UNL     1       4.532   5.698  16.931  0.00  0.00    +0.000 A 
ATOM      9  C   UNL     1       5.473   6.724  16.833  0.00  0.00    +0.000 A 
ATOM     10  C   UNL     1       6.595   6.720  17.659  0.00  0.00    +0.000 A 
ATOM     11 CL   UNL     1       7.742   7.996  17.461  0.00  0.00    +0.000 Cl
ATOM     12  C   UNL     1       6.757   5.695  18.596  0.00  0.00    +0.000 A 
ATOM     13 CL   UNL     1       8.129   5.617  19.645  0.00  0.00    +0.000 Cl
ATOM     14  C   UNL     1       5.797   4.676  18.693  0.00  0.00    +0.000 A 
ENDBRANCH   5   7
BRANCH   1  16
ATOM     15  C   UNL     1       0.896   4.273  20.383  0.00  0.00    +0.000 C 
ATOM     16  C   UNL     1       2.215   3.506  20.587  0.00  0.00    +0.000 C 
ATOM     17  C   UNL     1       2.183   2.944  22.019  0.00  0.00    +0.000 C 
ENDBRANCH   1  16
TORSDOF 2
ENDMDL
MODEL 7
REMARK VINA RESULT:      -6.6      1.871      3.800
REMARK  Name = 
REMARK  4 active torsions:
REMARK  status: ('A' for Active; 'I' for Inactive)
REMARK    1  A    between atoms: C_1  and  C_2
REMARK    2  A    between atoms: C_2  and  C_3
REMARK    3  A    between atoms: C_2  and  N_4
REMARK    4  A    between atoms: C_8  and  C_9
REMARK                            x       y       z     vdW  Elec       q    Type
REMARK                         _______ _______ _______ _____ _____    ______ ____
ROOT
ATOM      1  N   UNL     1       6.017   5.649  16.970  0.00  0.00    +0.000 NA
ATOM      2  C   UNL     1       5.614   4.270  17.339  0.00  0.00    +0.000 C 
ATOM      3  C   UNL     1       4.342   4.464  18.118  0.00  0.00    +0.000 C 
ATOM      4  C   UNL     1       3.029   4.416  17.410  0.00  0.00    +0.000 C 
ATOM      5  C   UNL     1       3.732   5.747  17.666  0.00  0.00    +0.000 C 
ATOM      6  C   UNL     1       4.719   6.318  16.663  0.00  0.00    +0.000 C 
ENDROOT
BRANCH   5   7
ATOM      7  C   UNL     1       2.968   6.742  18.505  0.00  0.00    +0.000 A 
ATOM      8  C   UNL     1       2.574   6.382  19.806  0.00  0.00    +0.000 A 
ATOM      9  C   UNL     1       1.786   7.219  20.597  0.00  0.00    +0.000 A 
ATOM     10  C   UNL     1       1.364   8.450  20.102  0.00  0.00    +0.000 A 
ATOM     11 CL   UNL     1       0.359   9.421  21.116  0.00  0.00    +0.000 Cl
ATOM     12  C   UNL     1       1.753   8.846  18.819  0.00  0.00    +0.000 A 
ATOM     13 CL   UNL     1       1.258  10.354  18.131  0.00  0.00    +0.000 Cl
ATOM     14  C   UNL     1       2.556   8.001  18.037  0.00  0.00    +0.000 A 
ENDBRANCH   5   7
BRANCH   1  16
ATOM     15  C   UNL     1       7.833   5.410  18.698  0.00  0.00    +0.000 C 
ATOM     16  C   UNL     1       6.770   6.324  18.061  0.00  0.00    +0.000 C 
ATOM     17  C   UNL     1       7.505   7.584  17.573  0.00  0.00    +0.000 C 
ENDBRANCH   1  16
TORSDOF 2
ENDMDL
MODEL 8
REMARK VINA RESULT:      -6.5      0.917      1.784
REMARK  Name = 
REMARK  4 active torsions:
REMARK  status: ('A' for Active; 'I' for Inactive)
REMARK    1  A    between atoms: C_1  and  C_2
REMARK    2  A    between atoms: C_2  and  C_3
REMARK    3  A    between atoms: C_2  and  N_4
REMARK    4  A    between atoms: C_8  and  C_9
REMARK                            x       y       z     vdW  Elec       q    Type
REMARK                         _______ _______ _______ _____ _____    ______ ____
ROOT
ATOM      1  N   UNL     1       2.876   3.565  19.392  0.00  0.00    +0.000 NA
ATOM      2  C   UNL     1       3.065   3.705  17.927  0.00  0.00    +0.000 C 
ATOM      3  C   UNL     1       2.782   5.159  17.667  0.00  0.00    +0.000 C 
ATOM      4  C   UNL     1       3.906   6.142  17.677  0.00  0.00    +0.000 C 
ATOM      5  C   UNL     1       3.063   5.903  18.928  0.00  0.00    +0.000 C 
ATOM      6  C   UNL     1       3.445   4.833  19.936  0.00  0.00    +0.000 C 
ENDROOT
BRANCH   5   7
ATOM      7  C   UNL     1       2.328   7.106  19.463  0.00  0.00    +0.000 A 
ATOM      8  C   UNL     1       1.798   7.063  20.765  0.00  0.00    +0.000 A 
ATOM      9  C   UNL     1       1.029   8.104  21.285  0.00  0.00    +0.000 A 
ATOM     10  C   UNL     1       0.762   9.229  20.507  0.00  0.00    +0.000 A 
ATOM     11 CL   UNL     1      -0.229  10.464  21.194  0.00  0.00    +0.000 Cl
ATOM     12  C   UNL     1       1.289   9.312  19.214  0.00  0.00    +0.000 A 
ATOM     13 CL   UNL     1       0.992  10.669  18.185  0.00  0.00    +0.000 Cl
ATOM     14  C   UNL     1       2.072   8.263  18.707  0.00  0.00    +0.000 A 
ENDBRANCH   5   7
BRANCH   1  16
ATOM     15  C   UNL     1       0.746   2.329  18.864  0.00  0.00    +0.000 C 
ATOM     16  C   UNL     1       1.447   3.369  19.757  0.00  0.00    +0.000 C 
ATOM     17  C   UNL     1       1.274   2.893  21.210  0.00  0.00    +0.000 C 
ENDBRANCH   1  16
TORSDOF 2
ENDMDL
MODEL 9
REMARK VINA RESULT:      -6.4      3.107      5.397
REMARK  Name = 
REMARK  4 active torsions:
REMARK  status: ('A' for Active; 'I' for Inactive)
REMARK    1  A    between atoms: C_1  and  C_2
REMARK    2  A    between atoms: C_2  and  C_3
REMARK    3  A    between atoms: C_2  and  N_4
REMARK    4  A    between atoms: C_8  and  C_9
REMARK                            x       y       z     vdW  Elec       q    Type
REMARK                         _______ _______ _______ _____ _____    ______ ____
ROOT
ATOM      1  N   UNL     1       6.473   6.633  16.358  0.00  0.00    +0.000 NA
ATOM      2  C   UNL     1       7.105   5.418  15.786  0.00  0.00    +0.000 C 
ATOM      3  C   UNL     1       6.284   4.290  16.345  0.00  0.00    +0.000 C 
ATOM      4  C   UNL     1       5.119   3.771  15.570  0.00  0.00    +0.000 C 
ATOM      5  C   UNL     1       4.930   4.831  16.653  0.00  0.00    +0.000 C 
ATOM      6  C   UNL     1       5.015   6.311  16.325  0.00  0.00    +0.000 C 
ENDROOT
BRANCH   5   7
ATOM      7  C   UNL     1       4.029   4.443  17.799  0.00  0.00    +0.000 A 
ATOM      8  C   UNL     1       3.733   3.084  18.010  0.00  0.00    +0.000 A 
ATOM      9  C   UNL     1       2.835   2.667  18.993  0.00  0.00    +0.000 A 
ATOM     10  C   UNL     1       2.198   3.609  19.798  0.00  0.00    +0.000 A 
ATOM     11 CL   UNL     1       1.067   3.031  20.968  0.00  0.00    +0.000 Cl
ATOM     12  C   UNL     1       2.482   4.967  19.627  0.00  0.00    +0.000 A 
ATOM     13 CL   UNL     1       1.722   6.194  20.579  0.00  0.00    +0.000 Cl
ATOM     14  C   UNL     1       3.398   5.373  18.643  0.00  0.00    +0.000 A 
ENDBRANCH   5   7
BRANCH   1  16
ATOM     15  C   UNL     1       7.766   5.763  18.335  0.00  0.00    +0.000 C 
ATOM     16  C   UNL     1       6.967   6.931  17.729  0.00  0.00    +0.000 C 
ATOM     17  C   UNL     1       7.888   8.163  17.764  0.00  0.00    +0.000 C 
ENDBRANCH   1  16
TORSDOF 2
ENDMDL
