MODEL 1
REMARK VINA RESULT:      -8.4      0.000      0.000
REMARK  Name = 
REMARK  7 active torsions:
REMARK  status: ('A' for Active; 'I' for Inactive)
REMARK    1  A    between atoms: C_1  and  C_2
REMARK    2  A    between atoms: C_2  and  O_3
REMARK    3  A    between atoms: C_2  and  C_19
REMARK    4  A    between atoms: O_3  and  C_4
REMARK    5  A    between atoms: N_21  and  C_22
REMARK    6  A    between atoms: C_22  and  C_23
REMARK    7  A    between atoms: C_23  and  N_24
REMARK                            x       y       z     vdW  Elec       q    Type
REMARK                         _______ _______ _______ _____ _____    ______ ____
ROOT
ATOM      1  O   UNL     1       0.682   8.584  20.396  0.00  0.00    +0.000 OA
ENDROOT
BRANCH   1   2
ATOM      2  C   UNL     1       1.700   7.988  19.695  0.00  0.00    +0.000 A 
ATOM      3  C   UNL     1       2.285   6.780  20.085  0.00  0.00    +0.000 A 
ATOM      4  C   UNL     1       3.233   6.177  19.270  0.00  0.00    +0.000 A 
ATOM      5  O   UNL     1       3.823   4.982  19.756  0.00  0.00    +0.000 OA
ATOM      6  C   UNL     1       4.835   4.332  19.057  0.00  0.00    +0.000 A 
ATOM      7  O   UNL     1       5.417   3.349  19.508  0.00  0.00    +0.000 OA
ATOM      8  C   UNL     1       5.143   4.890  17.738  0.00  0.00    +0.000 A 
ATOM      9  C   UNL     1       4.558   5.989  17.257  0.00  0.00    +0.000 A 
ATOM     10  C   UNL     1       3.602   6.723  18.047  0.00  0.00    +0.000 A 
ATOM     11  C   UNL     1       3.050   7.943  17.661  0.00  0.00    +0.000 A 
ATOM     12  C   UNL     1       2.117   8.580  18.496  0.00  0.00    +0.000 A 
ATOM     13 CL   UNL     1       1.560  10.150  18.030  0.00  0.00    +0.000 Cl
ATOM     14  C   UNL     1       5.017   6.325  15.885  0.00  0.00    +0.000 C 
ATOM     15  C   UNL     1       6.042   5.230  15.573  0.00  0.00    +0.000 C 
ATOM     16  C   UNL     1       6.130   4.303  16.797  0.00  0.00    +0.000 C 
ENDBRANCH   1   2
BRANCH   1  18
ATOM     17  C   UNL     1       0.601   9.240  22.765  0.00  0.00    +0.000 C 
ATOM     18  C   UNL     1       1.065   9.588  21.351  0.00  0.00    +0.000 C 
BRANCH  18  19
ATOM     19  C   UNL     1       0.394  10.906  20.972  0.00  0.00    +0.000 C 
ATOM     20  O   UNL     1       0.851  11.984  21.357  0.00  0.00    +0.000 OA
ATOM     21  N   UNL     1      -0.786  10.809  20.276  0.00  0.00    +0.000 N 
ATOM     22  H   UNL     1      -0.989   9.922  19.830  0.00  0.00    +0.000 HD
BRANCH  21  23
ATOM     23  C   UNL     1      -1.476  12.018  19.857  0.00  0.00    +0.000 C 
BRANCH  23  24
ATOM     24  C   UNL     1      -2.072  11.901  18.444  0.00  0.00    +0.000 C 
BRANCH  24  25
ATOM     25  N   UNL     1      -2.781  10.638  18.166  0.00  0.00    +0.000 NA
ATOM     26  C   UNL     1      -2.266  10.020  16.920  0.00  0.00    +0.000 C 
ATOM     27  C   UNL     1      -2.687  10.768  15.641  0.00  0.00    +0.000 C 
ATOM     28  O   UNL     1      -4.111  10.918  15.557  0.00  0.00    +0.000 OA
ATOM     29  C   UNL     1      -4.640  11.555  16.729  0.00  0.00    +0.000 C 
ATOM     30  C   UNL     1      -4.246  10.790  18.004  0.00  0.00    +0.000 C 
ENDBRANCH  24  25
ENDBRANCH  23  24
ENDBRANCH  21  23
ENDBRANCH  18  19
ENDBRANCH   1  18
TORSDOF 6
ENDMDL
MODEL 2
REMARK VINA RESULT:      -8.3      3.642      8.494
REMARK  Name = 
REMARK  7 active torsions:
REMARK  status: ('A' for Active; 'I' for Inactive)
REMARK    1  A    between atoms: C_1  and  C_2
REMARK    2  A    between atoms: C_2  and  O_3
REMARK    3  A    between atoms: C_2  and  C_19
REMARK    4  A    between atoms: O_3  and  C_4
REMARK    5  A    between atoms: N_21  and  C_22
REMARK    6  A    between atoms: C_22  and  C_23
REMARK    7  A    between atoms: C_23  and  N_24
REMARK                            x       y       z     vdW  Elec       q    Type
REMARK                         _______ _______ _______ _____ _____    ______ ____
ROOT
ATOM      1  O   UNL     1       2.595   6.553  20.009  0.00  0.00    +0.000 OA
ENDROOT
BRANCH   1   2
ATOM      2  C   UNL     1       1.859   7.710  20.037  0.00  0.00    +0.000 A 
ATOM      3  C   UNL     1       1.161   8.138  21.169  0.00  0.00    +0.000 A 
ATOM      4  C   UNL     1       0.528   9.374  21.165  0.00  0.00    +0.000 A 
ATOM      5  O   UNL     1      -0.207   9.718  22.328  0.00  0.00    +0.000 OA
ATOM      6  C   UNL     1      -0.939  10.899  22.406  0.00  0.00    +0.000 A 
ATOM      7  O   UNL     1      -1.652  11.166  23.370  0.00  0.00    +0.000 OA
ATOM      8  C   UNL     1      -0.784  11.808  21.269  0.00  0.00    +0.000 A 
ATOM      9  C   UNL     1      -0.056  11.508  20.190  0.00  0.00    +0.000 A 
ATOM     10  C   UNL     1       0.594  10.227  20.070  0.00  0.00    +0.000 A 
ATOM     11  C   UNL     1       1.261   9.800  18.924  0.00  0.00    +0.000 A 
ATOM     12  C   UNL     1       1.872   8.535  18.905  0.00  0.00    +0.000 A 
ATOM     13 CL   UNL     1       2.575   8.003  17.416  0.00  0.00    +0.000 Cl
ATOM     14  C   UNL     1      -0.029  12.611  19.196  0.00  0.00    +0.000 C 
ATOM     15  C   UNL     1      -0.907  13.690  19.837  0.00  0.00    +0.000 C 
ATOM     16  C   UNL     1      -1.410  13.151  21.186  0.00  0.00    +0.000 C 
ENDBRANCH   1   2
BRANCH   1  18
ATOM     17  C   UNL     1       2.203   4.399  21.129  0.00  0.00    +0.000 C 
ATOM     18  C   UNL     1       1.851   5.323  19.964  0.00  0.00    +0.000 C 
BRANCH  18  19
ATOM     19  C   UNL     1       2.210   4.580  18.680  0.00  0.00    +0.000 C 
ATOM     20  O   UNL     1       1.456   4.597  17.705  0.00  0.00    +0.000 OA
ATOM     21  N   UNL     1       3.353   3.818  18.718  0.00  0.00    +0.000 N 
ATOM     22  H   UNL     1       4.011   4.009  19.464  0.00  0.00    +0.000 HD
BRANCH  21  23
ATOM     23  C   UNL     1       3.777   3.097  17.528  0.00  0.00    +0.000 C 
BRANCH  23  24
ATOM     24  C   UNL     1       5.070   3.666  16.920  0.00  0.00    +0.000 C 
BRANCH  24  25
ATOM     25  N   UNL     1       4.925   4.973  16.252  0.00  0.00    +0.000 NA
ATOM     26  C   UNL     1       5.510   4.922  14.889  0.00  0.00    +0.000 C 
ATOM     27  C   UNL     1       7.049   4.866  14.880  0.00  0.00    +0.000 C 
ATOM     28  O   UNL     1       7.625   5.954  15.617  0.00  0.00    +0.000 OA
ATOM     29  C   UNL     1       7.116   6.005  16.957  0.00  0.00    +0.000 C 
ATOM     30  C   UNL     1       5.580   6.094  16.965  0.00  0.00    +0.000 C 
ENDBRANCH  24  25
ENDBRANCH  23  24
ENDBRANCH  21  23
ENDBRANCH  18  19
ENDBRANCH   1  18
TORSDOF 6
ENDMDL
MODEL 3
REMARK VINA RESULT:      -8.2      6.120      9.039
REMARK  Name = 
REMARK  7 active torsions:
REMARK  status: ('A' for Active; 'I' for Inactive)
REMARK    1  A    between atoms: C_1  and  C_2
REMARK    2  A    between atoms: C_2  and  O_3
REMARK    3  A    between atoms: C_2  and  C_19
REMARK    4  A    between atoms: O_3  and  C_4
REMARK    5  A    between atoms: N_21  and  C_22
REMARK    6  A    between atoms: C_22  and  C_23
REMARK    7  A    between atoms: C_23  and  N_24
REMARK                            x       y       z     vdW  Elec       q    Type
REMARK                         _______ _______ _______ _____ _____    ______ ____
ROOT
ATOM      1  O   UNL     1       6.726   7.100  16.702  0.00  0.00    +0.000 OA
ENDROOT
BRANCH   1   2
ATOM      2  C   UNL     1       5.766   6.263  17.214  0.00  0.00    +0.000 A 
ATOM      3  C   UNL     1       4.839   6.671  18.176  0.00  0.00    +0.000 A 
ATOM      4  C   UNL     1       3.825   5.808  18.568  0.00  0.00    +0.000 A 
ATOM      5  O   UNL     1       2.954   6.269  19.589  0.00  0.00    +0.000 OA
ATOM      6  C   UNL     1       1.948   5.462  20.110  0.00  0.00    +0.000 A 
ATOM      7  O   UNL     1       1.247   5.814  21.054  0.00  0.00    +0.000 OA
ATOM      8  C   UNL     1       1.771   4.172  19.440  0.00  0.00    +0.000 A 
ATOM      9  C   UNL     1       2.560   3.751  18.447  0.00  0.00    +0.000 A 
ATOM     10  C   UNL     1       3.677   4.547  18.004  0.00  0.00    +0.000 A 
ATOM     11  C   UNL     1       4.613   4.116  17.066  0.00  0.00    +0.000 A 
ATOM     12  C   UNL     1       5.665   4.968  16.691  0.00  0.00    +0.000 A 
ATOM     13 CL   UNL     1       6.868   4.337  15.620  0.00  0.00    +0.000 Cl
ATOM     14  C   UNL     1       2.149   2.427  17.914  0.00  0.00    +0.000 C 
ATOM     15  C   UNL     1       0.938   2.056  18.777  0.00  0.00    +0.000 C 
ATOM     16  C   UNL     1       0.707   3.195  19.783  0.00  0.00    +0.000 C 
ENDBRANCH   1   2
BRANCH   1  18
ATOM     17  C   UNL     1       7.902   6.380  18.738  0.00  0.00    +0.000 C 
ATOM     18  C   UNL     1       7.924   7.250  17.483  0.00  0.00    +0.000 C 
BRANCH  18  19
ATOM     19  C   UNL     1       8.027   8.701  17.947  0.00  0.00    +0.000 C 
ATOM     20  O   UNL     1       7.320   9.579  17.447  0.00  0.00    +0.000 OA
ATOM     21  N   UNL     1       9.012   8.977  18.864  0.00  0.00    +0.000 N 
ATOM     22  H   UNL     1       9.409   8.193  19.368  0.00  0.00    +0.000 HD
BRANCH  21  23
ATOM     23  C   UNL     1       9.161  10.331  19.374  0.00  0.00    +0.000 C 
BRANCH  23  24
ATOM     24  C   UNL     1      10.016  11.219  18.454  0.00  0.00    +0.000 C 
BRANCH  24  25
ATOM     25  N   UNL     1      10.832  12.234  19.145  0.00  0.00    +0.000 NA
ATOM     26  C   UNL     1      10.095  13.519  19.229  0.00  0.00    +0.000 C 
ATOM     27  C   UNL     1       9.975  14.250  17.878  0.00  0.00    +0.000 C 
ATOM     28  O   UNL     1      11.258  14.463  17.273  0.00  0.00    +0.000 OA
ATOM     29  C   UNL     1      11.981  13.232  17.134  0.00  0.00    +0.000 C 
ATOM     30  C   UNL     1      12.129  12.518  18.489  0.00  0.00    +0.000 C 
ENDBRANCH  24  25
ENDBRANCH  23  24
ENDBRANCH  21  23
ENDBRANCH  18  19
ENDBRANCH   1  18
TORSDOF 6
ENDMDL
MODEL 4
REMARK VINA RESULT:      -8.0      3.165      3.952
REMARK  Name = 
REMARK  7 active torsions:
REMARK  status: ('A' for Active; 'I' for Inactive)
REMARK    1  A    between atoms: C_1  and  C_2
REMARK    2  A    between atoms: C_2  and  O_3
REMARK    3  A    between atoms: C_2  and  C_19
REMARK    4  A    between atoms: O_3  and  C_4
REMARK    5  A    between atoms: N_21  and  C_22
REMARK    6  A    between atoms: C_22  and  C_23
REMARK    7  A    between atoms: C_23  and  N_24
REMARK                            x       y       z     vdW  Elec       q    Type
REMARK                         _______ _______ _______ _____ _____    ______ ____
ROOT
ATOM      1  O   UNL     1       1.310   9.378  20.425  0.00  0.00    +0.000 OA
ENDROOT
BRANCH   1   2
ATOM      2  C   UNL     1       1.708   8.117  20.062  0.00  0.00    +0.000 A 
ATOM      3  C   UNL     1       1.713   7.037  20.949  0.00  0.00    +0.000 A 
ATOM      4  C   UNL     1       2.020   5.765  20.487  0.00  0.00    +0.000 A 
ATOM      5  O   UNL     1       2.059   4.728  21.455  0.00  0.00    +0.000 OA
ATOM      6  C   UNL     1       2.427   3.429  21.117  0.00  0.00    +0.000 A 
ATOM      7  O   UNL     1       2.552   2.543  21.959  0.00  0.00    +0.000 OA
ATOM      8  C   UNL     1       2.632   3.188  19.688  0.00  0.00    +0.000 A 
ATOM      9  C   UNL     1       2.552   4.151  18.767  0.00  0.00    +0.000 A 
ATOM     10  C   UNL     1       2.294   5.517  19.148  0.00  0.00    +0.000 A 
ATOM     11  C   UNL     1       2.323   6.590  18.259  0.00  0.00    +0.000 A 
ATOM     12  C   UNL     1       2.051   7.887  18.723  0.00  0.00    +0.000 A 
ATOM     13 CL   UNL     1       2.225   9.196  17.606  0.00  0.00    +0.000 Cl
ATOM     14  C   UNL     1       2.765   3.642  17.388  0.00  0.00    +0.000 C 
ATOM     15  C   UNL     1       3.022   2.146  17.596  0.00  0.00    +0.000 C 
ATOM     16  C   UNL     1       2.949   1.859  19.105  0.00  0.00    +0.000 C 
ENDBRANCH   1   2
BRANCH   1  18
ATOM     17  C   UNL     1      -0.751  10.315  19.466  0.00  0.00    +0.000 C 
ATOM     18  C   UNL     1      -0.101   9.569  20.630  0.00  0.00    +0.000 C 
BRANCH  18  19
ATOM     19  C   UNL     1      -0.303  10.425  21.878  0.00  0.00    +0.000 C 
ATOM     20  O   UNL     1       0.401  10.266  22.877  0.00  0.00    +0.000 OA
ATOM     21  N   UNL     1      -1.368  11.293  21.854  0.00  0.00    +0.000 N 
ATOM     22  H   UNL     1      -1.768  11.510  20.948  0.00  0.00    +0.000 HD
BRANCH  21  23
ATOM     23  C   UNL     1      -1.616  12.160  22.995  0.00  0.00    +0.000 C 
BRANCH  23  24
ATOM     24  C   UNL     1      -2.801  13.113  22.768  0.00  0.00    +0.000 C 
BRANCH  24  25
ATOM     25  N   UNL     1      -4.133  12.483  22.833  0.00  0.00    +0.000 NA
ATOM     26  C   UNL     1      -4.829  12.613  21.529  0.00  0.00    +0.000 C 
ATOM     27  C   UNL     1      -5.304  14.046  21.224  0.00  0.00    +0.000 C 
ATOM     28  O   UNL     1      -6.133  14.566  22.272  0.00  0.00    +0.000 OA
ATOM     29  C   UNL     1      -5.472  14.499  23.543  0.00  0.00    +0.000 C 
ATOM     30  C   UNL     1      -5.026  13.061  23.863  0.00  0.00    +0.000 C 
ENDBRANCH  24  25
ENDBRANCH  23  24
ENDBRANCH  21  23
ENDBRANCH  18  19
ENDBRANCH   1  18
TORSDOF 6
ENDMDL
MODEL 5
REMARK VINA RESULT:      -8.0      3.390      4.460
REMARK  Name = 
REMARK  7 active torsions:
REMARK  status: ('A' for Active; 'I' for Inactive)
REMARK    1  A    between atoms: C_1  and  C_2
REMARK    2  A    between atoms: C_2  and  O_3
REMARK    3  A    between atoms: C_2  and  C_19
REMARK    4  A    between atoms: O_3  and  C_4
REMARK    5  A    between atoms: N_21  and  C_22
REMARK    6  A    between atoms: C_22  and  C_23
REMARK    7  A    between atoms: C_23  and  N_24
REMARK                            x       y       z     vdW  Elec       q    Type
REMARK                         _______ _______ _______ _____ _____    ______ ____
ROOT
ATOM      1  O   UNL     1       1.302   9.383  20.364  0.00  0.00    +0.000 OA
ENDROOT
BRANCH   1   2
ATOM      2  C   UNL     1       1.706   8.119  20.016  0.00  0.00    +0.000 A 
ATOM      3  C   UNL     1       1.648   7.035  20.896  0.00  0.00    +0.000 A 
ATOM      4  C   UNL     1       1.967   5.761  20.445  0.00  0.00    +0.000 A 
ATOM      5  O   UNL     1       1.939   4.719  21.407  0.00  0.00    +0.000 OA
ATOM      6  C   UNL     1       2.311   3.418  21.083  0.00  0.00    +0.000 A 
ATOM      7  O   UNL     1       2.378   2.526  21.925  0.00  0.00    +0.000 OA
ATOM      8  C   UNL     1       2.595   3.182  19.666  0.00  0.00    +0.000 A 
ATOM      9  C   UNL     1       2.579   4.151  18.748  0.00  0.00    +0.000 A 
ATOM     10  C   UNL     1       2.315   5.518  19.122  0.00  0.00    +0.000 A 
ATOM     11  C   UNL     1       2.407   6.595  18.243  0.00  0.00    +0.000 A 
ATOM     12  C   UNL     1       2.123   7.893  18.698  0.00  0.00    +0.000 A 
ATOM     13 CL   UNL     1       2.376   9.206  17.600  0.00  0.00    +0.000 Cl
ATOM     14  C   UNL     1       2.865   3.647  17.381  0.00  0.00    +0.000 C 
ATOM     15  C   UNL     1       3.094   2.147  17.595  0.00  0.00    +0.000 C 
ATOM     16  C   UNL     1       2.931   1.853  19.095  0.00  0.00    +0.000 C 
ENDBRANCH   1   2
BRANCH   1  18
ATOM     17  C   UNL     1      -0.657  10.310  19.201  0.00  0.00    +0.000 C 
ATOM     18  C   UNL     1      -0.118   9.601  20.443  0.00  0.00    +0.000 C 
BRANCH  18  19
ATOM     19  C   UNL     1      -0.408  10.507  21.636  0.00  0.00    +0.000 C 
ATOM     20  O   UNL     1       0.105  10.292  22.737  0.00  0.00    +0.000 OA
ATOM     21  N   UNL     1      -1.342  11.496  21.436  0.00  0.00    +0.000 N 
ATOM     22  H   UNL     1      -1.564  11.735  20.477  0.00  0.00    +0.000 HD
BRANCH  21  23
ATOM     23  C   UNL     1      -1.658  12.415  22.517  0.00  0.00    +0.000 C 
BRANCH  23  24
ATOM     24  C   UNL     1      -3.135  12.346  22.940  0.00  0.00    +0.000 C 
BRANCH  24  25
ATOM     25  N   UNL     1      -3.453  13.010  24.218  0.00  0.00    +0.000 NA
ATOM     26  C   UNL     1      -4.702  12.451  24.793  0.00  0.00    +0.000 C 
ATOM     27  C   UNL     1      -5.973  12.871  24.032  0.00  0.00    +0.000 C 
ATOM     28  O   UNL     1      -6.082  14.298  23.926  0.00  0.00    +0.000 OA
ATOM     29  C   UNL     1      -4.908  14.868  23.330  0.00  0.00    +0.000 C 
ATOM     30  C   UNL     1      -3.641  14.474  24.109  0.00  0.00    +0.000 C 
ENDBRANCH  24  25
ENDBRANCH  23  24
ENDBRANCH  21  23
ENDBRANCH  18  19
ENDBRANCH   1  18
TORSDOF 6
ENDMDL
MODEL 6
REMARK VINA RESULT:      -7.8      4.680      8.990
REMARK  Name = 
REMARK  7 active torsions:
REMARK  status: ('A' for Active; 'I' for Inactive)
REMARK    1  A    between atoms: C_1  and  C_2
REMARK    2  A    between atoms: C_2  and  O_3
REMARK    3  A    between atoms: C_2  and  C_19
REMARK    4  A    between atoms: O_3  and  C_4
REMARK    5  A    between atoms: N_21  and  C_22
REMARK    6  A    between atoms: C_22  and  C_23
REMARK    7  A    between atoms: C_23  and  N_24
REMARK                            x       y       z     vdW  Elec       q    Type
REMARK                         _______ _______ _______ _____ _____    ______ ____
ROOT
ATOM      1  O   UNL     1       4.023   5.981  17.193  0.00  0.00    +0.000 OA
ENDROOT
BRANCH   1   2
ATOM      2  C   UNL     1       3.326   6.808  18.037  0.00  0.00    +0.000 A 
ATOM      3  C   UNL     1       2.888   8.081  17.662  0.00  0.00    +0.000 A 
ATOM      4  C   UNL     1       2.092   8.821  18.526  0.00  0.00    +0.000 A 
ATOM      5  O   UNL     1       1.732  10.126  18.101  0.00  0.00    +0.000 OA
ATOM      6  C   UNL     1       0.998  10.982  18.916  0.00  0.00    +0.000 A 
ATOM      7  O   UNL     1       0.757  12.143  18.599  0.00  0.00    +0.000 OA
ATOM      8  C   UNL     1       0.515  10.394  20.167  0.00  0.00    +0.000 A 
ATOM      9  C   UNL     1       0.814   9.150  20.551  0.00  0.00    +0.000 A 
ATOM     10  C   UNL     1       1.680   8.319  19.754  0.00  0.00    +0.000 A 
ATOM     11  C   UNL     1       2.135   7.064  20.153  0.00  0.00    +0.000 A 
ATOM     12  C   UNL     1       2.972   6.323  19.303  0.00  0.00    +0.000 A 
ATOM     13 CL   UNL     1       3.609   4.830  19.900  0.00  0.00    +0.000 Cl
ATOM     14  C   UNL     1       0.173   8.781  21.839  0.00  0.00    +0.000 C 
ATOM     15  C   UNL     1      -0.592  10.049  22.233  0.00  0.00    +0.000 C 
ATOM     16  C   UNL     1      -0.351  11.105  21.141  0.00  0.00    +0.000 C 
ENDBRANCH   1   2
BRANCH   1  18
ATOM     17  C   UNL     1       5.517   5.696  15.262  0.00  0.00    +0.000 C 
ATOM     18  C   UNL     1       5.060   6.595  16.410  0.00  0.00    +0.000 C 
BRANCH  18  19
ATOM     19  C   UNL     1       6.275   6.830  17.304  0.00  0.00    +0.000 C 
ATOM     20  O   UNL     1       6.571   6.032  18.196  0.00  0.00    +0.000 OA
ATOM     21  N   UNL     1       6.942   8.017  17.123  0.00  0.00    +0.000 N 
ATOM     22  H   UNL     1       6.771   8.517  16.259  0.00  0.00    +0.000 HD
BRANCH  21  23
ATOM     23  C   UNL     1       8.123   8.307  17.920  0.00  0.00    +0.000 C 
BRANCH  23  24
ATOM     24  C   UNL     1       8.282   9.808  18.218  0.00  0.00    +0.000 C 
BRANCH  24  25
ATOM     25  N   UNL     1       9.622  10.216  18.682  0.00  0.00    +0.000 NA
ATOM     26  C   UNL     1       9.543  10.780  20.052  0.00  0.00    +0.000 C 
ATOM     27  C   UNL     1       8.884  12.171  20.108  0.00  0.00    +0.000 C 
ATOM     28  O   UNL     1       9.534  13.104  19.234  0.00  0.00    +0.000 OA
ATOM     29  C   UNL     1       9.587  12.609  17.888  0.00  0.00    +0.000 C 
ATOM     30  C   UNL     1      10.274  11.234  17.828  0.00  0.00    +0.000 C 
ENDBRANCH  24  25
ENDBRANCH  23  24
ENDBRANCH  21  23
ENDBRANCH  18  19
ENDBRANCH   1  18
TORSDOF 6
ENDMDL
MODEL 7
REMARK VINA RESULT:      -7.8      3.785      8.304
REMARK  Name = 
REMARK  7 active torsions:
REMARK  status: ('A' for Active; 'I' for Inactive)
REMARK    1  A    between atoms: C_1  and  C_2
REMARK    2  A    between atoms: C_2  and  O_3
REMARK    3  A    between atoms: C_2  and  C_19
REMARK    4  A    between atoms: O_3  and  C_4
REMARK    5  A    between atoms: N_21  and  C_22
REMARK    6  A    between atoms: C_22  and  C_23
REMARK    7  A    between atoms: C_23  and  N_24
REMARK                            x       y       z     vdW  Elec       q    Type
REMARK                         _______ _______ _______ _____ _____    ______ ____
ROOT
ATOM      1  O   UNL     1       2.327   5.621  20.473  0.00  0.00    +0.000 OA
ENDROOT
BRANCH   1   2
ATOM      2  C   UNL     1       1.775   6.875  20.408  0.00  0.00    +0.000 A 
ATOM      3  C   UNL     1       1.031   7.432  21.451  0.00  0.00    +0.000 A 
ATOM      4  C   UNL     1       0.596   8.748  21.364  0.00  0.00    +0.000 A 
ATOM      5  O   UNL     1      -0.201   9.228  22.435  0.00  0.00    +0.000 OA
ATOM      6  C   UNL     1      -0.750  10.506  22.419  0.00  0.00    +0.000 A 
ATOM      7  O   UNL     1      -1.514  10.902  23.295  0.00  0.00    +0.000 OA
ATOM      8  C   UNL     1      -0.336  11.352  21.297  0.00  0.00    +0.000 A 
ATOM      9  C   UNL     1       0.451  10.919  20.309  0.00  0.00    +0.000 A 
ATOM     10  C   UNL     1       0.909   9.553  20.275  0.00  0.00    +0.000 A 
ATOM     11  C   UNL     1       1.624   9.000  19.215  0.00  0.00    +0.000 A 
ATOM     12  C   UNL     1       2.035   7.659  19.276  0.00  0.00    +0.000 A 
ATOM     13 CL   UNL     1       2.807   6.988  17.880  0.00  0.00    +0.000 Cl
ATOM     14  C   UNL     1       0.752  11.979  19.314  0.00  0.00    +0.000 C 
ATOM     15  C   UNL     1      -0.018  13.193  19.842  0.00  0.00    +0.000 C 
ATOM     16  C   UNL     1      -0.740  12.771  21.132  0.00  0.00    +0.000 C 
ENDBRANCH   1   2
BRANCH   1  18
ATOM     17  C   UNL     1       1.432   3.480  21.288  0.00  0.00    +0.000 C 
ATOM     18  C   UNL     1       1.451   4.521  20.170  0.00  0.00    +0.000 C 
BRANCH  18  19
ATOM     19  C   UNL     1       1.963   3.819  18.914  0.00  0.00    +0.000 C 
ATOM     20  O   UNL     1       1.190   3.486  18.013  0.00  0.00    +0.000 OA
ATOM     21  N   UNL     1       3.298   3.496  18.900  0.00  0.00    +0.000 N 
ATOM     22  H   UNL     1       3.896   3.970  19.567  0.00  0.00    +0.000 HD
BRANCH  21  23
ATOM     23  C   UNL     1       3.869   2.847  17.731  0.00  0.00    +0.000 C 
BRANCH  23  24
ATOM     24  C   UNL     1       4.134   3.830  16.579  0.00  0.00    +0.000 C 
BRANCH  24  25
ATOM     25  N   UNL     1       5.547   3.951  16.171  0.00  0.00    +0.000 NA
ATOM     26  C   UNL     1       6.367   4.461  17.297  0.00  0.00    +0.000 C 
ATOM     27  C   UNL     1       6.125   5.950  17.611  0.00  0.00    +0.000 C 
ATOM     28  O   UNL     1       6.319   6.775  16.454  0.00  0.00    +0.000 OA
ATOM     29  C   UNL     1       5.505   6.337  15.357  0.00  0.00    +0.000 C 
ATOM     30  C   UNL     1       5.770   4.859  15.023  0.00  0.00    +0.000 C 
ENDBRANCH  24  25
ENDBRANCH  23  24
ENDBRANCH  21  23
ENDBRANCH  18  19
ENDBRANCH   1  18
TORSDOF 6
ENDMDL
MODEL 8
REMARK VINA RESULT:      -7.7      3.257      4.731
REMARK  Name = 
REMARK  7 active torsions:
REMARK  status: ('A' for Active; 'I' for Inactive)
REMARK    1  A    between atoms: C_1  and  C_2
REMARK    2  A    between atoms: C_2  and  O_3
REMARK    3  A    between atoms: C_2  and  C_19
REMARK    4  A    between atoms: O_3  and  C_4
REMARK    5  A    between atoms: N_21  and  C_22
REMARK    6  A    between atoms: C_22  and  C_23
REMARK    7  A    between atoms: C_23  and  N_24
REMARK                            x       y       z     vdW  Elec       q    Type
REMARK                         _______ _______ _______ _____ _____    ______ ____
ROOT
ATOM      1  O   UNL     1       1.299   9.409  20.441  0.00  0.00    +0.000 OA
ENDROOT
BRANCH   1   2
ATOM      2  C   UNL     1       1.705   8.151  20.074  0.00  0.00    +0.000 A 
ATOM      3  C   UNL     1       1.714   7.069  20.958  0.00  0.00    +0.000 A 
ATOM      4  C   UNL     1       2.030   5.799  20.493  0.00  0.00    +0.000 A 
ATOM      5  O   UNL     1       2.072   4.760  21.458  0.00  0.00    +0.000 OA
ATOM      6  C   UNL     1       2.448   3.464  21.118  0.00  0.00    +0.000 A 
ATOM      7  O   UNL     1       2.577   2.577  21.957  0.00  0.00    +0.000 OA
ATOM      8  C   UNL     1       2.657   3.228  19.688  0.00  0.00    +0.000 A 
ATOM      9  C   UNL     1       2.574   4.194  18.769  0.00  0.00    +0.000 A 
ATOM     10  C   UNL     1       2.308   5.558  19.154  0.00  0.00    +0.000 A 
ATOM     11  C   UNL     1       2.333   6.633  18.268  0.00  0.00    +0.000 A 
ATOM     12  C   UNL     1       2.052   7.927  18.736  0.00  0.00    +0.000 A 
ATOM     13 CL   UNL     1       2.221   9.240  17.622  0.00  0.00    +0.000 Cl
ATOM     14  C   UNL     1       2.792   3.690  17.389  0.00  0.00    +0.000 C 
ATOM     15  C   UNL     1       3.058   2.195  17.594  0.00  0.00    +0.000 C 
ATOM     16  C   UNL     1       2.983   1.903  19.102  0.00  0.00    +0.000 C 
ENDBRANCH   1   2
BRANCH   1  18
ATOM     17  C   UNL     1      -0.813  10.376  19.632  0.00  0.00    +0.000 C 
ATOM     18  C   UNL     1      -0.102   9.573  20.720  0.00  0.00    +0.000 C 
BRANCH  18  19
ATOM     19  C   UNL     1      -0.254  10.354  22.023  0.00  0.00    +0.000 C 
ATOM     20  O   UNL     1       0.404  10.056  23.022  0.00  0.00    +0.000 OA
ATOM     21  N   UNL     1      -1.229  11.322  22.041  0.00  0.00    +0.000 N 
ATOM     22  H   UNL     1      -1.581  11.641  21.146  0.00  0.00    +0.000 HD
BRANCH  21  23
ATOM     23  C   UNL     1      -1.421  12.126  23.237  0.00  0.00    +0.000 C 
BRANCH  23  24
ATOM     24  C   UNL     1      -1.330  13.636  22.957  0.00  0.00    +0.000 C 
BRANCH  24  25
ATOM     25  N   UNL     1      -2.625  14.336  22.869  0.00  0.00    +0.000 NA
ATOM     26  C   UNL     1      -2.412  15.787  22.644  0.00  0.00    +0.000 C 
ATOM     27  C   UNL     1      -1.871  16.529  23.880  0.00  0.00    +0.000 C 
ATOM     28  O   UNL     1      -2.708  16.332  25.028  0.00  0.00    +0.000 OA
ATOM     29  C   UNL     1      -2.898  14.937  25.303  0.00  0.00    +0.000 C 
ATOM     30  C   UNL     1      -3.469  14.202  24.078  0.00  0.00    +0.000 C 
ENDBRANCH  24  25
ENDBRANCH  23  24
ENDBRANCH  21  23
ENDBRANCH  18  19
ENDBRANCH   1  18
TORSDOF 6
ENDMDL
MODEL 9
REMARK VINA RESULT:      -7.7      4.859      9.000
REMARK  Name = 
REMARK  7 active torsions:
REMARK  status: ('A' for Active; 'I' for Inactive)
REMARK    1  A    between atoms: C_1  and  C_2
REMARK    2  A    between atoms: C_2  and  O_3
REMARK    3  A    between atoms: C_2  and  C_19
REMARK    4  A    between atoms: O_3  and  C_4
REMARK    5  A    between atoms: N_21  and  C_22
REMARK    6  A    between atoms: C_22  and  C_23
REMARK    7  A    between atoms: C_23  and  N_24
REMARK                            x       y       z     vdW  Elec       q    Type
REMARK                         _______ _______ _______ _____ _____    ______ ____
ROOT
ATOM      1  O   UNL     1       5.006   5.240  16.840  0.00  0.00    +0.000 OA
ENDROOT
BRANCH   1   2
ATOM      2  C   UNL     1       4.219   6.014  17.655  0.00  0.00    +0.000 A 
ATOM      3  C   UNL     1       3.687   7.242  17.252  0.00  0.00    +0.000 A 
ATOM      4  C   UNL     1       2.808   7.921  18.085  0.00  0.00    +0.000 A 
ATOM      5  O   UNL     1       2.351   9.186  17.634  0.00  0.00    +0.000 OA
ATOM      6  C   UNL     1       1.526   9.985  18.418  0.00  0.00    +0.000 A 
ATOM      7  O   UNL     1       1.197  11.119  18.079  0.00  0.00    +0.000 OA
ATOM      8  C   UNL     1       1.060   9.372  19.664  0.00  0.00    +0.000 A 
ATOM      9  C   UNL     1       1.452   8.162  20.072  0.00  0.00    +0.000 A 
ATOM     10  C   UNL     1       2.407   7.399  19.308  0.00  0.00    +0.000 A 
ATOM     11  C   UNL     1       2.954   6.191  19.736  0.00  0.00    +0.000 A 
ATOM     12  C   UNL     1       3.873   5.515  18.917  0.00  0.00    +0.000 A 
ATOM     13 CL   UNL     1       4.617   4.087  19.550  0.00  0.00    +0.000 Cl
ATOM     14  C   UNL     1       0.809   7.755  21.347  0.00  0.00    +0.000 C 
ATOM     15  C   UNL     1      -0.070   8.958  21.704  0.00  0.00    +0.000 C 
ATOM     16  C   UNL     1       0.111  10.018  20.605  0.00  0.00    +0.000 C 
ENDBRANCH   1   2
BRANCH   1  18
ATOM     17  C   UNL     1       6.845   4.974  15.229  0.00  0.00    +0.000 C 
ATOM     18  C   UNL     1       6.079   5.913  16.159  0.00  0.00    +0.000 C 
BRANCH  18  19
ATOM     19  C   UNL     1       7.074   6.424  17.198  0.00  0.00    +0.000 C 
ATOM     20  O   UNL     1       7.597   5.655  18.008  0.00  0.00    +0.000 OA
ATOM     21  N   UNL     1       7.265   7.784  17.240  0.00  0.00    +0.000 N 
ATOM     22  H   UNL     1       6.966   8.318  16.433  0.00  0.00    +0.000 HD
BRANCH  21  23
ATOM     23  C   UNL     1       8.214   8.348  18.186  0.00  0.00    +0.000 C 
BRANCH  23  24
ATOM     24  C   UNL     1       8.776   9.703  17.723  0.00  0.00    +0.000 C 
BRANCH  24  25
ATOM     25  N   UNL     1       8.528  10.831  18.642  0.00  0.00    +0.000 NA
ATOM     26  C   UNL     1       8.638  12.120  17.917  0.00  0.00    +0.000 C 
ATOM     27  C   UNL     1      10.083  12.492  17.536  0.00  0.00    +0.000 C 
ATOM     28  O   UNL     1      10.949  12.500  18.679  0.00  0.00    +0.000 OA
ATOM     29  C   UNL     1      10.902  11.250  19.380  0.00  0.00    +0.000 C 
ATOM     30  C   UNL     1       9.463  10.894  19.789  0.00  0.00    +0.000 C 
ENDBRANCH  24  25
ENDBRANCH  23  24
ENDBRANCH  21  23
ENDBRANCH  18  19
ENDBRANCH   1  18
TORSDOF 6
ENDMDL
