MODEL 1
REMARK VINA RESULT:      -7.7      0.000      0.000
REMARK  Name = 
REMARK  8 active torsions:
REMARK  status: ('A' for Active; 'I' for Inactive)
REMARK    1  A    between atoms: C_1  and  C_2
REMARK    2  A    between atoms: C_2  and  O_3
REMARK    3  A    between atoms: O_3  and  C_4
REMARK    4  A    between atoms: C_7  and  C_8
REMARK    5  A    between atoms: C_14  and  C_16
REMARK    6  A    between atoms: C_22  and  O_23
REMARK    7  A    between atoms: O_23  and  C_24
REMARK    8  A    between atoms: C_24  and  C_25
REMARK                            x       y       z     vdW  Elec       q    Type
REMARK                         _______ _______ _______ _____ _____    ______ ____
ROOT
ATOM      1  C   UNL     1       3.992   3.916  19.214  0.00  0.00    +0.000 A 
ATOM      2  N   UNL     1       3.934   2.750  19.872  0.00  0.00    +0.000 NA
ATOM      3  O   UNL     1       2.914   2.892  20.792  0.00  0.00    +0.000 OA
ATOM      4  N   UNL     1       2.350   4.148  20.715  0.00  0.00    +0.000 NA
ATOM      5  C   UNL     1       3.009   4.793  19.751  0.00  0.00    +0.000 A 
ATOM      6  N   UNL     1       2.754   6.099  19.366  0.00  0.00    +0.000 N 
ATOM      7  C   UNL     1       1.911   6.956  20.050  0.00  0.00    +0.000 C 
ATOM      8  O   UNL     1       1.378   6.692  21.124  0.00  0.00    +0.000 OA
ATOM      9  H   UNL     1       3.250   6.464  18.565  0.00  0.00    +0.000 HD
ENDROOT
BRANCH   1  13
ATOM     10  C   UNL     1       6.718   4.699  16.017  0.00  0.00    +0.000 A 
ATOM     11  C   UNL     1       5.582   3.900  15.823  0.00  0.00    +0.000 A 
ATOM     12  C   UNL     1       4.724   3.616  16.883  0.00  0.00    +0.000 A 
ATOM     13  C   UNL     1       4.987   4.104  18.165  0.00  0.00    +0.000 A 
ATOM     14  C   UNL     1       6.177   4.808  18.381  0.00  0.00    +0.000 A 
ATOM     15  C   UNL     1       7.065   5.082  17.323  0.00  0.00    +0.000 A 
BRANCH  10  16
ATOM     16  O   UNL     1       7.471   5.150  14.961  0.00  0.00    +0.000 OA
BRANCH  16  18
ATOM     17  C   UNL     1       7.868   5.397  12.603  0.00  0.00    +0.000 C 
ATOM     18  C   UNL     1       7.080   4.664  13.672  0.00  0.00    +0.000 C 
ENDBRANCH  16  18
ENDBRANCH  10  16
BRANCH  15  19
ATOM     19  O   UNL     1       8.177   5.771  17.732  0.00  0.00    +0.000 OA
BRANCH  19  20
ATOM     20  C   UNL     1       7.980   6.921  18.556  0.00  0.00    +0.000 C 
ATOM     21  C   UNL     1       7.829   8.133  17.651  0.00  0.00    +0.000 C 
ENDBRANCH  19  20
ENDBRANCH  15  19
ENDBRANCH   1  13
BRANCH   7  22
ATOM     22  C   UNL     1       1.713   8.260  19.421  0.00  0.00    +0.000 A 
ATOM     23  C   UNL     1       2.176   8.642  18.173  0.00  0.00    +0.000 A 
ATOM     24  C   UNL     1       1.841   9.987  17.849  0.00  0.00    +0.000 A 
ATOM     25  C   UNL     1       1.138  10.597  18.863  0.00  0.00    +0.000 A 
ATOM     26  S   UNL     1       0.875   9.545  20.185  0.00  0.00    +0.000 S 
ENDBRANCH   7  22
TORSDOF 6
ENDMDL
MODEL 2
REMARK VINA RESULT:      -7.3      3.557      5.992
REMARK  Name = 
REMARK  8 active torsions:
REMARK  status: ('A' for Active; 'I' for Inactive)
REMARK    1  A    between atoms: C_1  and  C_2
REMARK    2  A    between atoms: C_2  and  O_3
REMARK    3  A    between atoms: O_3  and  C_4
REMARK    4  A    between atoms: C_7  and  C_8
REMARK    5  A    between atoms: C_14  and  C_16
REMARK    6  A    between atoms: C_22  and  O_23
REMARK    7  A    between atoms: O_23  and  C_24
REMARK    8  A    between atoms: C_24  and  C_25
REMARK                            x       y       z     vdW  Elec       q    Type
REMARK                         _______ _______ _______ _____ _____    ______ ____
ROOT
ATOM      1  C   UNL     1       1.008   8.927  21.091  0.00  0.00    +0.000 A 
ATOM      2  N   UNL     1       1.448   9.221  22.323  0.00  0.00    +0.000 NA
ATOM      3  O   UNL     1       0.676  10.285  22.749  0.00  0.00    +0.000 OA
ATOM      4  N   UNL     1      -0.229  10.659  21.780  0.00  0.00    +0.000 NA
ATOM      5  C   UNL     1      -0.033   9.835  20.749  0.00  0.00    +0.000 A 
ATOM      6  N   UNL     1      -0.740   9.885  19.559  0.00  0.00    +0.000 N 
ATOM      7  C   UNL     1      -1.611  10.906  19.221  0.00  0.00    +0.000 C 
ATOM      8  O   UNL     1      -1.775  11.925  19.884  0.00  0.00    +0.000 OA
ATOM      9  H   UNL     1      -0.575   9.160  18.877  0.00  0.00    +0.000 HD
ENDROOT
BRANCH   1  13
ATOM     10  C   UNL     1       3.114   5.865  18.982  0.00  0.00    +0.000 A 
ATOM     11  C   UNL     1       2.923   7.134  18.418  0.00  0.00    +0.000 A 
ATOM     12  C   UNL     1       2.196   8.111  19.096  0.00  0.00    +0.000 A 
ATOM     13  C   UNL     1       1.628   7.840  20.343  0.00  0.00    +0.000 A 
ATOM     14  C   UNL     1       1.725   6.541  20.855  0.00  0.00    +0.000 A 
ATOM     15  C   UNL     1       2.437   5.539  20.168  0.00  0.00    +0.000 A 
BRANCH  10  16
ATOM     16  O   UNL     1       3.979   4.953  18.429  0.00  0.00    +0.000 OA
BRANCH  16  18
ATOM     17  C   UNL     1       4.745   4.125  16.306  0.00  0.00    +0.000 C 
ATOM     18  C   UNL     1       3.543   4.356  17.202  0.00  0.00    +0.000 C 
ENDBRANCH  16  18
ENDBRANCH  10  16
BRANCH  15  19
ATOM     19  O   UNL     1       2.412   4.333  20.820  0.00  0.00    +0.000 OA
BRANCH  19  20
ATOM     20  C   UNL     1       1.171   3.628  20.865  0.00  0.00    +0.000 C 
ATOM     21  C   UNL     1       0.978   2.923  19.531  0.00  0.00    +0.000 C 
ENDBRANCH  19  20
ENDBRANCH  15  19
ENDBRANCH   1  13
BRANCH   7  22
ATOM     22  C   UNL     1      -2.321  10.717  17.957  0.00  0.00    +0.000 A 
ATOM     23  C   UNL     1      -1.899   9.939  16.893  0.00  0.00    +0.000 A 
ATOM     24  C   UNL     1      -2.801   9.975  15.792  0.00  0.00    +0.000 A 
ATOM     25  C   UNL     1      -3.883  10.787  16.045  0.00  0.00    +0.000 A 
ATOM     26  S   UNL     1      -3.813  11.484  17.605  0.00  0.00    +0.000 S 
ENDBRANCH   7  22
TORSDOF 6
ENDMDL
MODEL 3
REMARK VINA RESULT:      -7.2      1.259      1.430
REMARK  Name = 
REMARK  8 active torsions:
REMARK  status: ('A' for Active; 'I' for Inactive)
REMARK    1  A    between atoms: C_1  and  C_2
REMARK    2  A    between atoms: C_2  and  O_3
REMARK    3  A    between atoms: O_3  and  C_4
REMARK    4  A    between atoms: C_7  and  C_8
REMARK    5  A    between atoms: C_14  and  C_16
REMARK    6  A    between atoms: C_22  and  O_23
REMARK    7  A    between atoms: O_23  and  C_24
REMARK    8  A    between atoms: C_24  and  C_25
REMARK                            x       y       z     vdW  Elec       q    Type
REMARK                         _______ _______ _______ _____ _____    ______ ____
ROOT
ATOM      1  C   UNL     1       3.455   4.714  19.342  0.00  0.00    +0.000 A 
ATOM      2  N   UNL     1       3.427   3.563  20.029  0.00  0.00    +0.000 NA
ATOM      3  O   UNL     1       2.523   3.765  21.054  0.00  0.00    +0.000 OA
ATOM      4  N   UNL     1       2.004   5.040  21.012  0.00  0.00    +0.000 NA
ATOM      5  C   UNL     1       2.574   5.640  19.966  0.00  0.00    +0.000 A 
ATOM      6  N   UNL     1       2.328   6.948  19.581  0.00  0.00    +0.000 N 
ATOM      7  C   UNL     1       1.601   7.851  20.336  0.00  0.00    +0.000 C 
ATOM      8  O   UNL     1       1.184   7.630  21.469  0.00  0.00    +0.000 OA
ATOM      9  H   UNL     1       2.743   7.278  18.722  0.00  0.00    +0.000 HD
ENDROOT
BRANCH   1  13
ATOM     10  C   UNL     1       5.762   5.167  15.773  0.00  0.00    +0.000 A 
ATOM     11  C   UNL     1       5.029   3.998  16.019  0.00  0.00    +0.000 A 
ATOM     12  C   UNL     1       4.316   3.843  17.206  0.00  0.00    +0.000 A 
ATOM     13  C   UNL     1       4.331   4.841  18.184  0.00  0.00    +0.000 A 
ATOM     14  C   UNL     1       5.151   5.958  17.986  0.00  0.00    +0.000 A 
ATOM     15  C   UNL     1       5.895   6.115  16.801  0.00  0.00    +0.000 A 
BRANCH  10  16
ATOM     16  O   UNL     1       6.314   5.427  14.543  0.00  0.00    +0.000 OA
BRANCH  16  18
ATOM     17  C   UNL     1       6.267   3.920  12.671  0.00  0.00    +0.000 C 
ATOM     18  C   UNL     1       7.003   4.330  13.932  0.00  0.00    +0.000 C 
ENDBRANCH  16  18
ENDBRANCH  10  16
BRANCH  15  19
ATOM     19  O   UNL     1       6.642   7.265  16.796  0.00  0.00    +0.000 OA
BRANCH  19  20
ATOM     20  C   UNL     1       7.655   7.403  17.793  0.00  0.00    +0.000 C 
ATOM     21  C   UNL     1       8.055   8.869  17.864  0.00  0.00    +0.000 C 
ENDBRANCH  19  20
ENDBRANCH  15  19
ENDBRANCH   1  13
BRANCH   7  22
ATOM     22  C   UNL     1       1.384   9.151  19.703  0.00  0.00    +0.000 A 
ATOM     23  C   UNL     1       0.777  10.249  20.285  0.00  0.00    +0.000 A 
ATOM     24  C   UNL     1       0.693  11.365  19.405  0.00  0.00    +0.000 A 
ATOM     25  C   UNL     1       1.232  11.082  18.170  0.00  0.00    +0.000 A 
ATOM     26  S   UNL     1       1.846   9.488  18.087  0.00  0.00    +0.000 S 
ENDBRANCH   7  22
TORSDOF 6
ENDMDL
MODEL 4
REMARK VINA RESULT:      -7.2      3.578      5.825
REMARK  Name = 
REMARK  8 active torsions:
REMARK  status: ('A' for Active; 'I' for Inactive)
REMARK    1  A    between atoms: C_1  and  C_2
REMARK    2  A    between atoms: C_2  and  O_3
REMARK    3  A    between atoms: O_3  and  C_4
REMARK    4  A    between atoms: C_7  and  C_8
REMARK    5  A    between atoms: C_14  and  C_16
REMARK    6  A    between atoms: C_22  and  O_23
REMARK    7  A    between atoms: O_23  and  C_24
REMARK    8  A    between atoms: C_24  and  C_25
REMARK                            x       y       z     vdW  Elec       q    Type
REMARK                         _______ _______ _______ _____ _____    ______ ____
ROOT
ATOM      1  C   UNL     1       1.045   8.945  20.802  0.00  0.00    +0.000 A 
ATOM      2  N   UNL     1       1.506   9.119  22.049  0.00  0.00    +0.000 NA
ATOM      3  O   UNL     1       0.691  10.078  22.616  0.00  0.00    +0.000 OA
ATOM      4  N   UNL     1      -0.264  10.509  21.721  0.00  0.00    +0.000 NA
ATOM      5  C   UNL     1      -0.055   9.824  20.595  0.00  0.00    +0.000 A 
ATOM      6  N   UNL     1      -0.800   9.970  19.437  0.00  0.00    +0.000 N 
ATOM      7  C   UNL     1      -1.736  10.970  19.242  0.00  0.00    +0.000 C 
ATOM      8  O   UNL     1      -1.936  11.894  20.025  0.00  0.00    +0.000 OA
ATOM      9  H   UNL     1      -0.617   9.340  18.670  0.00  0.00    +0.000 HD
ENDROOT
BRANCH   1  13
ATOM     10  C   UNL     1       3.250   6.290  18.282  0.00  0.00    +0.000 A 
ATOM     11  C   UNL     1       2.912   7.582  17.855  0.00  0.00    +0.000 A 
ATOM     12  C   UNL     1       2.155   8.423  18.668  0.00  0.00    +0.000 A 
ATOM     13  C   UNL     1       1.702   7.991  19.916  0.00  0.00    +0.000 A 
ATOM     14  C   UNL     1       1.945   6.665  20.294  0.00  0.00    +0.000 A 
ATOM     15  C   UNL     1       2.689   5.798  19.471  0.00  0.00    +0.000 A 
BRANCH  10  16
ATOM     16  O   UNL     1       4.148   5.514  17.591  0.00  0.00    +0.000 OA
BRANCH  16  18
ATOM     17  C   UNL     1       6.367   6.413  17.369  0.00  0.00    +0.000 C 
ATOM     18  C   UNL     1       5.018   6.223  16.701  0.00  0.00    +0.000 C 
ENDBRANCH  16  18
ENDBRANCH  10  16
BRANCH  15  19
ATOM     19  O   UNL     1       2.813   4.542  20.006  0.00  0.00    +0.000 OA
BRANCH  19  20
ATOM     20  C   UNL     1       2.305   4.327  21.323  0.00  0.00    +0.000 C 
ATOM     21  C   UNL     1       1.955   2.853  21.461  0.00  0.00    +0.000 C 
ENDBRANCH  19  20
ENDBRANCH  15  19
ENDBRANCH   1  13
BRANCH   7  22
ATOM     22  C   UNL     1      -2.474  10.888  17.983  0.00  0.00    +0.000 A 
ATOM     23  C   UNL     1      -2.011  10.336  16.802  0.00  0.00    +0.000 A 
ATOM     24  C   UNL     1      -2.958  10.427  15.742  0.00  0.00    +0.000 A 
ATOM     25  C   UNL     1      -4.115  11.054  16.145  0.00  0.00    +0.000 A 
ATOM     26  S   UNL     1      -4.059  11.512  17.791  0.00  0.00    +0.000 S 
ENDBRANCH   7  22
TORSDOF 6
ENDMDL
MODEL 5
REMARK VINA RESULT:      -7.1      3.596      5.781
REMARK  Name = 
REMARK  8 active torsions:
REMARK  status: ('A' for Active; 'I' for Inactive)
REMARK    1  A    between atoms: C_1  and  C_2
REMARK    2  A    between atoms: C_2  and  O_3
REMARK    3  A    between atoms: O_3  and  C_4
REMARK    4  A    between atoms: C_7  and  C_8
REMARK    5  A    between atoms: C_14  and  C_16
REMARK    6  A    between atoms: C_22  and  O_23
REMARK    7  A    between atoms: O_23  and  C_24
REMARK    8  A    between atoms: C_24  and  C_25
REMARK                            x       y       z     vdW  Elec       q    Type
REMARK                         _______ _______ _______ _____ _____    ______ ____
ROOT
ATOM      1  C   UNL     1       0.973   8.939  21.182  0.00  0.00    +0.000 A 
ATOM      2  N   UNL     1       1.413   9.264  22.406  0.00  0.00    +0.000 NA
ATOM      3  O   UNL     1       0.668  10.363  22.788  0.00  0.00    +0.000 OA
ATOM      4  N   UNL     1      -0.220  10.727  21.800  0.00  0.00    +0.000 NA
ATOM      5  C   UNL     1      -0.040   9.863  20.800  0.00  0.00    +0.000 A 
ATOM      6  N   UNL     1      -0.737   9.890  19.603  0.00  0.00    +0.000 N 
ATOM      7  C   UNL     1      -1.577  10.921  19.222  0.00  0.00    +0.000 C 
ATOM      8  O   UNL     1      -1.717  11.967  19.848  0.00  0.00    +0.000 OA
ATOM      9  H   UNL     1      -0.588   9.137  18.948  0.00  0.00    +0.000 HD
ENDROOT
BRANCH   1  13
ATOM     10  C   UNL     1       2.422   5.553  19.014  0.00  0.00    +0.000 A 
ATOM     11  C   UNL     1       1.836   5.407  20.280  0.00  0.00    +0.000 A 
ATOM     12  C   UNL     1       1.408   6.523  20.997  0.00  0.00    +0.000 A 
ATOM     13  C   UNL     1       1.568   7.810  20.477  0.00  0.00    +0.000 A 
ATOM     14  C   UNL     1       2.252   7.961  19.266  0.00  0.00    +0.000 A 
ATOM     15  C   UNL     1       2.711   6.843  18.543  0.00  0.00    +0.000 A 
BRANCH  10  16
ATOM     16  O   UNL     1       2.677   4.470  18.210  0.00  0.00    +0.000 OA
BRANCH  16  18
ATOM     17  C   UNL     1       4.792   3.647  19.005  0.00  0.00    +0.000 C 
ATOM     18  C   UNL     1       3.310   3.358  18.855  0.00  0.00    +0.000 C 
ENDBRANCH  16  18
ENDBRANCH  10  16
BRANCH  15  19
ATOM     19  O   UNL     1       3.363   7.193  17.389  0.00  0.00    +0.000 OA
BRANCH  19  20
ATOM     20  C   UNL     1       4.777   6.997  17.339  0.00  0.00    +0.000 C 
ATOM     21  C   UNL     1       5.094   6.133  16.129  0.00  0.00    +0.000 C 
ENDBRANCH  19  20
ENDBRANCH  15  19
ENDBRANCH   1  13
BRANCH   7  22
ATOM     22  C   UNL     1      -2.284  10.707  17.961  0.00  0.00    +0.000 A 
ATOM     23  C   UNL     1      -1.859   9.908  16.914  0.00  0.00    +0.000 A 
ATOM     24  C   UNL     1      -2.757   9.921  15.810  0.00  0.00    +0.000 A 
ATOM     25  C   UNL     1      -3.839  10.739  16.043  0.00  0.00    +0.000 A 
ATOM     26  S   UNL     1      -3.773  11.468  17.588  0.00  0.00    +0.000 S 
ENDBRANCH   7  22
TORSDOF 6
ENDMDL
MODEL 6
REMARK VINA RESULT:      -7.1      3.678      6.026
REMARK  Name = 
REMARK  8 active torsions:
REMARK  status: ('A' for Active; 'I' for Inactive)
REMARK    1  A    between atoms: C_1  and  C_2
REMARK    2  A    between atoms: C_2  and  O_3
REMARK    3  A    between atoms: O_3  and  C_4
REMARK    4  A    between atoms: C_7  and  C_8
REMARK    5  A    between atoms: C_14  and  C_16
REMARK    6  A    between atoms: C_22  and  O_23
REMARK    7  A    between atoms: O_23  and  C_24
REMARK    8  A    between atoms: C_24  and  C_25
REMARK                            x       y       z     vdW  Elec       q    Type
REMARK                         _______ _______ _______ _____ _____    ______ ____
ROOT
ATOM      1  C   UNL     1       0.976   9.132  20.993  0.00  0.00    +0.000 A 
ATOM      2  N   UNL     1       1.470   9.318  22.225  0.00  0.00    +0.000 NA
ATOM      3  O   UNL     1       0.673  10.287  22.802  0.00  0.00    +0.000 OA
ATOM      4  N   UNL     1      -0.303  10.711  21.927  0.00  0.00    +0.000 NA
ATOM      5  C   UNL     1      -0.126  10.013  20.804  0.00  0.00    +0.000 A 
ATOM      6  N   UNL     1      -0.900  10.149  19.663  0.00  0.00    +0.000 N 
ATOM      7  C   UNL     1      -1.837  11.150  19.482  0.00  0.00    +0.000 C 
ATOM      8  O   UNL     1      -2.013  12.084  20.259  0.00  0.00    +0.000 OA
ATOM      9  H   UNL     1      -0.738   9.510  18.899  0.00  0.00    +0.000 HD
ENDROOT
BRANCH   1  13
ATOM     10  C   UNL     1       3.106   6.444  18.442  0.00  0.00    +0.000 A 
ATOM     11  C   UNL     1       2.740   7.724  18.003  0.00  0.00    +0.000 A 
ATOM     12  C   UNL     1       2.007   8.576  18.827  0.00  0.00    +0.000 A 
ATOM     13  C   UNL     1       1.606   8.165  20.101  0.00  0.00    +0.000 A 
ATOM     14  C   UNL     1       1.876   6.850  20.495  0.00  0.00    +0.000 A 
ATOM     15  C   UNL     1       2.595   5.972  19.662  0.00  0.00    +0.000 A 
BRANCH  10  16
ATOM     16  O   UNL     1       3.983   5.662  17.732  0.00  0.00    +0.000 OA
BRANCH  16  18
ATOM     17  C   UNL     1       5.302   5.935  15.741  0.00  0.00    +0.000 C 
ATOM     18  C   UNL     1       5.119   6.346  17.190  0.00  0.00    +0.000 C 
ENDBRANCH  16  18
ENDBRANCH  10  16
BRANCH  15  19
ATOM     19  O   UNL     1       2.751   4.728  20.216  0.00  0.00    +0.000 OA
BRANCH  19  20
ATOM     20  C   UNL     1       1.825   3.710  19.834  0.00  0.00    +0.000 C 
ATOM     21  C   UNL     1       1.315   3.034  21.097  0.00  0.00    +0.000 C 
ENDBRANCH  19  20
ENDBRANCH  15  19
ENDBRANCH   1  13
BRANCH   7  22
ATOM     22  C   UNL     1      -2.607  11.057  18.243  0.00  0.00    +0.000 A 
ATOM     23  C   UNL     1      -3.829  11.658  17.997  0.00  0.00    +0.000 A 
ATOM     24  C   UNL     1      -4.339  11.360  16.701  0.00  0.00    +0.000 A 
ATOM     25  C   UNL     1      -3.493  10.533  15.998  0.00  0.00    +0.000 A 
ATOM     26  S   UNL     1      -2.091  10.135  16.893  0.00  0.00    +0.000 S 
ENDBRANCH   7  22
TORSDOF 6
ENDMDL
MODEL 7
REMARK VINA RESULT:      -7.1      3.975      6.546
REMARK  Name = 
REMARK  8 active torsions:
REMARK  status: ('A' for Active; 'I' for Inactive)
REMARK    1  A    between atoms: C_1  and  C_2
REMARK    2  A    between atoms: C_2  and  O_3
REMARK    3  A    between atoms: O_3  and  C_4
REMARK    4  A    between atoms: C_7  and  C_8
REMARK    5  A    between atoms: C_14  and  C_16
REMARK    6  A    between atoms: C_22  and  O_23
REMARK    7  A    between atoms: O_23  and  C_24
REMARK    8  A    between atoms: C_24  and  C_25
REMARK                            x       y       z     vdW  Elec       q    Type
REMARK                         _______ _______ _______ _____ _____    ______ ____
ROOT
ATOM      1  C   UNL     1       0.734   9.604  20.782  0.00  0.00    +0.000 A 
ATOM      2  N   UNL     1       1.204  10.000  21.973  0.00  0.00    +0.000 NA
ATOM      3  O   UNL     1       0.435  11.090  22.331  0.00  0.00    +0.000 OA
ATOM      4  N   UNL     1      -0.498  11.379  21.359  0.00  0.00    +0.000 NA
ATOM      5  C   UNL     1      -0.322  10.475  20.394  0.00  0.00    +0.000 A 
ATOM      6  N   UNL     1      -1.059  10.424  19.222  0.00  0.00    +0.000 N 
ATOM      7  C   UNL     1      -1.946  11.408  18.825  0.00  0.00    +0.000 C 
ATOM      8  O   UNL     1      -2.101  12.477  19.407  0.00  0.00    +0.000 OA
ATOM      9  H   UNL     1      -0.906   9.646  18.597  0.00  0.00    +0.000 HD
ENDROOT
BRANCH   1  13
ATOM     10  C   UNL     1       2.810   6.393  18.873  0.00  0.00    +0.000 A 
ATOM     11  C   UNL     1       2.588   7.608  18.211  0.00  0.00    +0.000 A 
ATOM     12  C   UNL     1       1.871   8.632  18.826  0.00  0.00    +0.000 A 
ATOM     13  C   UNL     1       1.344   8.463  20.109  0.00  0.00    +0.000 A 
ATOM     14  C   UNL     1       1.471   7.213  20.724  0.00  0.00    +0.000 A 
ATOM     15  C   UNL     1       2.173   6.162  20.103  0.00  0.00    +0.000 A 
BRANCH  10  16
ATOM     16  O   UNL     1       3.668   5.445  18.372  0.00  0.00    +0.000 OA
BRANCH  16  18
ATOM     17  C   UNL     1       5.127   3.768  19.289  0.00  0.00    +0.000 C 
ATOM     18  C   UNL     1       4.878   5.255  19.114  0.00  0.00    +0.000 C 
ENDBRANCH  16  18
ENDBRANCH  10  16
BRANCH  15  19
ATOM     19  O   UNL     1       2.181   5.016  20.855  0.00  0.00    +0.000 OA
BRANCH  19  20
ATOM     20  C   UNL     1       1.209   4.014  20.550  0.00  0.00    +0.000 C 
ATOM     21  C   UNL     1       1.500   2.794  21.410  0.00  0.00    +0.000 C 
ENDBRANCH  19  20
ENDBRANCH  15  19
ENDBRANCH   1  13
BRANCH   7  22
ATOM     22  C   UNL     1      -2.687  11.112  17.600  0.00  0.00    +0.000 A 
ATOM     23  C   UNL     1      -2.202  10.429  16.499  0.00  0.00    +0.000 A 
ATOM     24  C   UNL     1      -3.160  10.320  15.451  0.00  0.00    +0.000 A 
ATOM     25  C   UNL     1      -4.348  10.932  15.780  0.00  0.00    +0.000 A 
ATOM     26  S   UNL     1      -4.306  11.617  17.347  0.00  0.00    +0.000 S 
ENDBRANCH   7  22
TORSDOF 6
ENDMDL
MODEL 8
REMARK VINA RESULT:      -7.1      4.046      6.563
REMARK  Name = 
REMARK  8 active torsions:
REMARK  status: ('A' for Active; 'I' for Inactive)
REMARK    1  A    between atoms: C_1  and  C_2
REMARK    2  A    between atoms: C_2  and  O_3
REMARK    3  A    between atoms: O_3  and  C_4
REMARK    4  A    between atoms: C_7  and  C_8
REMARK    5  A    between atoms: C_14  and  C_16
REMARK    6  A    between atoms: C_22  and  O_23
REMARK    7  A    between atoms: O_23  and  C_24
REMARK    8  A    between atoms: C_24  and  C_25
REMARK                            x       y       z     vdW  Elec       q    Type
REMARK                         _______ _______ _______ _____ _____    ______ ____
ROOT
ATOM      1  C   UNL     1       0.669   9.503  21.071  0.00  0.00    +0.000 A 
ATOM      2  N   UNL     1       1.122   9.850  22.283  0.00  0.00    +0.000 NA
ATOM      3  O   UNL     1       0.342  10.918  22.680  0.00  0.00    +0.000 OA
ATOM      4  N   UNL     1      -0.583  11.242  21.711  0.00  0.00    +0.000 NA
ATOM      5  C   UNL     1      -0.390  10.383  20.709  0.00  0.00    +0.000 A 
ATOM      6  N   UNL     1      -1.114  10.378  19.528  0.00  0.00    +0.000 N 
ATOM      7  C   UNL     1      -2.003  11.372  19.164  0.00  0.00    +0.000 C 
ATOM      8  O   UNL     1      -2.173  12.414  19.791  0.00  0.00    +0.000 OA
ATOM      9  H   UNL     1      -0.948   9.629  18.872  0.00  0.00    +0.000 HD
ENDROOT
BRANCH   1  13
ATOM     10  C   UNL     1       2.789   6.390  19.051  0.00  0.00    +0.000 A 
ATOM     11  C   UNL     1       2.580   7.637  18.445  0.00  0.00    +0.000 A 
ATOM     12  C   UNL     1       1.849   8.629  19.095  0.00  0.00    +0.000 A 
ATOM     13  C   UNL     1       1.294   8.397  20.356  0.00  0.00    +0.000 A 
ATOM     14  C   UNL     1       1.409   7.118  20.911  0.00  0.00    +0.000 A 
ATOM     15  C   UNL     1       2.125   6.099  20.254  0.00  0.00    +0.000 A 
BRANCH  10  16
ATOM     16  O   UNL     1       3.659   5.468  18.523  0.00  0.00    +0.000 OA
BRANCH  16  18
ATOM     17  C   UNL     1       3.554   3.173  17.813  0.00  0.00    +0.000 C 
ATOM     18  C   UNL     1       3.103   4.595  17.532  0.00  0.00    +0.000 C 
ENDBRANCH  16  18
ENDBRANCH  10  16
BRANCH  15  19
ATOM     19  O   UNL     1       2.118   4.917  20.948  0.00  0.00    +0.000 OA
BRANCH  19  20
ATOM     20  C   UNL     1       1.117   3.956  20.613  0.00  0.00    +0.000 C 
ATOM     21  C   UNL     1       1.588   2.592  21.095  0.00  0.00    +0.000 C 
ENDBRANCH  19  20
ENDBRANCH  15  19
ENDBRANCH   1  13
BRANCH   7  22
ATOM     22  C   UNL     1      -2.729  11.125  17.920  0.00  0.00    +0.000 A 
ATOM     23  C   UNL     1      -3.941  11.687  17.558  0.00  0.00    +0.000 A 
ATOM     24  C   UNL     1      -4.404  11.231  16.291  0.00  0.00    +0.000 A 
ATOM     25  C   UNL     1      -3.534  10.327  15.725  0.00  0.00    +0.000 A 
ATOM     26  S   UNL     1      -2.166  10.047  16.712  0.00  0.00    +0.000 S 
ENDBRANCH   7  22
TORSDOF 6
ENDMDL
MODEL 9
REMARK VINA RESULT:      -6.9      2.821      7.089
REMARK  Name = 
REMARK  8 active torsions:
REMARK  status: ('A' for Active; 'I' for Inactive)
REMARK    1  A    between atoms: C_1  and  C_2
REMARK    2  A    between atoms: C_2  and  O_3
REMARK    3  A    between atoms: O_3  and  C_4
REMARK    4  A    between atoms: C_7  and  C_8
REMARK    5  A    between atoms: C_14  and  C_16
REMARK    6  A    between atoms: C_22  and  O_23
REMARK    7  A    between atoms: O_23  and  C_24
REMARK    8  A    between atoms: C_24  and  C_25
REMARK                            x       y       z     vdW  Elec       q    Type
REMARK                         _______ _______ _______ _____ _____    ______ ____
ROOT
ATOM      1  C   UNL     1       2.088   5.128  19.926  0.00  0.00    +0.000 A 
ATOM      2  N   UNL     1       1.336   4.448  20.803  0.00  0.00    +0.000 NA
ATOM      3  O   UNL     1       1.676   3.120  20.634  0.00  0.00    +0.000 OA
ATOM      4  N   UNL     1       2.624   2.974  19.645  0.00  0.00    +0.000 NA
ATOM      5  C   UNL     1       2.884   4.202  19.194  0.00  0.00    +0.000 A 
ATOM      6  N   UNL     1       3.782   4.493  18.180  0.00  0.00    +0.000 N 
ATOM      7  C   UNL     1       4.387   3.535  17.387  0.00  0.00    +0.000 C 
ATOM      8  O   UNL     1       4.120   2.338  17.421  0.00  0.00    +0.000 OA
ATOM      9  H   UNL     1       3.972   5.463  17.976  0.00  0.00    +0.000 HD
ENDROOT
BRANCH   1  13
ATOM     10  C   UNL     1       1.443   9.332  19.518  0.00  0.00    +0.000 A 
ATOM     11  C   UNL     1       1.959   8.572  18.460  0.00  0.00    +0.000 A 
ATOM     12  C   UNL     1       2.207   7.209  18.618  0.00  0.00    +0.000 A 
ATOM     13  C   UNL     1       1.964   6.578  19.840  0.00  0.00    +0.000 A 
ATOM     14  C   UNL     1       1.554   7.358  20.927  0.00  0.00    +0.000 A 
ATOM     15  C   UNL     1       1.323   8.740  20.785  0.00  0.00    +0.000 A 
BRANCH  10  16
ATOM     16  O   UNL     1       1.013  10.623  19.335  0.00  0.00    +0.000 OA
BRANCH  16  18
ATOM     17  C   UNL     1      -1.351  10.398  18.960  0.00  0.00    +0.000 C 
ATOM     18  C   UNL     1      -0.018  10.797  18.356  0.00  0.00    +0.000 C 
ENDBRANCH  16  18
ENDBRANCH  10  16
BRANCH  15  19
ATOM     19  O   UNL     1       0.938   9.333  21.960  0.00  0.00    +0.000 OA
BRANCH  19  20
ATOM     20  C   UNL     1      -0.397   9.105  22.413  0.00  0.00    +0.000 C 
ATOM     21  C   UNL     1      -0.892  10.374  23.090  0.00  0.00    +0.000 C 
ENDBRANCH  19  20
ENDBRANCH  15  19
ENDBRANCH   1  13
BRANCH   7  22
ATOM     22  C   UNL     1       5.370   4.052  16.436  0.00  0.00    +0.000 A 
ATOM     23  C   UNL     1       5.228   4.096  15.061  0.00  0.00    +0.000 A 
ATOM     24  C   UNL     1       6.371   4.636  14.405  0.00  0.00    +0.000 A 
ATOM     25  C   UNL     1       7.357   4.981  15.301  0.00  0.00    +0.000 A 
ATOM     26  S   UNL     1       6.895   4.668  16.918  0.00  0.00    +0.000 S 
ENDBRANCH   7  22
TORSDOF 6
ENDMDL
