MODEL 1
REMARK VINA RESULT:      -6.8      0.000      0.000
REMARK  Name = 
REMARK  1 active torsions:
REMARK  status: ('A' for Active; 'I' for Inactive)
REMARK    1  A    between atoms: C_12  and  O_13
REMARK                            x       y       z     vdW  Elec       q    Type
REMARK                         _______ _______ _______ _____ _____    ______ ____
ROOT
ATOM      1  O   UNL     1       2.809   6.628  19.668  0.00  0.00    +0.000 OA
ATOM      2  C   UNL     1       3.088   5.544  19.165  0.00  0.00    +0.000 A 
ATOM      3  C   UNL     1       3.863   5.492  17.902  0.00  0.00    +0.000 A 
ATOM      4  C   UNL     1       4.353   6.691  17.360  0.00  0.00    +0.000 A 
ATOM      5  C   UNL     1       5.127   6.673  16.202  0.00  0.00    +0.000 A 
ATOM      6  C   UNL     1       5.408   5.462  15.576  0.00  0.00    +0.000 A 
ATOM      7  C   UNL     1       4.911   4.269  16.107  0.00  0.00    +0.000 A 
ATOM      8  C   UNL     1       4.137   4.267  17.279  0.00  0.00    +0.000 A 
ATOM      9  S   UNL     1       3.575   2.677  17.857  0.00  0.00    +0.000 S 
ATOM     10  C   UNL     1       2.867   3.085  19.372  0.00  0.00    +0.000 A 
ATOM     11  N   UNL     1       2.412   2.227  20.255  0.00  0.00    +0.000 NA
ATOM     12  C   UNL     1       1.948   3.052  21.221  0.00  0.00    +0.000 A 
ATOM     13  N   UNL     1       2.068   4.357  21.016  0.00  0.00    +0.000 NA
ATOM     14  N   UNL     1       2.686   4.372  19.807  0.00  0.00    +0.000 N 
ENDROOT
BRANCH  12  15
ATOM     15  O   UNL     1       1.392   2.653  22.359  0.00  0.00    +0.000 OA
ATOM     16  H   UNL     1       1.546   3.370  22.994  0.00  0.00    +0.000 HD
ENDBRANCH  12  15
TORSDOF 1
ENDMDL
MODEL 2
REMARK VINA RESULT:      -6.7      1.747      2.383
REMARK  Name = 
REMARK  1 active torsions:
REMARK  status: ('A' for Active; 'I' for Inactive)
REMARK    1  A    between atoms: C_12  and  O_13
REMARK                            x       y       z     vdW  Elec       q    Type
REMARK                         _______ _______ _______ _____ _____    ______ ____
ROOT
ATOM      1  O   UNL     1       3.876   2.004  17.986  0.00  0.00    +0.000 OA
ATOM      2  C   UNL     1       3.681   3.171  18.312  0.00  0.00    +0.000 A 
ATOM      3  C   UNL     1       4.222   4.272  17.480  0.00  0.00    +0.000 A 
ATOM      4  C   UNL     1       4.863   3.955  16.271  0.00  0.00    +0.000 A 
ATOM      5  C   UNL     1       5.337   4.968  15.441  0.00  0.00    +0.000 A 
ATOM      6  C   UNL     1       5.184   6.299  15.818  0.00  0.00    +0.000 A 
ATOM      7  C   UNL     1       4.559   6.616  17.026  0.00  0.00    +0.000 A 
ATOM      8  C   UNL     1       4.065   5.609  17.870  0.00  0.00    +0.000 A 
ATOM      9  S   UNL     1       3.278   6.149  19.375  0.00  0.00    +0.000 S 
ATOM     10  C   UNL     1       2.654   4.670  19.995  0.00  0.00    +0.000 A 
ATOM     11  N   UNL     1       1.873   4.554  21.045  0.00  0.00    +0.000 NA
ATOM     12  C   UNL     1       1.707   3.213  21.112  0.00  0.00    +0.000 A 
ATOM     13  N   UNL     1       2.323   2.477  20.197  0.00  0.00    +0.000 NA
ATOM     14  N   UNL     1       2.931   3.441  19.457  0.00  0.00    +0.000 N 
ENDROOT
BRANCH  12  15
ATOM     15  O   UNL     1       0.969   2.583  22.018  0.00  0.00    +0.000 OA
ATOM     16  H   UNL     1       0.735   1.729  21.621  0.00  0.00    +0.000 HD
ENDBRANCH  12  15
TORSDOF 1
ENDMDL
MODEL 3
REMARK VINA RESULT:      -6.5      3.396      5.531
REMARK  Name = 
REMARK  1 active torsions:
REMARK  status: ('A' for Active; 'I' for Inactive)
REMARK    1  A    between atoms: C_12  and  O_13
REMARK                            x       y       z     vdW  Elec       q    Type
REMARK                         _______ _______ _______ _____ _____    ______ ____
ROOT
ATOM      1  O   UNL     1       4.156   2.590  17.365  0.00  0.00    +0.000 OA
ATOM      2  C   UNL     1       4.118   3.806  17.529  0.00  0.00    +0.000 A 
ATOM      3  C   UNL     1       3.216   4.387  18.552  0.00  0.00    +0.000 A 
ATOM      4  C   UNL     1       2.494   3.519  19.388  0.00  0.00    +0.000 A 
ATOM      5  C   UNL     1       1.677   4.031  20.393  0.00  0.00    +0.000 A 
ATOM      6  C   UNL     1       1.568   5.409  20.561  0.00  0.00    +0.000 A 
ATOM      7  C   UNL     1       2.275   6.273  19.722  0.00  0.00    +0.000 A 
ATOM      8  C   UNL     1       3.112   5.775  18.711  0.00  0.00    +0.000 A 
ATOM      9  S   UNL     1       3.965   6.985  17.718  0.00  0.00    +0.000 S 
ATOM     10  C   UNL     1       5.004   5.992  16.772  0.00  0.00    +0.000 A 
ATOM     11  N   UNL     1       5.938   6.426  15.957  0.00  0.00    +0.000 NA
ATOM     12  C   UNL     1       6.422   5.266  15.457  0.00  0.00    +0.000 A 
ATOM     13  N   UNL     1       5.866   4.140  15.883  0.00  0.00    +0.000 NA
ATOM     14  N   UNL     1       4.946   4.622  16.758  0.00  0.00    +0.000 N 
ENDROOT
BRANCH  12  15
ATOM     15  O   UNL     1       7.414   5.173  14.579  0.00  0.00    +0.000 OA
ATOM     16  H   UNL     1       7.897   4.363  14.811  0.00  0.00    +0.000 HD
ENDBRANCH  12  15
TORSDOF 1
ENDMDL
MODEL 4
REMARK VINA RESULT:      -6.5      1.828      2.320
REMARK  Name = 
REMARK  1 active torsions:
REMARK  status: ('A' for Active; 'I' for Inactive)
REMARK    1  A    between atoms: C_12  and  O_13
REMARK                            x       y       z     vdW  Elec       q    Type
REMARK                         _______ _______ _______ _____ _____    ______ ____
ROOT
ATOM      1  O   UNL     1       5.282   2.726  19.386  0.00  0.00    +0.000 OA
ATOM      2  C   UNL     1       4.515   3.679  19.277  0.00  0.00    +0.000 A 
ATOM      3  C   UNL     1       4.786   4.735  18.272  0.00  0.00    +0.000 A 
ATOM      4  C   UNL     1       5.867   4.569  17.391  0.00  0.00    +0.000 A 
ATOM      5  C   UNL     1       6.118   5.518  16.402  0.00  0.00    +0.000 A 
ATOM      6  C   UNL     1       5.300   6.638  16.295  0.00  0.00    +0.000 A 
ATOM      7  C   UNL     1       4.233   6.812  17.180  0.00  0.00    +0.000 A 
ATOM      8  C   UNL     1       3.958   5.861  18.175  0.00  0.00    +0.000 A 
ATOM      9  S   UNL     1       2.560   6.197  19.230  0.00  0.00    +0.000 S 
ATOM     10  C   UNL     1       2.451   4.740  20.140  0.00  0.00    +0.000 A 
ATOM     11  N   UNL     1       1.489   4.440  20.983  0.00  0.00    +0.000 NA
ATOM     12  C   UNL     1       1.893   3.230  21.435  0.00  0.00    +0.000 A 
ATOM     13  N   UNL     1       3.030   2.749  20.953  0.00  0.00    +0.000 NA
ATOM     14  N   UNL     1       3.384   3.738  20.091  0.00  0.00    +0.000 N 
ENDROOT
BRANCH  12  15
ATOM     15  O   UNL     1       1.232   2.490  22.317  0.00  0.00    +0.000 OA
ATOM     16  H   UNL     1       1.907   2.110  22.902  0.00  0.00    +0.000 HD
ENDBRANCH  12  15
TORSDOF 1
ENDMDL
MODEL 5
REMARK VINA RESULT:      -6.5      3.087      5.510
REMARK  Name = 
REMARK  1 active torsions:
REMARK  status: ('A' for Active; 'I' for Inactive)
REMARK    1  A    between atoms: C_12  and  O_13
REMARK                            x       y       z     vdW  Elec       q    Type
REMARK                         _______ _______ _______ _____ _____    ______ ____
ROOT
ATOM      1  O   UNL     1       4.006   2.110  17.266  0.00  0.00    +0.000 OA
ATOM      2  C   UNL     1       3.775   3.260  17.629  0.00  0.00    +0.000 A 
ATOM      3  C   UNL     1       2.870   3.506  18.777  0.00  0.00    +0.000 A 
ATOM      4  C   UNL     1       2.373   2.406  19.493  0.00  0.00    +0.000 A 
ATOM      5  C   UNL     1       1.560   2.604  20.608  0.00  0.00    +0.000 A 
ATOM      6  C   UNL     1       1.233   3.897  21.004  0.00  0.00    +0.000 A 
ATOM      7  C   UNL     1       1.716   4.992  20.284  0.00  0.00    +0.000 A 
ATOM      8  C   UNL     1       2.545   4.812  19.165  0.00  0.00    +0.000 A 
ATOM      9  S   UNL     1       3.102   6.293  18.344  0.00  0.00    +0.000 S 
ATOM     10  C   UNL     1       4.218   5.659  17.197  0.00  0.00    +0.000 A 
ATOM     11  N   UNL     1       4.999   6.373  16.420  0.00  0.00    +0.000 NA
ATOM     12  C   UNL     1       5.633   5.409  15.713  0.00  0.00    +0.000 A 
ATOM     13  N   UNL     1       5.310   4.150  15.976  0.00  0.00    +0.000 NA
ATOM     14  N   UNL     1       4.392   4.319  16.963  0.00  0.00    +0.000 N 
ENDROOT
BRANCH  12  15
ATOM     15  O   UNL     1       6.555   5.630  14.784  0.00  0.00    +0.000 OA
ATOM     16  H   UNL     1       6.717   6.587  14.795  0.00  0.00    +0.000 HD
ENDBRANCH  12  15
TORSDOF 1
ENDMDL
MODEL 6
REMARK VINA RESULT:      -6.4      3.182      5.363
REMARK  Name = 
REMARK  1 active torsions:
REMARK  status: ('A' for Active; 'I' for Inactive)
REMARK    1  A    between atoms: C_12  and  O_13
REMARK                            x       y       z     vdW  Elec       q    Type
REMARK                         _______ _______ _______ _____ _____    ______ ____
ROOT
ATOM      1  O   UNL     1       2.723   3.019  16.240  0.00  0.00    +0.000 OA
ATOM      2  C   UNL     1       3.266   3.609  17.169  0.00  0.00    +0.000 A 
ATOM      3  C   UNL     1       2.581   3.717  18.479  0.00  0.00    +0.000 A 
ATOM      4  C   UNL     1       1.358   3.048  18.659  0.00  0.00    +0.000 A 
ATOM      5  C   UNL     1       0.713   3.088  19.893  0.00  0.00    +0.000 A 
ATOM      6  C   UNL     1       1.277   3.801  20.946  0.00  0.00    +0.000 A 
ATOM      7  C   UNL     1       2.486   4.478  20.765  0.00  0.00    +0.000 A 
ATOM      8  C   UNL     1       3.156   4.440  19.531  0.00  0.00    +0.000 A 
ATOM      9  S   UNL     1       4.694   5.336  19.436  0.00  0.00    +0.000 S 
ATOM     10  C   UNL     1       5.271   4.878  17.881  0.00  0.00    +0.000 A 
ATOM     11  N   UNL     1       6.448   5.183  17.385  0.00  0.00    +0.000 NA
ATOM     12  C   UNL     1       6.380   4.619  16.157  0.00  0.00    +0.000 A 
ATOM     13  N   UNL     1       5.256   3.992  15.837  0.00  0.00    +0.000 NA
ATOM     14  N   UNL     1       4.537   4.152  16.979  0.00  0.00    +0.000 N 
ENDROOT
BRANCH  12  15
ATOM     15  O   UNL     1       7.354   4.642  15.256  0.00  0.00    +0.000 OA
ATOM     16  H   UNL     1       8.089   5.119  15.673  0.00  0.00    +0.000 HD
ENDBRANCH  12  15
TORSDOF 1
ENDMDL
MODEL 7
REMARK VINA RESULT:      -6.4      2.588      3.639
REMARK  Name = 
REMARK  1 active torsions:
REMARK  status: ('A' for Active; 'I' for Inactive)
REMARK    1  A    between atoms: C_12  and  O_13
REMARK                            x       y       z     vdW  Elec       q    Type
REMARK                         _______ _______ _______ _____ _____    ______ ____
ROOT
ATOM      1  O   UNL     1       4.197   5.403  16.770  0.00  0.00    +0.000 OA
ATOM      2  C   UNL     1       3.599   5.258  17.833  0.00  0.00    +0.000 A 
ATOM      3  C   UNL     1       2.941   6.420  18.476  0.00  0.00    +0.000 A 
ATOM      4  C   UNL     1       2.930   7.651  17.799  0.00  0.00    +0.000 A 
ATOM      5  C   UNL     1       2.278   8.751  18.353  0.00  0.00    +0.000 A 
ATOM      6  C   UNL     1       1.644   8.630  19.586  0.00  0.00    +0.000 A 
ATOM      7  C   UNL     1       1.665   7.410  20.267  0.00  0.00    +0.000 A 
ATOM      8  C   UNL     1       2.309   6.289  19.719  0.00  0.00    +0.000 A 
ATOM      9  S   UNL     1       2.252   4.791  20.684  0.00  0.00    +0.000 S 
ATOM     10  C   UNL     1       2.950   3.650  19.601  0.00  0.00    +0.000 A 
ATOM     11  N   UNL     1       3.023   2.354  19.803  0.00  0.00    +0.000 NA
ATOM     12  C   UNL     1       3.673   1.942  18.691  0.00  0.00    +0.000 A 
ATOM     13  N   UNL     1       4.021   2.871  17.810  0.00  0.00    +0.000 NA
ATOM     14  N   UNL     1       3.530   3.988  18.407  0.00  0.00    +0.000 N 
ENDROOT
BRANCH  12  15
ATOM     15  O   UNL     1       3.979   0.681  18.414  0.00  0.00    +0.000 OA
ATOM     16  H   UNL     1       4.535   0.712  17.619  0.00  0.00    +0.000 HD
ENDBRANCH  12  15
TORSDOF 1
ENDMDL
MODEL 8
REMARK VINA RESULT:      -6.4      2.963      5.041
REMARK  Name = 
REMARK  1 active torsions:
REMARK  status: ('A' for Active; 'I' for Inactive)
REMARK    1  A    between atoms: C_12  and  O_13
REMARK                            x       y       z     vdW  Elec       q    Type
REMARK                         _______ _______ _______ _____ _____    ______ ____
ROOT
ATOM      1  O   UNL     1       5.471   5.526  19.737  0.00  0.00    +0.000 OA
ATOM      2  C   UNL     1       4.791   4.935  18.902  0.00  0.00    +0.000 A 
ATOM      3  C   UNL     1       3.437   4.449  19.260  0.00  0.00    +0.000 A 
ATOM      4  C   UNL     1       2.917   4.766  20.526  0.00  0.00    +0.000 A 
ATOM      5  C   UNL     1       1.629   4.368  20.876  0.00  0.00    +0.000 A 
ATOM      6  C   UNL     1       0.859   3.644  19.970  0.00  0.00    +0.000 A 
ATOM      7  C   UNL     1       1.379   3.316  18.715  0.00  0.00    +0.000 A 
ATOM      8  C   UNL     1       2.672   3.719  18.342  0.00  0.00    +0.000 A 
ATOM      9  S   UNL     1       3.210   3.246  16.710  0.00  0.00    +0.000 S 
ATOM     10  C   UNL     1       4.708   4.082  16.579  0.00  0.00    +0.000 A 
ATOM     11  N   UNL     1       5.448   4.155  15.495  0.00  0.00    +0.000 NA
ATOM     12  C   UNL     1       6.500   4.883  15.934  0.00  0.00    +0.000 A 
ATOM     13  N   UNL     1       6.488   5.268  17.203  0.00  0.00    +0.000 NA
ATOM     14  N   UNL     1       5.301   4.752  17.617  0.00  0.00    +0.000 N 
ENDROOT
BRANCH  12  15
ATOM     15  O   UNL     1       7.536   5.245  15.187  0.00  0.00    +0.000 OA
ATOM     16  H   UNL     1       8.074   5.828  15.747  0.00  0.00    +0.000 HD
ENDBRANCH  12  15
TORSDOF 1
ENDMDL
MODEL 9
REMARK VINA RESULT:      -6.4      2.617      3.020
REMARK  Name = 
REMARK  1 active torsions:
REMARK  status: ('A' for Active; 'I' for Inactive)
REMARK    1  A    between atoms: C_12  and  O_13
REMARK                            x       y       z     vdW  Elec       q    Type
REMARK                         _______ _______ _______ _____ _____    ______ ____
ROOT
ATOM      1  O   UNL     1       5.165   2.874  19.850  0.00  0.00    +0.000 OA
ATOM      2  C   UNL     1       4.671   3.733  19.125  0.00  0.00    +0.000 A 
ATOM      3  C   UNL     1       5.498   4.872  18.659  0.00  0.00    +0.000 A 
ATOM      4  C   UNL     1       6.866   4.889  18.976  0.00  0.00    +0.000 A 
ATOM      5  C   UNL     1       7.681   5.919  18.511  0.00  0.00    +0.000 A 
ATOM      6  C   UNL     1       7.134   6.938  17.738  0.00  0.00    +0.000 A 
ATOM      7  C   UNL     1       5.771   6.930  17.432  0.00  0.00    +0.000 A 
ATOM      8  C   UNL     1       4.936   5.894  17.884  0.00  0.00    +0.000 A 
ATOM      9  S   UNL     1       3.220   5.997  17.414  0.00  0.00    +0.000 S 
ATOM     10  C   UNL     1       2.613   4.486  17.972  0.00  0.00    +0.000 A 
ATOM     11  N   UNL     1       1.404   4.023  17.752  0.00  0.00    +0.000 NA
ATOM     12  C   UNL     1       1.439   2.846  18.417  0.00  0.00    +0.000 A 
ATOM     13  N   UNL     1       2.566   2.534  19.043  0.00  0.00    +0.000 NA
ATOM     14  N   UNL     1       3.338   3.608  18.734  0.00  0.00    +0.000 N 
ENDROOT
BRANCH  12  15
ATOM     15  O   UNL     1       0.435   1.980  18.483  0.00  0.00    +0.000 OA
ATOM     16  H   UNL     1       0.513   1.550  19.349  0.00  0.00    +0.000 HD
ENDBRANCH  12  15
TORSDOF 1
ENDMDL
