MODEL 1
REMARK VINA RESULT:      -8.0      0.000      0.000
REMARK  Name = 
REMARK  4 active torsions:
REMARK  status: ('A' for Active; 'I' for Inactive)
REMARK    1  A    between atoms: C_2  and  C_5
REMARK    2  A    between atoms: C_7  and  C_8
REMARK    3  A    between atoms: C_15  and  C_16
REMARK    4  A    between atoms: C_19  and  N_20
REMARK                            x       y       z     vdW  Elec       q    Type
REMARK                         _______ _______ _______ _____ _____    ______ ____
ROOT
ATOM      1  C   UNL     1       3.279   5.479  17.761  0.00  0.00    +0.000 A 
ATOM      2  C   UNL     1       4.174   4.901  16.818  0.00  0.00    +0.000 A 
ATOM      3  C   UNL     1       5.000   5.671  15.995  0.00  0.00    +0.000 A 
ATOM      4  C   UNL     1       4.871   7.055  16.066  0.00  0.00    +0.000 A 
ATOM      5  C   UNL     1       3.969   7.646  16.957  0.00  0.00    +0.000 A 
ATOM      6  C   UNL     1       3.171   6.891  17.849  0.00  0.00    +0.000 A 
ENDROOT
BRANCH   3   7
ATOM      7  C   UNL     1       5.999   5.075  15.111  0.00  0.00    +0.000 A 
ATOM      8  N   UNL     1       5.815   4.103  14.236  0.00  0.00    +0.000 NA
ATOM      9  N   UNL     1       7.014   3.916  13.593  0.00  0.00    +0.000 NA
ATOM     10  N   UNL     1       7.933   4.747  14.056  0.00  0.00    +0.000 NA
ATOM     11  N   UNL     1       7.308   5.464  14.998  0.00  0.00    +0.000 N 
ATOM     12  H   UNL     1       7.821   6.183  15.489  0.00  0.00    +0.000 HD
ENDBRANCH   3   7
BRANCH   6  13
ATOM     13  C   UNL     1       2.330   7.629  18.837  0.00  0.00    +0.000 A 
ATOM     14  C   UNL     1       2.137   7.195  20.154  0.00  0.00    +0.000 A 
ATOM     15  C   UNL     1       1.423   7.951  21.093  0.00  0.00    +0.000 A 
ATOM     16  C   UNL     1       0.793   9.139  20.718  0.00  0.00    +0.000 A 
ATOM     17  C   UNL     1       0.890   9.553  19.388  0.00  0.00    +0.000 A 
ATOM     18  C   UNL     1       1.667   8.820  18.476  0.00  0.00    +0.000 A 
BRANCH  16  19
ATOM     19  N   UNL     1       0.070   9.903  21.676  0.00  0.00    +0.000 N 
ATOM     20  C   UNL     1      -0.481  11.153  21.499  0.00  0.00    +0.000 A 
ATOM     21  C   UNL     1      -1.097  11.474  22.685  0.00  0.00    +0.000 A 
ATOM     22  N   UNL     1      -0.949  10.469  23.596  0.00  0.00    +0.000 NA
ATOM     23  C   UNL     1      -0.252   9.546  22.968  0.00  0.00    +0.000 A 
ENDBRANCH  16  19
ENDBRANCH   6  13
BRANCH   1  25
ATOM     24  F   UNL     1       2.668   3.203  18.231  0.00  0.00    +0.000 F 
ATOM     25  C   UNL     1       2.525   4.500  18.643  0.00  0.00    +0.000 C 
ATOM     26  F   UNL     1       1.176   4.705  18.638  0.00  0.00    +0.000 F 
ATOM     27  F   UNL     1       2.923   4.504  19.941  0.00  0.00    +0.000 F 
ENDBRANCH   1  25
TORSDOF 4
ENDMDL
MODEL 2
REMARK VINA RESULT:      -7.9      1.147      1.338
REMARK  Name = 
REMARK  4 active torsions:
REMARK  status: ('A' for Active; 'I' for Inactive)
REMARK    1  A    between atoms: C_2  and  C_5
REMARK    2  A    between atoms: C_7  and  C_8
REMARK    3  A    between atoms: C_15  and  C_16
REMARK    4  A    between atoms: C_19  and  N_20
REMARK                            x       y       z     vdW  Elec       q    Type
REMARK                         _______ _______ _______ _____ _____    ______ ____
ROOT
ATOM      1  C   UNL     1       2.766   5.934  18.858  0.00  0.00    +0.000 A 
ATOM      2  C   UNL     1       3.717   5.240  18.060  0.00  0.00    +0.000 A 
ATOM      3  C   UNL     1       4.504   5.882  17.100  0.00  0.00    +0.000 A 
ATOM      4  C   UNL     1       4.279   7.237  16.883  0.00  0.00    +0.000 A 
ATOM      5  C   UNL     1       3.320   7.933  17.628  0.00  0.00    +0.000 A 
ATOM      6  C   UNL     1       2.559   7.322  18.652  0.00  0.00    +0.000 A 
ENDROOT
BRANCH   3   7
ATOM      7  C   UNL     1       5.560   5.191  16.363  0.00  0.00    +0.000 A 
ATOM      8  N   UNL     1       5.518   3.968  15.864  0.00  0.00    +0.000 NA
ATOM      9  N   UNL     1       6.707   3.768  15.206  0.00  0.00    +0.000 NA
ATOM     10  N   UNL     1       7.482   4.837  15.294  0.00  0.00    +0.000 NA
ATOM     11  N   UNL     1       6.775   5.717  16.012  0.00  0.00    +0.000 N 
ATOM     12  H   UNL     1       7.171   6.628  16.200  0.00  0.00    +0.000 HD
ENDBRANCH   3   7
BRANCH   6  13
ATOM     13  C   UNL     1       1.649   8.185  19.462  0.00  0.00    +0.000 A 
ATOM     14  C   UNL     1       1.543   8.090  20.855  0.00  0.00    +0.000 A 
ATOM     15  C   UNL     1       0.756   8.973  21.606  0.00  0.00    +0.000 A 
ATOM     16  C   UNL     1      -0.033   9.936  20.974  0.00  0.00    +0.000 A 
ATOM     17  C   UNL     1      -0.019   9.997  19.579  0.00  0.00    +0.000 A 
ATOM     18  C   UNL     1       0.828   9.151  18.845  0.00  0.00    +0.000 A 
BRANCH  16  19
ATOM     19  N   UNL     1      -0.830  10.831  21.741  0.00  0.00    +0.000 N 
ATOM     20  C   UNL     1      -1.485  11.955  21.293  0.00  0.00    +0.000 A 
ATOM     21  C   UNL     1      -2.139  12.481  22.381  0.00  0.00    +0.000 A 
ATOM     22  N   UNL     1      -1.913  11.724  23.494  0.00  0.00    +0.000 NA
ATOM     23  C   UNL     1      -1.132  10.747  23.084  0.00  0.00    +0.000 A 
ENDBRANCH  16  19
ENDBRANCH   6  13
BRANCH   1  25
ATOM     24  F   UNL     1       2.288   3.763  19.772  0.00  0.00    +0.000 F 
ATOM     25  C   UNL     1       2.064   5.105  19.919  0.00  0.00    +0.000 C 
ATOM     26  F   UNL     1       0.706   5.224  19.879  0.00  0.00    +0.000 F 
ATOM     27  F   UNL     1       2.451   5.390  21.190  0.00  0.00    +0.000 F 
ENDBRANCH   1  25
TORSDOF 4
ENDMDL
MODEL 3
REMARK VINA RESULT:      -7.9      1.357      1.852
REMARK  Name = 
REMARK  4 active torsions:
REMARK  status: ('A' for Active; 'I' for Inactive)
REMARK    1  A    between atoms: C_2  and  C_5
REMARK    2  A    between atoms: C_7  and  C_8
REMARK    3  A    between atoms: C_15  and  C_16
REMARK    4  A    between atoms: C_19  and  N_20
REMARK                            x       y       z     vdW  Elec       q    Type
REMARK                         _______ _______ _______ _____ _____    ______ ____
ROOT
ATOM      1  C   UNL     1       2.702   5.895  19.072  0.00  0.00    +0.000 A 
ATOM      2  C   UNL     1       3.663   5.165  18.320  0.00  0.00    +0.000 A 
ATOM      3  C   UNL     1       4.493   5.770  17.372  0.00  0.00    +0.000 A 
ATOM      4  C   UNL     1       4.302   7.125  17.119  0.00  0.00    +0.000 A 
ATOM      5  C   UNL     1       3.335   7.855  17.818  0.00  0.00    +0.000 A 
ATOM      6  C   UNL     1       2.529   7.282  18.830  0.00  0.00    +0.000 A 
ENDROOT
BRANCH   3   7
ATOM      7  C   UNL     1       5.558   5.042  16.684  0.00  0.00    +0.000 A 
ATOM      8  N   UNL     1       5.425   4.181  15.691  0.00  0.00    +0.000 NA
ATOM      9  N   UNL     1       6.692   3.799  15.326  0.00  0.00    +0.000 NA
ATOM     10  N   UNL     1       7.602   4.400  16.076  0.00  0.00    +0.000 NA
ATOM     11  N   UNL     1       6.901   5.168  16.919  0.00  0.00    +0.000 N 
ATOM     12  H   UNL     1       7.396   5.739  17.590  0.00  0.00    +0.000 HD
ENDBRANCH   3   7
BRANCH   6  13
ATOM     13  C   UNL     1       1.612   8.180  19.592  0.00  0.00    +0.000 A 
ATOM     14  C   UNL     1       1.499   8.153  20.988  0.00  0.00    +0.000 A 
ATOM     15  C   UNL     1       0.704   9.069  21.690  0.00  0.00    +0.000 A 
ATOM     16  C   UNL     1      -0.085   9.996  21.007  0.00  0.00    +0.000 A 
ATOM     17  C   UNL     1      -0.064   9.989  19.611  0.00  0.00    +0.000 A 
ATOM     18  C   UNL     1       0.791   9.111  18.924  0.00  0.00    +0.000 A 
BRANCH  16  19
ATOM     19  N   UNL     1      -0.889  10.925  21.726  0.00  0.00    +0.000 N 
ATOM     20  C   UNL     1      -1.182  10.905  23.070  0.00  0.00    +0.000 A 
ATOM     21  C   UNL     1      -1.967  12.008  23.311  0.00  0.00    +0.000 A 
ATOM     22  N   UNL     1      -2.175  12.714  22.161  0.00  0.00    +0.000 NA
ATOM     23  C   UNL     1      -1.520  12.048  21.234  0.00  0.00    +0.000 A 
ENDBRANCH  16  19
ENDBRANCH   6  13
BRANCH   1  25
ATOM     24  F   UNL     1       2.480   5.260  21.380  0.00  0.00    +0.000 F 
ATOM     25  C   UNL     1       1.950   5.103  20.128  0.00  0.00    +0.000 C 
ATOM     26  F   UNL     1       1.987   3.757  19.915  0.00  0.00    +0.000 F 
ATOM     27  F   UNL     1       0.643   5.450  20.253  0.00  0.00    +0.000 F 
ENDBRANCH   1  25
TORSDOF 4
ENDMDL
MODEL 4
REMARK VINA RESULT:      -7.9      0.700      1.247
REMARK  Name = 
REMARK  4 active torsions:
REMARK  status: ('A' for Active; 'I' for Inactive)
REMARK    1  A    between atoms: C_2  and  C_5
REMARK    2  A    between atoms: C_7  and  C_8
REMARK    3  A    between atoms: C_15  and  C_16
REMARK    4  A    between atoms: C_19  and  N_20
REMARK                            x       y       z     vdW  Elec       q    Type
REMARK                         _______ _______ _______ _____ _____    ______ ____
ROOT
ATOM      1  C   UNL     1       3.104   5.828  18.284  0.00  0.00    +0.000 A 
ATOM      2  C   UNL     1       4.033   5.213  17.400  0.00  0.00    +0.000 A 
ATOM      3  C   UNL     1       4.784   5.939  16.472  0.00  0.00    +0.000 A 
ATOM      4  C   UNL     1       4.543   7.306  16.377  0.00  0.00    +0.000 A 
ATOM      5  C   UNL     1       3.605   7.928  17.209  0.00  0.00    +0.000 A 
ATOM      6  C   UNL     1       2.881   7.227  18.202  0.00  0.00    +0.000 A 
ENDROOT
BRANCH   3   7
ATOM      7  C   UNL     1       5.820   5.322  15.646  0.00  0.00    +0.000 A 
ATOM      8  N   UNL     1       7.120   5.555  15.688  0.00  0.00    +0.000 NA
ATOM      9  N   UNL     1       7.704   4.708  14.779  0.00  0.00    +0.000 NA
ATOM     10  N   UNL     1       6.793   3.962  14.175  0.00  0.00    +0.000 NA
ATOM     11  N   UNL     1       5.626   4.344  14.708  0.00  0.00    +0.000 N 
ATOM     12  H   UNL     1       4.775   3.894  14.401  0.00  0.00    +0.000 HD
ENDBRANCH   3   7
BRANCH   6  13
ATOM     13  C   UNL     1       1.993   8.010  19.110  0.00  0.00    +0.000 A 
ATOM     14  C   UNL     1       1.876   7.748  20.481  0.00  0.00    +0.000 A 
ATOM     15  C   UNL     1       1.112   8.556  21.333  0.00  0.00    +0.000 A 
ATOM     16  C   UNL     1       0.354   9.611  20.822  0.00  0.00    +0.000 A 
ATOM     17  C   UNL     1       0.377   9.842  19.445  0.00  0.00    +0.000 A 
ATOM     18  C   UNL     1       1.203   9.068  18.614  0.00  0.00    +0.000 A 
BRANCH  16  19
ATOM     19  N   UNL     1      -0.420  10.428  21.692  0.00  0.00    +0.000 N 
ATOM     20  C   UNL     1      -1.076  11.596  21.373  0.00  0.00    +0.000 A 
ATOM     21  C   UNL     1      -1.704  12.013  22.522  0.00  0.00    +0.000 A 
ATOM     22  N   UNL     1      -1.462  11.146  23.548  0.00  0.00    +0.000 NA
ATOM     23  C   UNL     1      -0.697  10.211  23.026  0.00  0.00    +0.000 A 
ENDBRANCH  16  19
ENDBRANCH   6  13
BRANCH   1  25
ATOM     24  F   UNL     1       2.839   5.163  20.577  0.00  0.00    +0.000 F 
ATOM     25  C   UNL     1       2.442   4.907  19.293  0.00  0.00    +0.000 C 
ATOM     26  F   UNL     1       2.754   3.593  19.103  0.00  0.00    +0.000 F 
ATOM     27  F   UNL     1       1.088   4.995  19.317  0.00  0.00    +0.000 F 
ENDBRANCH   1  25
TORSDOF 4
ENDMDL
MODEL 5
REMARK VINA RESULT:      -7.8      4.438      8.926
REMARK  Name = 
REMARK  4 active torsions:
REMARK  status: ('A' for Active; 'I' for Inactive)
REMARK    1  A    between atoms: C_2  and  C_5
REMARK    2  A    between atoms: C_7  and  C_8
REMARK    3  A    between atoms: C_15  and  C_16
REMARK    4  A    between atoms: C_19  and  N_20
REMARK                            x       y       z     vdW  Elec       q    Type
REMARK                         _______ _______ _______ _____ _____    ______ ____
ROOT
ATOM      1  C   UNL     1      -0.461  11.622  18.635  0.00  0.00    +0.000 A 
ATOM      2  C   UNL     1      -0.821  12.998  18.657  0.00  0.00    +0.000 A 
ATOM      3  C   UNL     1       0.084  14.007  18.998  0.00  0.00    +0.000 A 
ATOM      4  C   UNL     1       1.359  13.621  19.400  0.00  0.00    +0.000 A 
ATOM      5  C   UNL     1       1.724  12.270  19.426  0.00  0.00    +0.000 A 
ATOM      6  C   UNL     1       0.849  11.235  19.020  0.00  0.00    +0.000 A 
ENDROOT
BRANCH   3   7
ATOM      7  C   UNL     1      -0.254  15.426  18.908  0.00  0.00    +0.000 A 
ATOM      8  N   UNL     1       0.477  16.390  18.376  0.00  0.00    +0.000 NA
ATOM      9  N   UNL     1      -0.264  17.543  18.462  0.00  0.00    +0.000 NA
ATOM     10  N   UNL     1      -1.432  17.312  19.040  0.00  0.00    +0.000 NA
ATOM     11  N   UNL     1      -1.426  16.003  19.320  0.00  0.00    +0.000 N 
ATOM     12  H   UNL     1      -2.236  15.592  19.762  0.00  0.00    +0.000 HD
ENDBRANCH   3   7
BRANCH   6  13
ATOM     13  C   UNL     1       1.380   9.841  18.976  0.00  0.00    +0.000 A 
ATOM     14  C   UNL     1       1.988   9.288  17.842  0.00  0.00    +0.000 A 
ATOM     15  C   UNL     1       2.566   8.012  17.851  0.00  0.00    +0.000 A 
ATOM     16  C   UNL     1       2.476   7.199  18.982  0.00  0.00    +0.000 A 
ATOM     17  C   UNL     1       1.797   7.686  20.101  0.00  0.00    +0.000 A 
ATOM     18  C   UNL     1       1.283   8.994  20.099  0.00  0.00    +0.000 A 
BRANCH  16  19
ATOM     19  N   UNL     1       3.066   5.904  18.987  0.00  0.00    +0.000 N 
ATOM     20  C   UNL     1       3.023   4.974  20.000  0.00  0.00    +0.000 A 
ATOM     21  C   UNL     1       3.708   3.873  19.543  0.00  0.00    +0.000 A 
ATOM     22  N   UNL     1       4.179   4.086  18.279  0.00  0.00    +0.000 NA
ATOM     23  C   UNL     1       3.780   5.302  17.972  0.00  0.00    +0.000 A 
ENDBRANCH  16  19
ENDBRANCH   6  13
BRANCH   1  25
ATOM     24  F   UNL     1      -1.163   9.986  17.021  0.00  0.00    +0.000 F 
ATOM     25  C   UNL     1      -1.535  10.666  18.149  0.00  0.00    +0.000 C 
ATOM     26  F   UNL     1      -2.691  11.296  17.794  0.00  0.00    +0.000 F 
ATOM     27  F   UNL     1      -1.866   9.703  19.048  0.00  0.00    +0.000 F 
ENDBRANCH   1  25
TORSDOF 4
ENDMDL
MODEL 6
REMARK VINA RESULT:      -7.8      1.988      2.395
REMARK  Name = 
REMARK  4 active torsions:
REMARK  status: ('A' for Active; 'I' for Inactive)
REMARK    1  A    between atoms: C_2  and  C_5
REMARK    2  A    between atoms: C_7  and  C_8
REMARK    3  A    between atoms: C_15  and  C_16
REMARK    4  A    between atoms: C_19  and  N_20
REMARK                            x       y       z     vdW  Elec       q    Type
REMARK                         _______ _______ _______ _____ _____    ______ ____
ROOT
ATOM      1  C   UNL     1       2.989   6.221  19.134  0.00  0.00    +0.000 A 
ATOM      2  C   UNL     1       4.112   5.449  18.725  0.00  0.00    +0.000 A 
ATOM      3  C   UNL     1       5.029   5.901  17.773  0.00  0.00    +0.000 A 
ATOM      4  C   UNL     1       4.773   7.124  17.161  0.00  0.00    +0.000 A 
ATOM      5  C   UNL     1       3.652   7.883  17.517  0.00  0.00    +0.000 A 
ATOM      6  C   UNL     1       2.746   7.480  18.526  0.00  0.00    +0.000 A 
ENDROOT
BRANCH   3   7
ATOM      7  C   UNL     1       6.243   5.159  17.439  0.00  0.00    +0.000 A 
ATOM      8  N   UNL     1       6.729   4.922  16.234  0.00  0.00    +0.000 NA
ATOM      9  N   UNL     1       7.911   4.244  16.409  0.00  0.00    +0.000 NA
ATOM     10  N   UNL     1       8.160   4.054  17.695  0.00  0.00    +0.000 NA
ATOM     11  N   UNL     1       7.127   4.616  18.334  0.00  0.00    +0.000 N 
ATOM     12  H   UNL     1       7.108   4.602  19.344  0.00  0.00    +0.000 HD
ENDBRANCH   3   7
BRANCH   6  13
ATOM     13  C   UNL     1       1.653   8.421  18.907  0.00  0.00    +0.000 A 
ATOM     14  C   UNL     1       1.316   8.707  20.236  0.00  0.00    +0.000 A 
ATOM     15  C   UNL     1       0.351   9.666  20.572  0.00  0.00    +0.000 A 
ATOM     16  C   UNL     1      -0.384  10.314  19.578  0.00  0.00    +0.000 A 
ATOM     17  C   UNL     1      -0.136   9.984  18.244  0.00  0.00    +0.000 A 
ATOM     18  C   UNL     1       0.883   9.072  17.921  0.00  0.00    +0.000 A 
BRANCH  16  19
ATOM     19  N   UNL     1      -1.362  11.287  19.925  0.00  0.00    +0.000 N 
ATOM     20  C   UNL     1      -2.416  11.720  19.152  0.00  0.00    +0.000 A 
ATOM     21  C   UNL     1      -3.098  12.642  19.910  0.00  0.00    +0.000 A 
ATOM     22  N   UNL     1      -2.504  12.800  21.130  0.00  0.00    +0.000 NA
ATOM     23  C   UNL     1      -1.475  11.980  21.112  0.00  0.00    +0.000 A 
ENDBRANCH  16  19
ENDBRANCH   6  13
BRANCH   1  25
ATOM     24  F   UNL     1       2.736   4.532  20.825  0.00  0.00    +0.000 F 
ATOM     25  C   UNL     1       2.147   5.624  20.247  0.00  0.00    +0.000 C 
ATOM     26  F   UNL     1       0.939   5.162  19.814  0.00  0.00    +0.000 F 
ATOM     27  F   UNL     1       1.902   6.478  21.274  0.00  0.00    +0.000 F 
ENDBRANCH   1  25
TORSDOF 4
ENDMDL
MODEL 7
REMARK VINA RESULT:      -7.8      4.526      8.944
REMARK  Name = 
REMARK  4 active torsions:
REMARK  status: ('A' for Active; 'I' for Inactive)
REMARK    1  A    between atoms: C_2  and  C_5
REMARK    2  A    between atoms: C_7  and  C_8
REMARK    3  A    between atoms: C_15  and  C_16
REMARK    4  A    between atoms: C_19  and  N_20
REMARK                            x       y       z     vdW  Elec       q    Type
REMARK                         _______ _______ _______ _____ _____    ______ ____
ROOT
ATOM      1  C   UNL     1      -0.550  11.643  18.657  0.00  0.00    +0.000 A 
ATOM      2  C   UNL     1      -0.916  13.018  18.653  0.00  0.00    +0.000 A 
ATOM      3  C   UNL     1      -0.039  14.031  19.049  0.00  0.00    +0.000 A 
ATOM      4  C   UNL     1       1.210  13.651  19.529  0.00  0.00    +0.000 A 
ATOM      5  C   UNL     1       1.578  12.301  19.580  0.00  0.00    +0.000 A 
ATOM      6  C   UNL     1       0.734  11.262  19.123  0.00  0.00    +0.000 A 
ENDROOT
BRANCH   3   7
ATOM      7  C   UNL     1      -0.376  15.448  18.935  0.00  0.00    +0.000 A 
ATOM      8  N   UNL     1       0.319  16.389  18.321  0.00  0.00    +0.000 NA
ATOM      9  N   UNL     1      -0.409  17.549  18.420  0.00  0.00    +0.000 NA
ATOM     10  N   UNL     1      -1.534  17.345  19.086  0.00  0.00    +0.000 NA
ATOM     11  N   UNL     1      -1.514  16.046  19.409  0.00  0.00    +0.000 N 
ATOM     12  H   UNL     1      -2.293  15.655  19.920  0.00  0.00    +0.000 HD
ENDBRANCH   3   7
BRANCH   6  13
ATOM     13  C   UNL     1       1.273   9.870  19.114  0.00  0.00    +0.000 A 
ATOM     14  C   UNL     1       1.878   9.289  17.992  0.00  0.00    +0.000 A 
ATOM     15  C   UNL     1       2.463   8.017  18.034  0.00  0.00    +0.000 A 
ATOM     16  C   UNL     1       2.383   7.235  19.188  0.00  0.00    +0.000 A 
ATOM     17  C   UNL     1       1.708   7.750  20.296  0.00  0.00    +0.000 A 
ATOM     18  C   UNL     1       1.187   9.054  20.261  0.00  0.00    +0.000 A 
BRANCH  16  19
ATOM     19  N   UNL     1       2.981   5.944  19.224  0.00  0.00    +0.000 N 
ATOM     20  C   UNL     1       4.040   5.495  18.468  0.00  0.00    +0.000 A 
ATOM     21  C   UNL     1       4.277   4.201  18.866  0.00  0.00    +0.000 A 
ATOM     22  N   UNL     1       3.402   3.826  19.844  0.00  0.00    +0.000 NA
ATOM     23  C   UNL     1       2.642   4.884  20.039  0.00  0.00    +0.000 A 
ENDBRANCH  16  19
ENDBRANCH   6  13
BRANCH   1  25
ATOM     24  F   UNL     1      -2.763  11.304  17.783  0.00  0.00    +0.000 F 
ATOM     25  C   UNL     1      -1.589  10.681  18.107  0.00  0.00    +0.000 C 
ATOM     26  F   UNL     1      -1.956   9.721  19.004  0.00  0.00    +0.000 F 
ATOM     27  F   UNL     1      -1.204  10.041  16.973  0.00  0.00    +0.000 F 
ENDBRANCH   1  25
TORSDOF 4
ENDMDL
MODEL 8
REMARK VINA RESULT:      -7.7      4.509      8.930
REMARK  Name = 
REMARK  4 active torsions:
REMARK  status: ('A' for Active; 'I' for Inactive)
REMARK    1  A    between atoms: C_2  and  C_5
REMARK    2  A    between atoms: C_7  and  C_8
REMARK    3  A    between atoms: C_15  and  C_16
REMARK    4  A    between atoms: C_19  and  N_20
REMARK                            x       y       z     vdW  Elec       q    Type
REMARK                         _______ _______ _______ _____ _____    ______ ____
ROOT
ATOM      1  C   UNL     1      -0.495  11.705  18.676  0.00  0.00    +0.000 A 
ATOM      2  C   UNL     1      -0.873  13.076  18.683  0.00  0.00    +0.000 A 
ATOM      3  C   UNL     1       0.013  14.100  19.025  0.00  0.00    +0.000 A 
ATOM      4  C   UNL     1       1.289  13.735  19.443  0.00  0.00    +0.000 A 
ATOM      5  C   UNL     1       1.672  12.390  19.483  0.00  0.00    +0.000 A 
ATOM      6  C   UNL     1       0.816  11.339  19.078  0.00  0.00    +0.000 A 
ENDROOT
BRANCH   3   7
ATOM      7  C   UNL     1      -0.343  15.514  18.919  0.00  0.00    +0.000 A 
ATOM      8  N   UNL     1       0.378  16.481  18.381  0.00  0.00    +0.000 NA
ATOM      9  N   UNL     1      -0.379  17.625  18.452  0.00  0.00    +0.000 NA
ATOM     10  N   UNL     1      -1.547  17.384  19.026  0.00  0.00    +0.000 NA
ATOM     11  N   UNL     1      -1.525  16.078  19.319  0.00  0.00    +0.000 N 
ATOM     12  H   UNL     1      -2.332  15.660  19.761  0.00  0.00    +0.000 HD
ENDBRANCH   3   7
BRANCH   6  13
ATOM     13  C   UNL     1       1.368   9.952  19.051  0.00  0.00    +0.000 A 
ATOM     14  C   UNL     1       1.306   9.082  20.146  0.00  0.00    +0.000 A 
ATOM     15  C   UNL     1       1.743   7.753  20.070  0.00  0.00    +0.000 A 
ATOM     16  C   UNL     1       2.348   7.269  18.908  0.00  0.00    +0.000 A 
ATOM     17  C   UNL     1       2.507   8.139  17.828  0.00  0.00    +0.000 A 
ATOM     18  C   UNL     1       2.001   9.448  17.896  0.00  0.00    +0.000 A 
BRANCH  16  19
ATOM     19  N   UNL     1       2.789   5.918  18.835  0.00  0.00    +0.000 N 
ATOM     20  C   UNL     1       2.180   4.879  18.171  0.00  0.00    +0.000 A 
ATOM     21  C   UNL     1       2.978   3.776  18.363  0.00  0.00    +0.000 A 
ATOM     22  N   UNL     1       4.065   4.093  19.126  0.00  0.00    +0.000 NA
ATOM     23  C   UNL     1       3.928   5.374  19.392  0.00  0.00    +0.000 A 
ENDBRANCH  16  19
ENDBRANCH   6  13
BRANCH   1  25
ATOM     24  F   UNL     1      -1.176  10.079  17.044  0.00  0.00    +0.000 F 
ATOM     25  C   UNL     1      -1.551  10.729  18.188  0.00  0.00    +0.000 C 
ATOM     26  F   UNL     1      -2.727  11.336  17.858  0.00  0.00    +0.000 F 
ATOM     27  F   UNL     1      -1.845   9.744  19.074  0.00  0.00    +0.000 F 
ENDBRANCH   1  25
TORSDOF 4
ENDMDL
MODEL 9
REMARK VINA RESULT:      -7.7      1.444      2.068
REMARK  Name = 
REMARK  4 active torsions:
REMARK  status: ('A' for Active; 'I' for Inactive)
REMARK    1  A    between atoms: C_2  and  C_5
REMARK    2  A    between atoms: C_7  and  C_8
REMARK    3  A    between atoms: C_15  and  C_16
REMARK    4  A    between atoms: C_19  and  N_20
REMARK                            x       y       z     vdW  Elec       q    Type
REMARK                         _______ _______ _______ _____ _____    ______ ____
ROOT
ATOM      1  C   UNL     1       2.581   6.072  19.180  0.00  0.00    +0.000 A 
ATOM      2  C   UNL     1       3.498   5.283  18.434  0.00  0.00    +0.000 A 
ATOM      3  C   UNL     1       4.315   5.820  17.435  0.00  0.00    +0.000 A 
ATOM      4  C   UNL     1       4.155   7.167  17.127  0.00  0.00    +0.000 A 
ATOM      5  C   UNL     1       3.230   7.956  17.821  0.00  0.00    +0.000 A 
ATOM      6  C   UNL     1       2.439   7.452  18.881  0.00  0.00    +0.000 A 
ENDROOT
BRANCH   3   7
ATOM      7  C   UNL     1       5.338   5.032  16.750  0.00  0.00    +0.000 A 
ATOM      8  N   UNL     1       5.145   4.037  15.903  0.00  0.00    +0.000 NA
ATOM      9  N   UNL     1       6.387   3.641  15.468  0.00  0.00    +0.000 NA
ATOM     10  N   UNL     1       7.338   4.366  16.034  0.00  0.00    +0.000 NA
ATOM     11  N   UNL     1       6.691   5.225  16.830  0.00  0.00    +0.000 N 
ATOM     12  H   UNL     1       7.225   5.897  17.364  0.00  0.00    +0.000 HD
ENDBRANCH   3   7
BRANCH   6  13
ATOM     13  C   UNL     1       1.571   8.409  19.628  0.00  0.00    +0.000 A 
ATOM     14  C   UNL     1       0.755   9.356  18.997  0.00  0.00    +0.000 A 
ATOM     15  C   UNL     1      -0.124  10.179  19.713  0.00  0.00    +0.000 A 
ATOM     16  C   UNL     1      -0.150  10.148  21.108  0.00  0.00    +0.000 A 
ATOM     17  C   UNL     1       0.718   9.279  21.772  0.00  0.00    +0.000 A 
ATOM     18  C   UNL     1       1.543   8.410  21.038  0.00  0.00    +0.000 A 
BRANCH  16  19
ATOM     19  N   UNL     1      -1.045  10.987  21.830  0.00  0.00    +0.000 N 
ATOM     20  C   UNL     1      -1.359  10.912  23.168  0.00  0.00    +0.000 A 
ATOM     21  C   UNL     1      -2.242  11.935  23.416  0.00  0.00    +0.000 A 
ATOM     22  N   UNL     1      -2.491  12.647  22.277  0.00  0.00    +0.000 NA
ATOM     23  C   UNL     1      -1.764  12.061  21.349  0.00  0.00    +0.000 A 
ENDBRANCH  16  19
ENDBRANCH   6  13
BRANCH   1  25
ATOM     24  F   UNL     1       1.666   4.019  20.030  0.00  0.00    +0.000 F 
ATOM     25  C   UNL     1       1.839   5.351  20.292  0.00  0.00    +0.000 C 
ATOM     26  F   UNL     1       0.574   5.822  20.484  0.00  0.00    +0.000 F 
ATOM     27  F   UNL     1       2.468   5.395  21.495  0.00  0.00    +0.000 F 
ENDBRANCH   1  25
TORSDOF 4
ENDMDL
