MODEL 1
REMARK VINA RESULT:      -7.0      0.000      0.000
REMARK  Name = 
REMARK  8 active torsions:
REMARK  status: ('A' for Active; 'I' for Inactive)
REMARK    1  A    between atoms: C_1  and  C_2
REMARK    2  A    between atoms: C_2  and  C_3
REMARK    3  A    between atoms: C_8  and  N_9
REMARK    4  A    between atoms: N_12  and  C_13
REMARK    5  A    between atoms: C_13  and  C_14
REMARK    6  A    between atoms: C_17  and  S_18
REMARK    7  A    between atoms: S_18  and  C_19
REMARK    8  A    between atoms: N_20  and  C_21
REMARK                            x       y       z     vdW  Elec       q    Type
REMARK                         _______ _______ _______ _____ _____    ______ ____
ROOT
ATOM      1  N   UNL     1       9.539   9.887  19.751  0.00  0.00    +0.000 N 
ATOM      2  C   UNL     1       8.698   9.514  18.725  0.00  0.00    +0.000 C 
ATOM      3  O   UNL     1       8.137  10.258  17.932  0.00  0.00    +0.000 OA
ATOM      4  N   UNL     1       8.591   8.144  18.620  0.00  0.00    +0.000 N 
ATOM      5  H   UNL     1      10.167   9.161  20.060  0.00  0.00    +0.000 HD
ATOM      6  H   UNL     1       8.613   7.622  19.484  0.00  0.00    +0.000 HD
ENDROOT
BRANCH   1  12
ATOM      7  C   UNL     1      10.737  12.019  19.491  0.00  0.00    +0.000 A 
ATOM      8  C   UNL     1      10.961  13.339  19.929  0.00  0.00    +0.000 A 
ATOM      9  C   UNL     1      10.283  13.859  21.030  0.00  0.00    +0.000 A 
ATOM     10  C   UNL     1       9.376  13.065  21.714  0.00  0.00    +0.000 A 
ATOM     11  C   UNL     1       9.142  11.753  21.294  0.00  0.00    +0.000 A 
ATOM     12  C   UNL     1       9.796  11.214  20.177  0.00  0.00    +0.000 A 
BRANCH   7  14
ATOM     13  C   UNL     1      11.857  12.757  17.370  0.00  0.00    +0.000 C 
ATOM     14  C   UNL     1      11.465  11.572  18.241  0.00  0.00    +0.000 C 
ENDBRANCH   7  14
ENDBRANCH   1  12
BRANCH   4  15
ATOM     15  C   UNL     1       7.709   7.618  17.595  0.00  0.00    +0.000 C 
BRANCH  15  16
ATOM     16  C   UNL     1       7.049   6.377  18.079  0.00  0.00    +0.000 A 
ATOM     17  N   UNL     1       7.430   5.628  19.099  0.00  0.00    +0.000 NA
ATOM     18  N   UNL     1       6.519   4.609  19.241  0.00  0.00    +0.000 NA
ATOM     19  C   UNL     1       5.599   4.755  18.316  0.00  0.00    +0.000 A 
ATOM     20  N   UNL     1       5.890   5.853  17.551  0.00  0.00    +0.000 N 
ATOM     21  C   UNL     1       5.162   6.379  16.424  0.00  0.00    +0.000 C 
BRANCH  19  22
ATOM     22  S   UNL     1       4.210   3.753  18.086  0.00  0.00    +0.000 S 
ATOM     23  C   UNL     1       4.273   2.730  19.575  0.00  0.00    +0.000 C 
ENDBRANCH  19  22
ENDBRANCH  15  16
ENDBRANCH   4  15
TORSDOF 5
ENDMDL
MODEL 2
REMARK VINA RESULT:      -6.9      7.104     10.053
REMARK  Name = 
REMARK  8 active torsions:
REMARK  status: ('A' for Active; 'I' for Inactive)
REMARK    1  A    between atoms: C_1  and  C_2
REMARK    2  A    between atoms: C_2  and  C_3
REMARK    3  A    between atoms: C_8  and  N_9
REMARK    4  A    between atoms: N_12  and  C_13
REMARK    5  A    between atoms: C_13  and  C_14
REMARK    6  A    between atoms: C_17  and  S_18
REMARK    7  A    between atoms: S_18  and  C_19
REMARK    8  A    between atoms: N_20  and  C_21
REMARK                            x       y       z     vdW  Elec       q    Type
REMARK                         _______ _______ _______ _____ _____    ______ ____
ROOT
ATOM      1  N   UNL     1       2.625   6.603  19.271  0.00  0.00    +0.000 N 
ATOM      2  C   UNL     1       2.085   7.839  18.991  0.00  0.00    +0.000 C 
ATOM      3  O   UNL     1       1.976   8.356  17.887  0.00  0.00    +0.000 OA
ATOM      4  N   UNL     1       1.585   8.451  20.121  0.00  0.00    +0.000 N 
ATOM      5  H   UNL     1       2.318   6.202  20.145  0.00  0.00    +0.000 HD
ATOM      6  H   UNL     1       2.090   8.292  20.981  0.00  0.00    +0.000 HD
ENDROOT
BRANCH   1  12
ATOM      7  C   UNL     1       2.775   4.477  18.044  0.00  0.00    +0.000 A 
ATOM      8  C   UNL     1       3.455   3.665  17.114  0.00  0.00    +0.000 A 
ATOM      9  C   UNL     1       4.632   4.096  16.505  0.00  0.00    +0.000 A 
ATOM     10  C   UNL     1       5.151   5.342  16.820  0.00  0.00    +0.000 A 
ATOM     11  C   UNL     1       4.491   6.159  17.740  0.00  0.00    +0.000 A 
ATOM     12  C   UNL     1       3.294   5.758  18.351  0.00  0.00    +0.000 A 
BRANCH   7  14
ATOM     13  C   UNL     1       1.411   2.431  18.547  0.00  0.00    +0.000 C 
ATOM     14  C   UNL     1       1.466   3.952  18.594  0.00  0.00    +0.000 C 
ENDBRANCH   7  14
ENDBRANCH   1  12
BRANCH   4  15
ATOM     15  C   UNL     1       1.014   9.775  19.968  0.00  0.00    +0.000 C 
BRANCH  15  16
ATOM     16  C   UNL     1       0.313  10.174  21.216  0.00  0.00    +0.000 A 
ATOM     17  N   UNL     1       0.619   9.803  22.447  0.00  0.00    +0.000 NA
ATOM     18  N   UNL     1      -0.242  10.437  23.309  0.00  0.00    +0.000 NA
ATOM     19  C   UNL     1      -1.052  11.184  22.596  0.00  0.00    +0.000 A 
ATOM     20  N   UNL     1      -0.750  11.051  21.268  0.00  0.00    +0.000 N 
ATOM     21  C   UNL     1      -1.383  11.677  20.136  0.00  0.00    +0.000 C 
BRANCH  19  22
ATOM     22  S   UNL     1      -2.301  12.212  23.209  0.00  0.00    +0.000 S 
ATOM     23  C   UNL     1      -1.400  13.765  23.411  0.00  0.00    +0.000 C 
ENDBRANCH  19  22
ENDBRANCH  15  16
ENDBRANCH   4  15
TORSDOF 5
ENDMDL
MODEL 3
REMARK VINA RESULT:      -6.8      3.628      8.768
REMARK  Name = 
REMARK  8 active torsions:
REMARK  status: ('A' for Active; 'I' for Inactive)
REMARK    1  A    between atoms: C_1  and  C_2
REMARK    2  A    between atoms: C_2  and  C_3
REMARK    3  A    between atoms: C_8  and  N_9
REMARK    4  A    between atoms: N_12  and  C_13
REMARK    5  A    between atoms: C_13  and  C_14
REMARK    6  A    between atoms: C_17  and  S_18
REMARK    7  A    between atoms: S_18  and  C_19
REMARK    8  A    between atoms: N_20  and  C_21
REMARK                            x       y       z     vdW  Elec       q    Type
REMARK                         _______ _______ _______ _____ _____    ______ ____
ROOT
ATOM      1  N   UNL     1       6.748   7.682  16.864  0.00  0.00    +0.000 N 
ATOM      2  C   UNL     1       7.700   8.054  17.789  0.00  0.00    +0.000 C 
ATOM      3  O   UNL     1       8.301   7.315  18.556  0.00  0.00    +0.000 OA
ATOM      4  N   UNL     1       7.982   9.402  17.723  0.00  0.00    +0.000 N 
ATOM      5  H   UNL     1       6.627   8.335  16.104  0.00  0.00    +0.000 HD
ATOM      6  H   UNL     1       7.209  10.015  17.503  0.00  0.00    +0.000 HD
ENDROOT
BRANCH   1  12
ATOM      7  C   UNL     1       4.834   6.158  17.114  0.00  0.00    +0.000 A 
ATOM      8  C   UNL     1       4.290   4.867  16.954  0.00  0.00    +0.000 A 
ATOM      9  C   UNL     1       5.052   3.821  16.438  0.00  0.00    +0.000 A 
ATOM     10  C   UNL     1       6.373   4.046  16.080  0.00  0.00    +0.000 A 
ATOM     11  C   UNL     1       6.929   5.318  16.232  0.00  0.00    +0.000 A 
ATOM     12  C   UNL     1       6.176   6.392  16.729  0.00  0.00    +0.000 A 
BRANCH   7  14
ATOM     13  C   UNL     1       2.670   6.658  18.280  0.00  0.00    +0.000 C 
ATOM     14  C   UNL     1       3.905   7.244  17.611  0.00  0.00    +0.000 C 
ENDBRANCH   7  14
ENDBRANCH   1  12
BRANCH   4  15
ATOM     15  C   UNL     1       8.948   9.931  18.667  0.00  0.00    +0.000 C 
BRANCH  15  16
ATOM     16  C   UNL     1       9.267  11.343  18.332  0.00  0.00    +0.000 A 
ATOM     17  N   UNL     1       8.507  12.184  17.654  0.00  0.00    +0.000 NA
ATOM     18  N   UNL     1       9.148  13.399  17.614  0.00  0.00    +0.000 NA
ATOM     19  C   UNL     1      10.280  13.282  18.268  0.00  0.00    +0.000 A 
ATOM     20  N   UNL     1      10.408  12.002  18.737  0.00  0.00    +0.000 N 
ATOM     21  C   UNL     1      11.490  11.428  19.496  0.00  0.00    +0.000 C 
BRANCH  19  22
ATOM     22  S   UNL     1      11.439  14.535  18.539  0.00  0.00    +0.000 S 
ATOM     23  C   UNL     1      10.783  15.846  17.482  0.00  0.00    +0.000 C 
ENDBRANCH  19  22
ENDBRANCH  15  16
ENDBRANCH   4  15
TORSDOF 5
ENDMDL
MODEL 4
REMARK VINA RESULT:      -6.8      7.406     10.336
REMARK  Name = 
REMARK  8 active torsions:
REMARK  status: ('A' for Active; 'I' for Inactive)
REMARK    1  A    between atoms: C_1  and  C_2
REMARK    2  A    between atoms: C_2  and  C_3
REMARK    3  A    between atoms: C_8  and  N_9
REMARK    4  A    between atoms: N_12  and  C_13
REMARK    5  A    between atoms: C_13  and  C_14
REMARK    6  A    between atoms: C_17  and  S_18
REMARK    7  A    between atoms: S_18  and  C_19
REMARK    8  A    between atoms: N_20  and  C_21
REMARK                            x       y       z     vdW  Elec       q    Type
REMARK                         _______ _______ _______ _____ _____    ______ ____
ROOT
ATOM      1  N   UNL     1       2.578   5.961  20.479  0.00  0.00    +0.000 N 
ATOM      2  C   UNL     1       2.231   7.227  20.059  0.00  0.00    +0.000 C 
ATOM      3  O   UNL     1       2.179   7.626  18.903  0.00  0.00    +0.000 OA
ATOM      4  N   UNL     1       1.859   8.034  21.113  0.00  0.00    +0.000 N 
ATOM      5  H   UNL     1       2.232   5.716  21.394  0.00  0.00    +0.000 HD
ATOM      6  H   UNL     1       2.354   7.896  21.983  0.00  0.00    +0.000 HD
ENDROOT
BRANCH   1  12
ATOM      7  C   UNL     1       2.451   3.656  19.630  0.00  0.00    +0.000 A 
ATOM      8  C   UNL     1       2.970   2.647  18.795  0.00  0.00    +0.000 A 
ATOM      9  C   UNL     1       4.100   2.870  18.010  0.00  0.00    +0.000 A 
ATOM     10  C   UNL     1       4.733   4.103  18.053  0.00  0.00    +0.000 A 
ATOM     11  C   UNL     1       4.232   5.114  18.876  0.00  0.00    +0.000 A 
ATOM     12  C   UNL     1       3.085   4.921  19.659  0.00  0.00    +0.000 A 
BRANCH   7  14
ATOM     13  C   UNL     1       1.473   2.717  21.741  0.00  0.00    +0.000 C 
ATOM     14  C   UNL     1       1.178   3.342  20.385  0.00  0.00    +0.000 C 
ENDBRANCH   7  14
ENDBRANCH   1  12
BRANCH   4  15
ATOM     15  C   UNL     1       1.500   9.407  20.811  0.00  0.00    +0.000 C 
BRANCH  15  16
ATOM     16  C   UNL     1       0.545   9.918  21.828  0.00  0.00    +0.000 A 
ATOM     17  N   UNL     1       0.550   9.649  23.121  0.00  0.00    +0.000 NA
ATOM     18  N   UNL     1      -0.465  10.364  23.709  0.00  0.00    +0.000 NA
ATOM     19  C   UNL     1      -1.068  11.058  22.772  0.00  0.00    +0.000 A 
ATOM     20  N   UNL     1      -0.474  10.809  21.564  0.00  0.00    +0.000 N 
ATOM     21  C   UNL     1      -0.812  11.344  20.270  0.00  0.00    +0.000 C 
BRANCH  19  22
ATOM     22  S   UNL     1      -2.390  12.148  22.996  0.00  0.00    +0.000 S 
ATOM     23  C   UNL     1      -1.520  13.643  23.519  0.00  0.00    +0.000 C 
ENDBRANCH  19  22
ENDBRANCH  15  16
ENDBRANCH   4  15
TORSDOF 5
ENDMDL
MODEL 5
REMARK VINA RESULT:      -6.7      3.404      8.642
REMARK  Name = 
REMARK  8 active torsions:
REMARK  status: ('A' for Active; 'I' for Inactive)
REMARK    1  A    between atoms: C_1  and  C_2
REMARK    2  A    between atoms: C_2  and  C_3
REMARK    3  A    between atoms: C_8  and  N_9
REMARK    4  A    between atoms: N_12  and  C_13
REMARK    5  A    between atoms: C_13  and  C_14
REMARK    6  A    between atoms: C_17  and  S_18
REMARK    7  A    between atoms: S_18  and  C_19
REMARK    8  A    between atoms: N_20  and  C_21
REMARK                            x       y       z     vdW  Elec       q    Type
REMARK                         _______ _______ _______ _____ _____    ______ ____
ROOT
ATOM      1  N   UNL     1       7.015   7.473  16.862  0.00  0.00    +0.000 N 
ATOM      2  C   UNL     1       7.807   7.749  17.955  0.00  0.00    +0.000 C 
ATOM      3  O   UNL     1       8.183   6.955  18.806  0.00  0.00    +0.000 OA
ATOM      4  N   UNL     1       8.222   9.065  17.970  0.00  0.00    +0.000 N 
ATOM      5  H   UNL     1       7.100   8.136  16.106  0.00  0.00    +0.000 HD
ATOM      6  H   UNL     1       7.565   9.749  17.623  0.00  0.00    +0.000 HD
ENDROOT
BRANCH   1  12
ATOM      7  C   UNL     1       5.026   6.036  17.020  0.00  0.00    +0.000 A 
ATOM      8  C   UNL     1       4.397   4.808  16.729  0.00  0.00    +0.000 A 
ATOM      9  C   UNL     1       5.070   3.797  16.046  0.00  0.00    +0.000 A 
ATOM     10  C   UNL     1       6.384   3.994  15.649  0.00  0.00    +0.000 A 
ATOM     11  C   UNL     1       7.022   5.204  15.930  0.00  0.00    +0.000 A 
ATOM     12  C   UNL     1       6.360   6.244  16.597  0.00  0.00    +0.000 A 
BRANCH   7  14
ATOM     13  C   UNL     1       2.818   6.563  18.090  0.00  0.00    +0.000 C 
ATOM     14  C   UNL     1       4.188   7.098  17.698  0.00  0.00    +0.000 C 
ENDBRANCH   7  14
ENDBRANCH   1  12
BRANCH   4  15
ATOM     15  C   UNL     1       9.040   9.496  19.089  0.00  0.00    +0.000 C 
BRANCH  15  16
ATOM     16  C   UNL     1       9.571  10.860  18.834  0.00  0.00    +0.000 A 
ATOM     17  N   UNL     1      10.033  11.325  17.687  0.00  0.00    +0.000 NA
ATOM     18  N   UNL     1      10.374  12.644  17.869  0.00  0.00    +0.000 NA
ATOM     19  C   UNL     1      10.112  12.961  19.116  0.00  0.00    +0.000 A 
ATOM     20  N   UNL     1       9.609  11.870  19.771  0.00  0.00    +0.000 N 
ATOM     21  C   UNL     1       9.196  11.760  21.147  0.00  0.00    +0.000 C 
BRANCH  19  22
ATOM     22  S   UNL     1      10.330  14.514  19.843  0.00  0.00    +0.000 S 
ATOM     23  C   UNL     1      10.469  15.565  18.379  0.00  0.00    +0.000 C 
ENDBRANCH  19  22
ENDBRANCH  15  16
ENDBRANCH   4  15
TORSDOF 5
ENDMDL
MODEL 6
REMARK VINA RESULT:      -6.6      0.782      2.201
REMARK  Name = 
REMARK  8 active torsions:
REMARK  status: ('A' for Active; 'I' for Inactive)
REMARK    1  A    between atoms: C_1  and  C_2
REMARK    2  A    between atoms: C_2  and  C_3
REMARK    3  A    between atoms: C_8  and  N_9
REMARK    4  A    between atoms: N_12  and  C_13
REMARK    5  A    between atoms: C_13  and  C_14
REMARK    6  A    between atoms: C_17  and  S_18
REMARK    7  A    between atoms: S_18  and  C_19
REMARK    8  A    between atoms: N_20  and  C_21
REMARK                            x       y       z     vdW  Elec       q    Type
REMARK                         _______ _______ _______ _____ _____    ______ ____
ROOT
ATOM      1  N   UNL     1       9.707  10.160  19.709  0.00  0.00    +0.000 N 
ATOM      2  C   UNL     1       8.878   9.788  18.673  0.00  0.00    +0.000 C 
ATOM      3  O   UNL     1       8.438  10.513  17.791  0.00  0.00    +0.000 OA
ATOM      4  N   UNL     1       8.625   8.433  18.678  0.00  0.00    +0.000 N 
ATOM      5  H   UNL     1      10.237   9.403  20.112  0.00  0.00    +0.000 HD
ATOM      6  H   UNL     1       8.551   7.991  19.583  0.00  0.00    +0.000 HD
ENDROOT
BRANCH   1  12
ATOM      7  C   UNL     1       9.497  12.154  21.133  0.00  0.00    +0.000 A 
ATOM      8  C   UNL     1       9.908  13.467  21.440  0.00  0.00    +0.000 A 
ATOM      9  C   UNL     1      10.875  14.119  20.677  0.00  0.00    +0.000 A 
ATOM     10  C   UNL     1      11.441  13.471  19.590  0.00  0.00    +0.000 A 
ATOM     11  C   UNL     1      11.045  12.170  19.270  0.00  0.00    +0.000 A 
ATOM     12  C   UNL     1      10.089  11.486  20.035  0.00  0.00    +0.000 A 
BRANCH   7  14
ATOM     13  C   UNL     1       8.530  12.143  23.448  0.00  0.00    +0.000 C 
ATOM     14  C   UNL     1       8.497  11.506  22.066  0.00  0.00    +0.000 C 
ENDBRANCH   7  14
ENDBRANCH   1  12
BRANCH   4  15
ATOM     15  C   UNL     1       7.738   7.913  17.655  0.00  0.00    +0.000 C 
BRANCH  15  16
ATOM     16  C   UNL     1       7.184   6.601  18.080  0.00  0.00    +0.000 A 
ATOM     17  N   UNL     1       7.690   5.789  18.990  0.00  0.00    +0.000 NA
ATOM     18  N   UNL     1       6.844   4.714  19.118  0.00  0.00    +0.000 NA
ATOM     19  C   UNL     1       5.839   4.889  18.293  0.00  0.00    +0.000 A 
ATOM     20  N   UNL     1       6.006   6.062  17.608  0.00  0.00    +0.000 N 
ATOM     21  C   UNL     1       5.156   6.643  16.602  0.00  0.00    +0.000 C 
BRANCH  19  22
ATOM     22  S   UNL     1       4.482   3.835  18.095  0.00  0.00    +0.000 S 
ATOM     23  C   UNL     1       3.423   4.377  19.455  0.00  0.00    +0.000 C 
ENDBRANCH  19  22
ENDBRANCH  15  16
ENDBRANCH   4  15
TORSDOF 5
ENDMDL
MODEL 7
REMARK VINA RESULT:      -6.6      6.898      9.892
REMARK  Name = 
REMARK  8 active torsions:
REMARK  status: ('A' for Active; 'I' for Inactive)
REMARK    1  A    between atoms: C_1  and  C_2
REMARK    2  A    between atoms: C_2  and  C_3
REMARK    3  A    between atoms: C_8  and  N_9
REMARK    4  A    between atoms: N_12  and  C_13
REMARK    5  A    between atoms: C_13  and  C_14
REMARK    6  A    between atoms: C_17  and  S_18
REMARK    7  A    between atoms: S_18  and  C_19
REMARK    8  A    between atoms: N_20  and  C_21
REMARK                            x       y       z     vdW  Elec       q    Type
REMARK                         _______ _______ _______ _____ _____    ______ ____
ROOT
ATOM      1  N   UNL     1       2.504   5.404  20.482  0.00  0.00    +0.000 N 
ATOM      2  C   UNL     1       2.119   6.631  19.987  0.00  0.00    +0.000 C 
ATOM      3  O   UNL     1       1.854   6.900  18.824  0.00  0.00    +0.000 OA
ATOM      4  N   UNL     1       1.982   7.569  20.989  0.00  0.00    +0.000 N 
ATOM      5  H   UNL     1       2.337   5.280  21.469  0.00  0.00    +0.000 HD
ATOM      6  H   UNL     1       2.632   7.504  21.759  0.00  0.00    +0.000 HD
ENDROOT
BRANCH   1  12
ATOM      7  C   UNL     1       4.068   4.137  19.069  0.00  0.00    +0.000 A 
ATOM      8  C   UNL     1       4.351   2.976  18.321  0.00  0.00    +0.000 A 
ATOM      9  C   UNL     1       3.414   1.952  18.196  0.00  0.00    +0.000 A 
ATOM     10  C   UNL     1       2.176   2.076  18.809  0.00  0.00    +0.000 A 
ATOM     11  C   UNL     1       1.879   3.221  19.553  0.00  0.00    +0.000 A 
ATOM     12  C   UNL     1       2.813   4.254  19.712  0.00  0.00    +0.000 A 
BRANCH   7  14
ATOM     13  C   UNL     1       5.332   5.990  17.945  0.00  0.00    +0.000 C 
ATOM     14  C   UNL     1       5.178   5.156  19.209  0.00  0.00    +0.000 C 
ENDBRANCH   7  14
ENDBRANCH   1  12
BRANCH   4  15
ATOM     15  C   UNL     1       1.609   8.915  20.598  0.00  0.00    +0.000 C 
BRANCH  15  16
ATOM     16  C   UNL     1       0.756   9.532  21.647  0.00  0.00    +0.000 A 
ATOM     17  N   UNL     1       0.854   9.348  22.952  0.00  0.00    +0.000 NA
ATOM     18  N   UNL     1      -0.086  10.142  23.565  0.00  0.00    +0.000 NA
ATOM     19  C   UNL     1      -0.734  10.797  22.630  0.00  0.00    +0.000 A 
ATOM     20  N   UNL     1      -0.247  10.444  21.401  0.00  0.00    +0.000 N 
ATOM     21  C   UNL     1      -0.667  10.906  20.103  0.00  0.00    +0.000 C 
BRANCH  19  22
ATOM     22  S   UNL     1      -1.995  11.953  22.879  0.00  0.00    +0.000 S 
ATOM     23  C   UNL     1      -1.054  13.496  22.875  0.00  0.00    +0.000 C 
ENDBRANCH  19  22
ENDBRANCH  15  16
ENDBRANCH   4  15
TORSDOF 5
ENDMDL
MODEL 8
REMARK VINA RESULT:      -6.5      7.880     10.675
REMARK  Name = 
REMARK  8 active torsions:
REMARK  status: ('A' for Active; 'I' for Inactive)
REMARK    1  A    between atoms: C_1  and  C_2
REMARK    2  A    between atoms: C_2  and  C_3
REMARK    3  A    between atoms: C_8  and  N_9
REMARK    4  A    between atoms: N_12  and  C_13
REMARK    5  A    between atoms: C_13  and  C_14
REMARK    6  A    between atoms: C_17  and  S_18
REMARK    7  A    between atoms: S_18  and  C_19
REMARK    8  A    between atoms: N_20  and  C_21
REMARK                            x       y       z     vdW  Elec       q    Type
REMARK                         _______ _______ _______ _____ _____    ______ ____
ROOT
ATOM      1  N   UNL     1       1.428   5.346  20.126  0.00  0.00    +0.000 N 
ATOM      2  C   UNL     1       1.970   6.611  20.198  0.00  0.00    +0.000 C 
ATOM      3  O   UNL     1       2.880   7.058  19.513  0.00  0.00    +0.000 OA
ATOM      4  N   UNL     1       1.313   7.401  21.118  0.00  0.00    +0.000 N 
ATOM      5  H   UNL     1       0.492   5.272  20.494  0.00  0.00    +0.000 HD
ATOM      6  H   UNL     1       0.971   6.937  21.948  0.00  0.00    +0.000 HD
ENDROOT
BRANCH   1  12
ATOM      7  C   UNL     1       2.500   3.139  19.966  0.00  0.00    +0.000 A 
ATOM      8  C   UNL     1       2.970   2.080  19.163  0.00  0.00    +0.000 A 
ATOM      9  C   UNL     1       2.887   2.136  17.773  0.00  0.00    +0.000 A 
ATOM     10  C   UNL     1       2.339   3.255  17.164  0.00  0.00    +0.000 A 
ATOM     11  C   UNL     1       1.869   4.314  17.944  0.00  0.00    +0.000 A 
ATOM     12  C   UNL     1       1.922   4.272  19.345  0.00  0.00    +0.000 A 
BRANCH   7  14
ATOM     13  C   UNL     1       1.277   2.349  22.010  0.00  0.00    +0.000 C 
ATOM     14  C   UNL     1       2.565   2.950  21.466  0.00  0.00    +0.000 C 
ENDBRANCH   7  14
ENDBRANCH   1  12
BRANCH   4  15
ATOM     15  C   UNL     1       1.805   8.751  21.315  0.00  0.00    +0.000 C 
BRANCH  15  16
ATOM     16  C   UNL     1       0.750   9.591  21.939  0.00  0.00    +0.000 A 
ATOM     17  N   UNL     1       0.525   9.743  23.232  0.00  0.00    +0.000 NA
ATOM     18  N   UNL     1      -0.502  10.643  23.382  0.00  0.00    +0.000 NA
ATOM     19  C   UNL     1      -0.882  11.028  22.186  0.00  0.00    +0.000 A 
ATOM     20  N   UNL     1      -0.128  10.389  21.238  0.00  0.00    +0.000 N 
ATOM     21  C   UNL     1      -0.206  10.501  19.805  0.00  0.00    +0.000 C 
BRANCH  19  22
ATOM     22  S   UNL     1      -2.119  12.180  21.826  0.00  0.00    +0.000 S 
ATOM     23  C   UNL     1      -2.961  12.291  23.422  0.00  0.00    +0.000 C 
ENDBRANCH  19  22
ENDBRANCH  15  16
ENDBRANCH   4  15
TORSDOF 5
ENDMDL
MODEL 9
REMARK VINA RESULT:      -6.5      3.479      8.600
REMARK  Name = 
REMARK  8 active torsions:
REMARK  status: ('A' for Active; 'I' for Inactive)
REMARK    1  A    between atoms: C_1  and  C_2
REMARK    2  A    between atoms: C_2  and  C_3
REMARK    3  A    between atoms: C_8  and  N_9
REMARK    4  A    between atoms: N_12  and  C_13
REMARK    5  A    between atoms: C_13  and  C_14
REMARK    6  A    between atoms: C_17  and  S_18
REMARK    7  A    between atoms: S_18  and  C_19
REMARK    8  A    between atoms: N_20  and  C_21
REMARK                            x       y       z     vdW  Elec       q    Type
REMARK                         _______ _______ _______ _____ _____    ______ ____
ROOT
ATOM      1  N   UNL     1       6.347   7.268  16.885  0.00  0.00    +0.000 N 
ATOM      2  C   UNL     1       7.376   7.669  17.709  0.00  0.00    +0.000 C 
ATOM      3  O   UNL     1       7.949   6.987  18.548  0.00  0.00    +0.000 OA
ATOM      4  N   UNL     1       7.772   8.963  17.445  0.00  0.00    +0.000 N 
ATOM      5  H   UNL     1       6.245   7.820  16.047  0.00  0.00    +0.000 HD
ATOM      6  H   UNL     1       7.046   9.610  17.173  0.00  0.00    +0.000 HD
ENDROOT
BRANCH   1  12
ATOM      7  C   UNL     1       5.935   5.001  16.024  0.00  0.00    +0.000 A 
ATOM      8  C   UNL     1       5.243   3.778  16.127  0.00  0.00    +0.000 A 
ATOM      9  C   UNL     1       4.285   3.571  17.118  0.00  0.00    +0.000 A 
ATOM     10  C   UNL     1       3.999   4.587  18.018  0.00  0.00    +0.000 A 
ATOM     11  C   UNL     1       4.675   5.807  17.929  0.00  0.00    +0.000 A 
ATOM     12  C   UNL     1       5.657   6.031  16.954  0.00  0.00    +0.000 A 
BRANCH   7  14
ATOM     13  C   UNL     1       6.647   4.292  13.724  0.00  0.00    +0.000 C 
ATOM     14  C   UNL     1       7.009   5.101  14.962  0.00  0.00    +0.000 C 
ENDBRANCH   7  14
ENDBRANCH   1  12
BRANCH   4  15
ATOM     15  C   UNL     1       8.830   9.520  18.267  0.00  0.00    +0.000 C 
BRANCH  15  16
ATOM     16  C   UNL     1       8.904  10.991  18.072  0.00  0.00    +0.000 A 
ATOM     17  N   UNL     1       8.008  11.754  17.470  0.00  0.00    +0.000 NA
ATOM     18  N   UNL     1       8.434  13.057  17.553  0.00  0.00    +0.000 NA
ATOM     19  C   UNL     1       9.574  13.070  18.205  0.00  0.00    +0.000 A 
ATOM     20  N   UNL     1       9.920  11.791  18.549  0.00  0.00    +0.000 N 
ATOM     21  C   UNL     1      11.088  11.338  19.260  0.00  0.00    +0.000 C 
BRANCH  19  22
ATOM     22  S   UNL     1      10.507  14.469  18.606  0.00  0.00    +0.000 S 
ATOM     23  C   UNL     1      11.658  14.527  17.213  0.00  0.00    +0.000 C 
ENDBRANCH  19  22
ENDBRANCH  15  16
ENDBRANCH   4  15
TORSDOF 5
ENDMDL
