MODEL 1
REMARK VINA RESULT:      -7.0      0.000      0.000
REMARK  Name = 
REMARK  4 active torsions:
REMARK  status: ('A' for Active; 'I' for Inactive)
REMARK    1  A    between atoms: C_2  and  C_3
REMARK    2  A    between atoms: C_2  and  C_4
REMARK    3  A    between atoms: C_7  and  C_8
REMARK    4  A    between atoms: C_13  and  C_14
REMARK                            x       y       z     vdW  Elec       q    Type
REMARK                         _______ _______ _______ _____ _____    ______ ____
ROOT
ATOM      1  C   UNL     1       5.266   5.044  16.815  0.00  0.00    +0.000 C 
ATOM      2  C   UNL     1       4.986   6.513  16.446  0.00  0.00    +0.000 C 
ATOM      3  C   UNL     1       4.232   7.373  17.460  0.00  0.00    +0.000 C 
ATOM      4  C   UNL     1       2.741   7.025  17.569  0.00  0.00    +0.000 C 
ATOM      5  C   UNL     1       1.956   8.257  18.037  0.00  0.00    +0.000 C 
ATOM      6  C   UNL     1       2.396   5.787  18.427  0.00  0.00    +0.000 C 
ATOM      7  C   UNL     1       2.361   5.984  19.944  0.00  0.00    +0.000 C 
ATOM      8  C   UNL     1       2.518   4.565  20.413  0.00  0.00    +0.000 C 
ATOM      9  O   UNL     1       2.282   4.167  21.544  0.00  0.00    +0.000 OA
ATOM     10  C   UNL     1       3.116   3.723  19.358  0.00  0.00    +0.000 C 
ATOM     11  C   UNL     1       3.638   2.357  19.618  0.00  0.00    +0.000 C 
ATOM     12  C   UNL     1       3.217   4.527  18.284  0.00  0.00    +0.000 C 
ATOM     13  C   UNL     1       3.975   4.214  17.036  0.00  0.00    +0.000 C 
ENDROOT
BRANCH   1  15
ATOM     14  C   UNL     1       7.620   4.489  17.430  0.00  0.00    +0.000 C 
ATOM     15  C   UNL     1       6.411   4.928  17.832  0.00  0.00    +0.000 C 
ATOM     16  C   UNL     1       6.246   5.331  19.271  0.00  0.00    +0.000 C 
ENDBRANCH   1  15
TORSDOF 1
ENDMDL
MODEL 2
REMARK VINA RESULT:      -6.4      2.096      4.228
REMARK  Name = 
REMARK  4 active torsions:
REMARK  status: ('A' for Active; 'I' for Inactive)
REMARK    1  A    between atoms: C_2  and  C_3
REMARK    2  A    between atoms: C_2  and  C_4
REMARK    3  A    between atoms: C_7  and  C_8
REMARK    4  A    between atoms: C_13  and  C_14
REMARK                            x       y       z     vdW  Elec       q    Type
REMARK                         _______ _______ _______ _____ _____    ______ ____
ROOT
ATOM      1  C   UNL     1       2.849   2.959  20.178  0.00  0.00    +0.000 C 
ATOM      2  C   UNL     1       1.715   3.636  20.969  0.00  0.00    +0.000 C 
ATOM      3  C   UNL     1       1.176   4.968  20.447  0.00  0.00    +0.000 C 
ATOM      4  C   UNL     1       2.142   6.142  20.658  0.00  0.00    +0.000 C 
ATOM      5  C   UNL     1       1.349   7.453  20.746  0.00  0.00    +0.000 C 
ATOM      6  C   UNL     1       3.298   6.259  19.638  0.00  0.00    +0.000 C 
ATOM      7  C   UNL     1       2.969   6.900  18.288  0.00  0.00    +0.000 C 
ATOM      8  C   UNL     1       4.103   6.381  17.450  0.00  0.00    +0.000 C 
ATOM      9  O   UNL     1       4.435   6.827  16.362  0.00  0.00    +0.000 OA
ATOM     10  C   UNL     1       4.700   5.174  18.057  0.00  0.00    +0.000 C 
ATOM     11  C   UNL     1       5.647   4.292  17.328  0.00  0.00    +0.000 C 
ATOM     12  C   UNL     1       4.062   5.022  19.232  0.00  0.00    +0.000 C 
ATOM     13  C   UNL     1       4.140   3.815  20.108  0.00  0.00    +0.000 C 
ENDROOT
BRANCH   1  15
ATOM     14  C   UNL     1       3.188   1.709  18.044  0.00  0.00    +0.000 C 
ATOM     15  C   UNL     1       2.324   2.296  18.895  0.00  0.00    +0.000 C 
ATOM     16  C   UNL     1       0.858   2.235  18.569  0.00  0.00    +0.000 C 
ENDBRANCH   1  15
TORSDOF 1
ENDMDL
MODEL 3
REMARK VINA RESULT:      -6.4      2.216      4.121
REMARK  Name = 
REMARK  4 active torsions:
REMARK  status: ('A' for Active; 'I' for Inactive)
REMARK    1  A    between atoms: C_2  and  C_3
REMARK    2  A    between atoms: C_2  and  C_4
REMARK    3  A    between atoms: C_7  and  C_8
REMARK    4  A    between atoms: C_13  and  C_14
REMARK                            x       y       z     vdW  Elec       q    Type
REMARK                         _______ _______ _______ _____ _____    ______ ____
ROOT
ATOM      1  C   UNL     1       4.025   4.354  19.689  0.00  0.00    +0.000 C 
ATOM      2  C   UNL     1       2.734   5.190  19.765  0.00  0.00    +0.000 C 
ATOM      3  C   UNL     1       2.323   5.986  18.526  0.00  0.00    +0.000 C 
ATOM      4  C   UNL     1       3.206   7.213  18.266  0.00  0.00    +0.000 C 
ATOM      5  C   UNL     1       2.407   8.270  17.493  0.00  0.00    +0.000 C 
ATOM      6  C   UNL     1       4.566   6.937  17.585  0.00  0.00    +0.000 C 
ATOM      7  C   UNL     1       4.554   6.746  16.067  0.00  0.00    +0.000 C 
ATOM      8  C   UNL     1       5.855   6.021  15.868  0.00  0.00    +0.000 C 
ATOM      9  O   UNL     1       6.427   5.883  14.796  0.00  0.00    +0.000 OA
ATOM     10  C   UNL     1       6.302   5.383  17.122  0.00  0.00    +0.000 C 
ATOM     11  C   UNL     1       7.398   4.381  17.168  0.00  0.00    +0.000 C 
ATOM     12  C   UNL     1       5.411   5.775  18.050  0.00  0.00    +0.000 C 
ATOM     13  C   UNL     1       5.291   5.210  19.427  0.00  0.00    +0.000 C 
ENDROOT
BRANCH   1  15
ATOM     14  C   UNL     1       4.050   1.870  19.449  0.00  0.00    +0.000 C 
ATOM     15  C   UNL     1       3.815   3.067  18.877  0.00  0.00    +0.000 C 
ATOM     16  C   UNL     1       3.308   3.088  17.462  0.00  0.00    +0.000 C 
ENDBRANCH   1  15
TORSDOF 1
ENDMDL
MODEL 4
REMARK VINA RESULT:      -6.4      1.280      1.733
REMARK  Name = 
REMARK  4 active torsions:
REMARK  status: ('A' for Active; 'I' for Inactive)
REMARK    1  A    between atoms: C_2  and  C_3
REMARK    2  A    between atoms: C_2  and  C_4
REMARK    3  A    between atoms: C_7  and  C_8
REMARK    4  A    between atoms: C_13  and  C_14
REMARK                            x       y       z     vdW  Elec       q    Type
REMARK                         _______ _______ _______ _____ _____    ______ ____
ROOT
ATOM      1  C   UNL     1       3.858   5.273  17.289  0.00  0.00    +0.000 C 
ATOM      2  C   UNL     1       3.542   6.725  17.690  0.00  0.00    +0.000 C 
ATOM      3  C   UNL     1       3.261   7.014  19.166  0.00  0.00    +0.000 C 
ATOM      4  C   UNL     1       1.898   6.493  19.641  0.00  0.00    +0.000 C 
ATOM      5  C   UNL     1       1.408   7.337  20.825  0.00  0.00    +0.000 C 
ATOM      6  C   UNL     1       1.826   4.984  19.967  0.00  0.00    +0.000 C 
ATOM      7  C   UNL     1       2.361   4.544  21.332  0.00  0.00    +0.000 C 
ATOM      8  C   UNL     1       2.602   3.083  21.078  0.00  0.00    +0.000 C 
ATOM      9  O   UNL     1       2.776   2.237  21.943  0.00  0.00    +0.000 OA
ATOM     10  C   UNL     1       2.725   2.811  19.631  0.00  0.00    +0.000 C 
ATOM     11  C   UNL     1       3.231   1.521  19.096  0.00  0.00    +0.000 C 
ATOM     12  C   UNL     1       2.467   3.987  19.032  0.00  0.00    +0.000 C 
ATOM     13  C   UNL     1       2.696   4.290  17.587  0.00  0.00    +0.000 C 
ENDROOT
BRANCH   1  15
ATOM     14  C   UNL     1       6.126   4.376  16.756  0.00  0.00    +0.000 C 
ATOM     15  C   UNL     1       5.289   4.877  17.686  0.00  0.00    +0.000 C 
ATOM     16  C   UNL     1       5.814   5.071  19.080  0.00  0.00    +0.000 C 
ENDBRANCH   1  15
TORSDOF 1
ENDMDL
MODEL 5
REMARK VINA RESULT:      -6.3      2.212      4.073
REMARK  Name = 
REMARK  4 active torsions:
REMARK  status: ('A' for Active; 'I' for Inactive)
REMARK    1  A    between atoms: C_2  and  C_3
REMARK    2  A    between atoms: C_2  and  C_4
REMARK    3  A    between atoms: C_7  and  C_8
REMARK    4  A    between atoms: C_13  and  C_14
REMARK                            x       y       z     vdW  Elec       q    Type
REMARK                         _______ _______ _______ _____ _____    ______ ____
ROOT
ATOM      1  C   UNL     1       3.829   3.377  19.490  0.00  0.00    +0.000 C 
ATOM      2  C   UNL     1       2.638   4.071  20.175  0.00  0.00    +0.000 C 
ATOM      3  C   UNL     1       2.022   5.286  19.480  0.00  0.00    +0.000 C 
ATOM      4  C   UNL     1       2.904   6.540  19.547  0.00  0.00    +0.000 C 
ATOM      5  C   UNL     1       2.024   7.794  19.458  0.00  0.00    +0.000 C 
ATOM      6  C   UNL     1       4.068   6.604  18.533  0.00  0.00    +0.000 C 
ATOM      7  C   UNL     1       3.723   7.042  17.108  0.00  0.00    +0.000 C 
ATOM      8  C   UNL     1       4.905   6.500  16.356  0.00  0.00    +0.000 C 
ATOM      9  O   UNL     1       5.227   6.824  15.222  0.00  0.00    +0.000 OA
ATOM     10  C   UNL     1       5.568   5.424  17.119  0.00  0.00    +0.000 C 
ATOM     11  C   UNL     1       6.586   4.523  16.519  0.00  0.00    +0.000 C 
ATOM     12  C   UNL     1       4.921   5.380  18.297  0.00  0.00    +0.000 C 
ATOM     13  C   UNL     1       5.062   4.304  19.322  0.00  0.00    +0.000 C 
ENDROOT
BRANCH   1  15
ATOM     14  C   UNL     1       3.696   1.214  18.253  0.00  0.00    +0.000 C 
ATOM     15  C   UNL     1       3.374   2.521  18.298  0.00  0.00    +0.000 C 
ATOM     16  C   UNL     1       2.532   3.082  17.186  0.00  0.00    +0.000 C 
ENDBRANCH   1  15
TORSDOF 1
ENDMDL
MODEL 6
REMARK VINA RESULT:      -6.2      9.320     11.050
REMARK  Name = 
REMARK  4 active torsions:
REMARK  status: ('A' for Active; 'I' for Inactive)
REMARK    1  A    between atoms: C_2  and  C_3
REMARK    2  A    between atoms: C_2  and  C_4
REMARK    3  A    between atoms: C_7  and  C_8
REMARK    4  A    between atoms: C_13  and  C_14
REMARK                            x       y       z     vdW  Elec       q    Type
REMARK                         _______ _______ _______ _____ _____    ______ ____
ROOT
ATOM      1  C   UNL     1      10.206  11.093  19.650  0.00  0.00    +0.000 C 
ATOM      2  C   UNL     1       9.531  11.486  20.976  0.00  0.00    +0.000 C 
ATOM      3  C   UNL     1       9.091  12.940  21.151  0.00  0.00    +0.000 C 
ATOM      4  C   UNL     1      10.260  13.911  21.358  0.00  0.00    +0.000 C 
ATOM      5  C   UNL     1       9.780  15.134  22.152  0.00  0.00    +0.000 C 
ATOM      6  C   UNL     1      11.018  14.340  20.082  0.00  0.00    +0.000 C 
ATOM      7  C   UNL     1      10.380  15.442  19.234  0.00  0.00    +0.000 C 
ATOM      8  C   UNL     1      11.068  15.214  17.917  0.00  0.00    +0.000 C 
ATOM      9  O   UNL     1      11.096  16.010  16.990  0.00  0.00    +0.000 OA
ATOM     10  C   UNL     1      11.612  13.844  17.835  0.00  0.00    +0.000 C 
ATOM     11  C   UNL     1      12.099  13.247  16.565  0.00  0.00    +0.000 C 
ATOM     12  C   UNL     1      11.380  13.303  19.045  0.00  0.00    +0.000 C 
ATOM     13  C   UNL     1      11.530  11.857  19.389  0.00  0.00    +0.000 C 
ENDROOT
BRANCH   1  15
ATOM     14  C   UNL     1       8.677   9.758  18.197  0.00  0.00    +0.000 C 
ATOM     15  C   UNL     1       9.182  10.967  18.511  0.00  0.00    +0.000 C 
ATOM     16  C   UNL     1       8.680  12.163  17.752  0.00  0.00    +0.000 C 
ENDBRANCH   1  15
TORSDOF 1
ENDMDL
MODEL 7
REMARK VINA RESULT:      -6.1      2.024      5.005
REMARK  Name = 
REMARK  4 active torsions:
REMARK  status: ('A' for Active; 'I' for Inactive)
REMARK    1  A    between atoms: C_2  and  C_3
REMARK    2  A    between atoms: C_2  and  C_4
REMARK    3  A    between atoms: C_7  and  C_8
REMARK    4  A    between atoms: C_13  and  C_14
REMARK                            x       y       z     vdW  Elec       q    Type
REMARK                         _______ _______ _______ _____ _____    ______ ____
ROOT
ATOM      1  C   UNL     1       1.134   4.224  19.363  0.00  0.00    +0.000 C 
ATOM      2  C   UNL     1       1.310   2.702  19.515  0.00  0.00    +0.000 C 
ATOM      3  C   UNL     1       2.720   2.127  19.369  0.00  0.00    +0.000 C 
ATOM      4  C   UNL     1       3.234   2.131  17.924  0.00  0.00    +0.000 C 
ATOM      5  C   UNL     1       4.270   1.012  17.743  0.00  0.00    +0.000 C 
ATOM      6  C   UNL     1       3.777   3.480  17.401  0.00  0.00    +0.000 C 
ATOM      7  C   UNL     1       5.203   3.857  17.807  0.00  0.00    +0.000 C 
ATOM      8  C   UNL     1       5.173   5.343  17.584  0.00  0.00    +0.000 C 
ATOM      9  O   UNL     1       6.156   6.065  17.511  0.00  0.00    +0.000 OA
ATOM     10  C   UNL     1       3.785   5.849  17.584  0.00  0.00    +0.000 C 
ATOM     11  C   UNL     1       3.457   7.296  17.660  0.00  0.00    +0.000 C 
ATOM     12  C   UNL     1       3.013   4.752  17.685  0.00  0.00    +0.000 C 
ATOM     13  C   UNL     1       1.546   4.749  17.963  0.00  0.00    +0.000 C 
ENDROOT
BRANCH   1  15
ATOM     14  C   UNL     1       2.218   4.296  21.609  0.00  0.00    +0.000 C 
ATOM     15  C   UNL     1       1.617   4.975  20.612  0.00  0.00    +0.000 C 
ATOM     16  C   UNL     1       1.486   6.466  20.750  0.00  0.00    +0.000 C 
ENDBRANCH   1  15
TORSDOF 1
ENDMDL
MODEL 8
REMARK VINA RESULT:      -6.0      1.064      1.495
REMARK  Name = 
REMARK  4 active torsions:
REMARK  status: ('A' for Active; 'I' for Inactive)
REMARK    1  A    between atoms: C_2  and  C_3
REMARK    2  A    between atoms: C_2  and  C_4
REMARK    3  A    between atoms: C_7  and  C_8
REMARK    4  A    between atoms: C_13  and  C_14
REMARK                            x       y       z     vdW  Elec       q    Type
REMARK                         _______ _______ _______ _____ _____    ______ ____
ROOT
ATOM      1  C   UNL     1       4.528   5.233  16.892  0.00  0.00    +0.000 C 
ATOM      2  C   UNL     1       4.188   6.706  17.187  0.00  0.00    +0.000 C 
ATOM      3  C   UNL     1       3.762   7.070  18.609  0.00  0.00    +0.000 C 
ATOM      4  C   UNL     1       2.353   6.582  18.969  0.00  0.00    +0.000 C 
ATOM      5  C   UNL     1       1.754   7.488  20.054  0.00  0.00    +0.000 C 
ATOM      6  C   UNL     1       2.232   5.092  19.362  0.00  0.00    +0.000 C 
ATOM      7  C   UNL     1       2.621   4.719  20.794  0.00  0.00    +0.000 C 
ATOM      8  C   UNL     1       2.871   3.245  20.639  0.00  0.00    +0.000 C 
ATOM      9  O   UNL     1       2.948   2.444  21.558  0.00  0.00    +0.000 OA
ATOM     10  C   UNL     1       3.137   2.900  19.228  0.00  0.00    +0.000 C 
ATOM     11  C   UNL     1       3.681   1.582  18.812  0.00  0.00    +0.000 C 
ATOM     12  C   UNL     1       2.954   4.045  18.547  0.00  0.00    +0.000 C 
ATOM     13  C   UNL     1       3.331   4.273  17.120  0.00  0.00    +0.000 C 
ENDROOT
BRANCH   1  15
ATOM     14  C   UNL     1       6.119   4.878  18.782  0.00  0.00    +0.000 C 
ATOM     15  C   UNL     1       5.906   4.850  17.452  0.00  0.00    +0.000 C 
ATOM     16  C   UNL     1       7.032   4.397  16.564  0.00  0.00    +0.000 C 
ENDBRANCH   1  15
TORSDOF 1
ENDMDL
MODEL 9
REMARK VINA RESULT:      -6.0      1.787      3.772
REMARK  Name = 
REMARK  4 active torsions:
REMARK  status: ('A' for Active; 'I' for Inactive)
REMARK    1  A    between atoms: C_2  and  C_3
REMARK    2  A    between atoms: C_2  and  C_4
REMARK    3  A    between atoms: C_7  and  C_8
REMARK    4  A    between atoms: C_13  and  C_14
REMARK                            x       y       z     vdW  Elec       q    Type
REMARK                         _______ _______ _______ _____ _____    ______ ____
ROOT
ATOM      1  C   UNL     1       4.034   6.592  19.148  0.00  0.00    +0.000 C 
ATOM      2  C   UNL     1       4.890   6.665  17.870  0.00  0.00    +0.000 C 
ATOM      3  C   UNL     1       4.498   5.769  16.695  0.00  0.00    +0.000 C 
ATOM      4  C   UNL     1       4.813   4.285  16.926  0.00  0.00    +0.000 C 
ATOM      5  C   UNL     1       5.027   3.587  15.576  0.00  0.00    +0.000 C 
ATOM      6  C   UNL     1       3.804   3.507  17.800  0.00  0.00    +0.000 C 
ATOM      7  C   UNL     1       2.521   3.028  17.117  0.00  0.00    +0.000 C 
ATOM      8  C   UNL     1       1.632   2.816  18.310  0.00  0.00    +0.000 C 
ATOM      9  O   UNL     1       0.589   2.180  18.306  0.00  0.00    +0.000 OA
ATOM     10  C   UNL     1       2.120   3.581  19.475  0.00  0.00    +0.000 C 
ATOM     11  C   UNL     1       1.307   3.784  20.701  0.00  0.00    +0.000 C 
ATOM     12  C   UNL     1       3.279   4.132  19.070  0.00  0.00    +0.000 C 
ATOM     13  C   UNL     1       4.038   5.188  19.805  0.00  0.00    +0.000 C 
ENDROOT
BRANCH   1  15
ATOM     14  C   UNL     1       1.831   7.395  20.003  0.00  0.00    +0.000 C 
ATOM     15  C   UNL     1       2.698   7.329  18.973  0.00  0.00    +0.000 C 
ATOM     16  C   UNL     1       2.331   8.029  17.694  0.00  0.00    +0.000 C 
ENDBRANCH   1  15
TORSDOF 1
ENDMDL
