MODEL 1
REMARK VINA RESULT:      -8.3      0.000      0.000
REMARK  Name = 
REMARK  5 active torsions:
REMARK  status: ('A' for Active; 'I' for Inactive)
REMARK    1  A    between atoms: C_1  and  C_2
REMARK    2  A    between atoms: C_5  and  N_6
REMARK    3  A    between atoms: N_6  and  C_7
REMARK    4  A    between atoms: C_7  and  N_8
REMARK    5  A    between atoms: C_14  and  N_15
REMARK                            x       y       z     vdW  Elec       q    Type
REMARK                         _______ _______ _______ _____ _____    ______ ____
ROOT
ATOM      1  N   UNL     1       3.091   3.101  18.951  0.00  0.00    +0.000 N 
ATOM      2  C   UNL     1       3.088   3.342  17.592  0.00  0.00    +0.000 C 
ATOM      3  O   UNL     1       2.161   3.327  16.805  0.00  0.00    +0.000 OA
ATOM      4  C   UNL     1       4.392   3.920  17.251  0.00  0.00    +0.000 A 
ATOM      5  C   UNL     1       4.757   4.654  16.137  0.00  0.00    +0.000 A 
ATOM      6  C   UNL     1       5.863   5.505  16.266  0.00  0.00    +0.000 A 
ATOM      7  C   UNL     1       6.537   5.617  17.509  0.00  0.00    +0.000 A 
ATOM      8  C   UNL     1       6.199   4.801  18.599  0.00  0.00    +0.000 A 
ATOM      9  C   UNL     1       5.131   3.943  18.416  0.00  0.00    +0.000 A 
ATOM     10  C   UNL     1       4.383   3.196  19.415  0.00  0.00    +0.000 C 
ATOM     11  O   UNL     1       4.853   2.806  20.465  0.00  0.00    +0.000 OA
ENDROOT
BRANCH   7  12
ATOM     12  N   UNL     1       7.522   6.695  17.698  0.00  0.00    +0.000 N 
ATOM     13  O   UNL     1       7.610   7.554  16.812  0.00  0.00    +0.000 OA
ATOM     14  O   UNL     1       8.174   6.694  18.751  0.00  0.00    +0.000 OA
ENDBRANCH   7  12
BRANCH   1  15
ATOM     15  C   UNL     1       2.163   3.907  19.712  0.00  0.00    +0.000 C 
BRANCH  15  16
ATOM     16  N   UNL     1       2.806   5.016  20.380  0.00  0.00    +0.000 N 
ATOM     17  H   UNL     1       3.819   4.931  20.338  0.00  0.00    +0.000 HD
BRANCH  16  22
ATOM     18  C   UNL     1       1.189  10.172  18.394  0.00  0.00    +0.000 C 
ATOM     19  C   UNL     1       1.609   8.834  18.919  0.00  0.00    +0.000 A 
ATOM     20  C   UNL     1       1.362   8.479  20.247  0.00  0.00    +0.000 A 
ATOM     21  C   UNL     1       1.757   7.233  20.738  0.00  0.00    +0.000 A 
ATOM     22  C   UNL     1       2.379   6.277  19.901  0.00  0.00    +0.000 A 
ATOM     23  C   UNL     1       2.664   6.664  18.593  0.00  0.00    +0.000 A 
ATOM     24  C   UNL     1       2.276   7.920  18.101  0.00  0.00    +0.000 A 
ENDBRANCH  16  22
ENDBRANCH  15  16
ENDBRANCH   1  15
TORSDOF 4
ENDMDL
MODEL 2
REMARK VINA RESULT:      -8.3      1.012      1.335
REMARK  Name = 
REMARK  5 active torsions:
REMARK  status: ('A' for Active; 'I' for Inactive)
REMARK    1  A    between atoms: C_1  and  C_2
REMARK    2  A    between atoms: C_5  and  N_6
REMARK    3  A    between atoms: N_6  and  C_7
REMARK    4  A    between atoms: C_7  and  N_8
REMARK    5  A    between atoms: C_14  and  N_15
REMARK                            x       y       z     vdW  Elec       q    Type
REMARK                         _______ _______ _______ _____ _____    ______ ____
ROOT
ATOM      1  N   UNL     1       1.959   3.207  19.731  0.00  0.00    +0.000 N 
ATOM      2  C   UNL     1       1.977   3.326  18.355  0.00  0.00    +0.000 C 
ATOM      3  O   UNL     1       1.058   3.515  17.582  0.00  0.00    +0.000 OA
ATOM      4  C   UNL     1       3.380   3.469  17.951  0.00  0.00    +0.000 A 
ATOM      5  C   UNL     1       3.901   3.971  16.772  0.00  0.00    +0.000 A 
ATOM      6  C   UNL     1       5.209   4.472  16.813  0.00  0.00    +0.000 A 
ATOM      7  C   UNL     1       5.931   4.485  18.034  0.00  0.00    +0.000 A 
ATOM      8  C   UNL     1       5.411   3.896  19.196  0.00  0.00    +0.000 A 
ATOM      9  C   UNL     1       4.134   3.373  19.101  0.00  0.00    +0.000 A 
ATOM     10  C   UNL     1       3.239   2.961  20.170  0.00  0.00    +0.000 C 
ATOM     11  O   UNL     1       3.614   2.539  21.247  0.00  0.00    +0.000 OA
ENDROOT
BRANCH   7  12
ATOM     12  N   UNL     1       7.191   5.243  18.116  0.00  0.00    +0.000 N 
ATOM     13  O   UNL     1       7.853   5.143  19.156  0.00  0.00    +0.000 OA
ATOM     14  O   UNL     1       7.526   5.903  17.123  0.00  0.00    +0.000 OA
ENDBRANCH   7  12
BRANCH   1  15
ATOM     15  C   UNL     1       1.331   4.308  20.425  0.00  0.00    +0.000 C 
BRANCH  15  16
ATOM     16  N   UNL     1       2.275   5.328  20.821  0.00  0.00    +0.000 N 
ATOM     17  H   UNL     1       3.232   5.019  20.671  0.00  0.00    +0.000 HD
BRANCH  16  22
ATOM     18  C   UNL     1       1.439  10.419  18.265  0.00  0.00    +0.000 C 
ATOM     19  C   UNL     1       1.655   9.099  18.937  0.00  0.00    +0.000 A 
ATOM     20  C   UNL     1       1.178   8.870  20.230  0.00  0.00    +0.000 A 
ATOM     21  C   UNL     1       1.382   7.641  20.859  0.00  0.00    +0.000 A 
ATOM     22  C   UNL     1       2.038   6.577  20.197  0.00  0.00    +0.000 A 
ATOM     23  C   UNL     1       2.553   6.835  18.928  0.00  0.00    +0.000 A 
ATOM     24  C   UNL     1       2.356   8.074  18.298  0.00  0.00    +0.000 A 
ENDBRANCH  16  22
ENDBRANCH  15  16
ENDBRANCH   1  15
TORSDOF 4
ENDMDL
MODEL 3
REMARK VINA RESULT:      -8.3      0.163      1.199
REMARK  Name = 
REMARK  5 active torsions:
REMARK  status: ('A' for Active; 'I' for Inactive)
REMARK    1  A    between atoms: C_1  and  C_2
REMARK    2  A    between atoms: C_5  and  N_6
REMARK    3  A    between atoms: N_6  and  C_7
REMARK    4  A    between atoms: C_7  and  N_8
REMARK    5  A    between atoms: C_14  and  N_15
REMARK                            x       y       z     vdW  Elec       q    Type
REMARK                         _______ _______ _______ _____ _____    ______ ____
ROOT
ATOM      1  N   UNL     1       2.949   3.224  18.991  0.00  0.00    +0.000 N 
ATOM      2  C   UNL     1       2.934   3.452  17.629  0.00  0.00    +0.000 C 
ATOM      3  O   UNL     1       1.993   3.473  16.858  0.00  0.00    +0.000 OA
ATOM      4  C   UNL     1       4.257   3.964  17.260  0.00  0.00    +0.000 A 
ATOM      5  C   UNL     1       4.636   4.670  16.132  0.00  0.00    +0.000 A 
ATOM      6  C   UNL     1       5.783   5.470  16.234  0.00  0.00    +0.000 A 
ATOM      7  C   UNL     1       6.483   5.562  17.464  0.00  0.00    +0.000 A 
ATOM      8  C   UNL     1       6.127   4.773  18.567  0.00  0.00    +0.000 A 
ATOM      9  C   UNL     1       5.016   3.964  18.411  0.00  0.00    +0.000 A 
ATOM     10  C   UNL     1       4.252   3.263  19.431  0.00  0.00    +0.000 C 
ATOM     11  O   UNL     1       4.722   2.862  20.477  0.00  0.00    +0.000 OA
ENDROOT
BRANCH   7  12
ATOM     12  N   UNL     1       7.520   6.595  17.625  0.00  0.00    +0.000 N 
ATOM     13  O   UNL     1       8.079   6.679  18.726  0.00  0.00    +0.000 OA
ATOM     14  O   UNL     1       7.793   7.289  16.637  0.00  0.00    +0.000 OA
ENDBRANCH   7  12
BRANCH   1  15
ATOM     15  C   UNL     1       2.074   4.080  19.758  0.00  0.00    +0.000 C 
BRANCH  15  16
ATOM     16  N   UNL     1       2.778   5.166  20.400  0.00  0.00    +0.000 N 
ATOM     17  H   UNL     1       3.785   5.027  20.355  0.00  0.00    +0.000 HD
BRANCH  16  22
ATOM     18  C   UNL     1       1.183  10.317  18.384  0.00  0.00    +0.000 C 
ATOM     19  C   UNL     1       1.599   8.975  18.899  0.00  0.00    +0.000 A 
ATOM     20  C   UNL     1       2.264   8.067  18.072  0.00  0.00    +0.000 A 
ATOM     21  C   UNL     1       2.649   6.814  18.552  0.00  0.00    +0.000 A 
ATOM     22  C   UNL     1       2.416   6.439  19.896  0.00  0.00    +0.000 A 
ATOM     23  C   UNL     1       1.707   7.333  20.695  0.00  0.00    +0.000 A 
ATOM     24  C   UNL     1       1.312   8.591  20.210  0.00  0.00    +0.000 A 
ENDBRANCH  16  22
ENDBRANCH  15  16
ENDBRANCH   1  15
TORSDOF 4
ENDMDL
MODEL 4
REMARK VINA RESULT:      -8.3      1.130      1.745
REMARK  Name = 
REMARK  5 active torsions:
REMARK  status: ('A' for Active; 'I' for Inactive)
REMARK    1  A    between atoms: C_1  and  C_2
REMARK    2  A    between atoms: C_5  and  N_6
REMARK    3  A    between atoms: N_6  and  C_7
REMARK    4  A    between atoms: C_7  and  N_8
REMARK    5  A    between atoms: C_14  and  N_15
REMARK                            x       y       z     vdW  Elec       q    Type
REMARK                         _______ _______ _______ _____ _____    ______ ____
ROOT
ATOM      1  N   UNL     1       1.776   3.415  19.657  0.00  0.00    +0.000 N 
ATOM      2  C   UNL     1       1.849   3.569  18.287  0.00  0.00    +0.000 C 
ATOM      3  O   UNL     1       0.971   3.846  17.492  0.00  0.00    +0.000 OA
ATOM      4  C   UNL     1       3.271   3.621  17.931  0.00  0.00    +0.000 A 
ATOM      5  C   UNL     1       3.865   4.116  16.784  0.00  0.00    +0.000 A 
ATOM      6  C   UNL     1       5.204   4.520  16.881  0.00  0.00    +0.000 A 
ATOM      7  C   UNL     1       5.884   4.448  18.124  0.00  0.00    +0.000 A 
ATOM      8  C   UNL     1       5.284   3.866  19.251  0.00  0.00    +0.000 A 
ATOM      9  C   UNL     1       3.978   3.440  19.101  0.00  0.00    +0.000 A 
ATOM     10  C   UNL     1       3.020   3.065  20.129  0.00  0.00    +0.000 C 
ATOM     11  O   UNL     1       3.328   2.588  21.204  0.00  0.00    +0.000 OA
ENDROOT
BRANCH   7  12
ATOM     12  N   UNL     1       7.191   5.109  18.268  0.00  0.00    +0.000 N 
ATOM     13  O   UNL     1       7.662   5.209  19.408  0.00  0.00    +0.000 OA
ATOM     14  O   UNL     1       7.755   5.491  17.234  0.00  0.00    +0.000 OA
ENDBRANCH   7  12
BRANCH   1  15
ATOM     15  C   UNL     1       1.206   4.539  20.364  0.00  0.00    +0.000 C 
BRANCH  15  16
ATOM     16  N   UNL     1       2.201   5.505  20.771  0.00  0.00    +0.000 N 
ATOM     17  H   UNL     1       3.141   5.154  20.603  0.00  0.00    +0.000 HD
BRANCH  16  22
ATOM     18  C   UNL     1       1.325  10.666  18.376  0.00  0.00    +0.000 C 
ATOM     19  C   UNL     1       1.555   9.321  18.990  0.00  0.00    +0.000 A 
ATOM     20  C   UNL     1       2.229   8.320  18.286  0.00  0.00    +0.000 A 
ATOM     21  C   UNL     1       2.439   7.064  18.858  0.00  0.00    +0.000 A 
ATOM     22  C   UNL     1       2.017   6.777  20.177  0.00  0.00    +0.000 A 
ATOM     23  C   UNL     1       1.302   7.766  20.848  0.00  0.00    +0.000 A 
ATOM     24  C   UNL     1       1.082   9.027  20.271  0.00  0.00    +0.000 A 
ENDBRANCH  16  22
ENDBRANCH  15  16
ENDBRANCH   1  15
TORSDOF 4
ENDMDL
MODEL 5
REMARK VINA RESULT:      -8.3      2.533      6.465
REMARK  Name = 
REMARK  5 active torsions:
REMARK  status: ('A' for Active; 'I' for Inactive)
REMARK    1  A    between atoms: C_1  and  C_2
REMARK    2  A    between atoms: C_5  and  N_6
REMARK    3  A    between atoms: N_6  and  C_7
REMARK    4  A    between atoms: C_7  and  N_8
REMARK    5  A    between atoms: C_14  and  N_15
REMARK                            x       y       z     vdW  Elec       q    Type
REMARK                         _______ _______ _______ _____ _____    ______ ____
ROOT
ATOM      1  N   UNL     1       6.365   6.026  17.770  0.00  0.00    +0.000 N 
ATOM      2  C   UNL     1       5.150   6.497  17.314  0.00  0.00    +0.000 C 
ATOM      3  O   UNL     1       4.887   7.090  16.285  0.00  0.00    +0.000 OA
ATOM      4  C   UNL     1       4.110   5.913  18.166  0.00  0.00    +0.000 A 
ATOM      5  C   UNL     1       2.756   5.771  17.918  0.00  0.00    +0.000 A 
ATOM      6  C   UNL     1       2.080   4.763  18.618  0.00  0.00    +0.000 A 
ATOM      7  C   UNL     1       2.786   3.914  19.509  0.00  0.00    +0.000 A 
ATOM      8  C   UNL     1       4.140   4.131  19.804  0.00  0.00    +0.000 A 
ATOM      9  C   UNL     1       4.759   5.164  19.125  0.00  0.00    +0.000 A 
ATOM     10  C   UNL     1       6.180   5.451  19.007  0.00  0.00    +0.000 C 
ATOM     11  O   UNL     1       7.005   5.163  19.851  0.00  0.00    +0.000 OA
ENDROOT
BRANCH   7  12
ATOM     12  N   UNL     1       2.122   2.709  20.032  0.00  0.00    +0.000 N 
ATOM     13  O   UNL     1       1.811   1.827  19.223  0.00  0.00    +0.000 OA
ATOM     14  O   UNL     1       1.948   2.639  21.257  0.00  0.00    +0.000 OA
ENDBRANCH   7  12
BRANCH   1  15
ATOM     15  C   UNL     1       7.063   5.158  16.850  0.00  0.00    +0.000 C 
BRANCH  15  16
ATOM     16  N   UNL     1       7.283   5.774  15.561  0.00  0.00    +0.000 N 
ATOM     17  H   UNL     1       8.262   6.020  15.435  0.00  0.00    +0.000 HD
BRANCH  16  22
ATOM     18  C   UNL     1       5.364   2.477  11.249  0.00  0.00    +0.000 C 
ATOM     19  C   UNL     1       5.871   3.335  12.366  0.00  0.00    +0.000 A 
ATOM     20  C   UNL     1       7.060   4.055  12.230  0.00  0.00    +0.000 A 
ATOM     21  C   UNL     1       7.535   4.852  13.273  0.00  0.00    +0.000 A 
ATOM     22  C   UNL     1       6.812   4.988  14.481  0.00  0.00    +0.000 A 
ATOM     23  C   UNL     1       5.655   4.225  14.623  0.00  0.00    +0.000 A 
ATOM     24  C   UNL     1       5.181   3.417  13.577  0.00  0.00    +0.000 A 
ENDBRANCH  16  22
ENDBRANCH  15  16
ENDBRANCH   1  15
TORSDOF 4
ENDMDL
MODEL 6
REMARK VINA RESULT:      -8.2      2.566      6.419
REMARK  Name = 
REMARK  5 active torsions:
REMARK  status: ('A' for Active; 'I' for Inactive)
REMARK    1  A    between atoms: C_1  and  C_2
REMARK    2  A    between atoms: C_5  and  N_6
REMARK    3  A    between atoms: N_6  and  C_7
REMARK    4  A    between atoms: C_7  and  N_8
REMARK    5  A    between atoms: C_14  and  N_15
REMARK                            x       y       z     vdW  Elec       q    Type
REMARK                         _______ _______ _______ _____ _____    ______ ____
ROOT
ATOM      1  N   UNL     1       6.391   5.973  17.807  0.00  0.00    +0.000 N 
ATOM      2  C   UNL     1       5.211   6.483  17.302  0.00  0.00    +0.000 C 
ATOM      3  O   UNL     1       5.004   7.055  16.249  0.00  0.00    +0.000 OA
ATOM      4  C   UNL     1       4.123   5.972  18.141  0.00  0.00    +0.000 A 
ATOM      5  C   UNL     1       2.772   5.883  17.858  0.00  0.00    +0.000 A 
ATOM      6  C   UNL     1       2.031   4.927  18.567  0.00  0.00    +0.000 A 
ATOM      7  C   UNL     1       2.674   4.076  19.503  0.00  0.00    +0.000 A 
ATOM      8  C   UNL     1       4.027   4.243  19.831  0.00  0.00    +0.000 A 
ATOM      9  C   UNL     1       4.711   5.226  19.140  0.00  0.00    +0.000 A 
ATOM     10  C   UNL     1       6.146   5.446  19.054  0.00  0.00    +0.000 C 
ATOM     11  O   UNL     1       6.933   5.149  19.931  0.00  0.00    +0.000 OA
ENDROOT
BRANCH   7  12
ATOM     12  N   UNL     1       1.941   2.919  20.043  0.00  0.00    +0.000 N 
ATOM     13  O   UNL     1       1.374   3.057  21.134  0.00  0.00    +0.000 OA
ATOM     14  O   UNL     1       1.909   1.891  19.353  0.00  0.00    +0.000 OA
ENDBRANCH   7  12
BRANCH   1  15
ATOM     15  C   UNL     1       7.074   5.047  16.934  0.00  0.00    +0.000 C 
BRANCH  15  16
ATOM     16  N   UNL     1       7.374   5.618  15.640  0.00  0.00    +0.000 N 
ATOM     17  H   UNL     1       8.372   5.784  15.536  0.00  0.00    +0.000 HD
BRANCH  16  22
ATOM     18  C   UNL     1       5.315   2.607  11.186  0.00  0.00    +0.000 C 
ATOM     19  C   UNL     1       5.842   3.389  12.348  0.00  0.00    +0.000 A 
ATOM     20  C   UNL     1       5.171   3.387  13.574  0.00  0.00    +0.000 A 
ATOM     21  C   UNL     1       5.661   4.120  14.657  0.00  0.00    +0.000 A 
ATOM     22  C   UNL     1       6.868   4.852  14.563  0.00  0.00    +0.000 A 
ATOM     23  C   UNL     1       7.499   4.886  13.321  0.00  0.00    +0.000 A 
ATOM     24  C   UNL     1       7.002   4.156  12.229  0.00  0.00    +0.000 A 
ENDBRANCH  16  22
ENDBRANCH  15  16
ENDBRANCH   1  15
TORSDOF 4
ENDMDL
MODEL 7
REMARK VINA RESULT:      -7.8      2.191      4.656
REMARK  Name = 
REMARK  5 active torsions:
REMARK  status: ('A' for Active; 'I' for Inactive)
REMARK    1  A    between atoms: C_1  and  C_2
REMARK    2  A    between atoms: C_5  and  N_6
REMARK    3  A    between atoms: N_6  and  C_7
REMARK    4  A    between atoms: C_7  and  N_8
REMARK    5  A    between atoms: C_14  and  N_15
REMARK                            x       y       z     vdW  Elec       q    Type
REMARK                         _______ _______ _______ _____ _____    ______ ____
ROOT
ATOM      1  N   UNL     1       2.372   2.690  19.693  0.00  0.00    +0.000 N 
ATOM      2  C   UNL     1       2.147   3.536  20.760  0.00  0.00    +0.000 C 
ATOM      3  O   UNL     1       2.361   3.361  21.945  0.00  0.00    +0.000 OA
ATOM      4  C   UNL     1       1.844   4.861  20.208  0.00  0.00    +0.000 A 
ATOM      5  C   UNL     1       1.904   6.097  20.825  0.00  0.00    +0.000 A 
ATOM      6  C   UNL     1       2.069   7.217  19.998  0.00  0.00    +0.000 A 
ATOM      7  C   UNL     1       2.202   7.056  18.594  0.00  0.00    +0.000 A 
ATOM      8  C   UNL     1       2.055   5.799  17.987  0.00  0.00    +0.000 A 
ATOM      9  C   UNL     1       1.850   4.727  18.836  0.00  0.00    +0.000 A 
ATOM     10  C   UNL     1       1.938   3.305  18.541  0.00  0.00    +0.000 C 
ATOM     11  O   UNL     1       1.711   2.822  17.450  0.00  0.00    +0.000 OA
ENDROOT
BRANCH   7  12
ATOM     12  N   UNL     1       2.629   8.202  17.776  0.00  0.00    +0.000 N 
ATOM     13  O   UNL     1       1.866   9.174  17.708  0.00  0.00    +0.000 OA
ATOM     14  O   UNL     1       3.741   8.136  17.236  0.00  0.00    +0.000 OA
ENDBRANCH   7  12
BRANCH   1  15
ATOM     15  C   UNL     1       3.727   2.197  19.586  0.00  0.00    +0.000 C 
BRANCH  15  16
ATOM     16  N   UNL     1       4.277   2.361  18.259  0.00  0.00    +0.000 N 
ATOM     17  H   UNL     1       3.555   2.263  17.549  0.00  0.00    +0.000 HD
BRANCH  16  22
ATOM     18  C   UNL     1       7.258   7.232  17.529  0.00  0.00    +0.000 C 
ATOM     19  C   UNL     1       6.486   5.965  17.728  0.00  0.00    +0.000 A 
ATOM     20  C   UNL     1       6.251   5.466  19.011  0.00  0.00    +0.000 A 
ATOM     21  C   UNL     1       5.534   4.282  19.196  0.00  0.00    +0.000 A 
ATOM     22  C   UNL     1       4.989   3.574  18.099  0.00  0.00    +0.000 A 
ATOM     23  C   UNL     1       5.275   4.056  16.823  0.00  0.00    +0.000 A 
ATOM     24  C   UNL     1       6.003   5.241  16.636  0.00  0.00    +0.000 A 
ENDBRANCH  16  22
ENDBRANCH  15  16
ENDBRANCH   1  15
TORSDOF 4
ENDMDL
MODEL 8
REMARK VINA RESULT:      -7.5      2.300      4.915
REMARK  Name = 
REMARK  5 active torsions:
REMARK  status: ('A' for Active; 'I' for Inactive)
REMARK    1  A    between atoms: C_1  and  C_2
REMARK    2  A    between atoms: C_5  and  N_6
REMARK    3  A    between atoms: N_6  and  C_7
REMARK    4  A    between atoms: C_7  and  N_8
REMARK    5  A    between atoms: C_14  and  N_15
REMARK                            x       y       z     vdW  Elec       q    Type
REMARK                         _______ _______ _______ _____ _____    ______ ____
ROOT
ATOM      1  N   UNL     1       3.124   2.796  18.712  0.00  0.00    +0.000 N 
ATOM      2  C   UNL     1       2.829   3.258  19.980  0.00  0.00    +0.000 C 
ATOM      3  O   UNL     1       3.190   2.834  21.061  0.00  0.00    +0.000 OA
ATOM      4  C   UNL     1       2.199   4.573  19.827  0.00  0.00    +0.000 A 
ATOM      5  C   UNL     1       2.054   5.585  20.759  0.00  0.00    +0.000 A 
ATOM      6  C   UNL     1       1.895   6.888  20.268  0.00  0.00    +0.000 A 
ATOM      7  C   UNL     1       1.922   7.134  18.871  0.00  0.00    +0.000 A 
ATOM      8  C   UNL     1       1.987   6.082  17.946  0.00  0.00    +0.000 A 
ATOM      9  C   UNL     1       2.098   4.808  18.472  0.00  0.00    +0.000 A 
ATOM     10  C   UNL     1       2.458   3.573  17.793  0.00  0.00    +0.000 C 
ATOM     11  O   UNL     1       2.234   3.352  16.619  0.00  0.00    +0.000 OA
ENDROOT
BRANCH   7  12
ATOM     12  N   UNL     1       2.012   8.521  18.387  0.00  0.00    +0.000 N 
ATOM     13  O   UNL     1       1.466   9.402  19.064  0.00  0.00    +0.000 OA
ATOM     14  O   UNL     1       2.660   8.724  17.352  0.00  0.00    +0.000 OA
ENDBRANCH   7  12
BRANCH   1  15
ATOM     15  C   UNL     1       4.535   2.676  18.425  0.00  0.00    +0.000 C 
BRANCH  15  16
ATOM     16  N   UNL     1       4.892   3.235  17.141  0.00  0.00    +0.000 N 
ATOM     17  H   UNL     1       4.071   3.357  16.554  0.00  0.00    +0.000 HD
BRANCH  16  22
ATOM     18  C   UNL     1       7.870   8.132  17.688  0.00  0.00    +0.000 C 
ATOM     19  C   UNL     1       7.089   6.863  17.542  0.00  0.00    +0.000 A 
ATOM     20  C   UNL     1       5.990   6.796  16.682  0.00  0.00    +0.000 A 
ATOM     21  C   UNL     1       5.259   5.614  16.548  0.00  0.00    +0.000 A 
ATOM     22  C   UNL     1       5.629   4.439  17.244  0.00  0.00    +0.000 A 
ATOM     23  C   UNL     1       6.695   4.534  18.137  0.00  0.00    +0.000 A 
ATOM     24  C   UNL     1       7.425   5.725  18.278  0.00  0.00    +0.000 A 
ENDBRANCH  16  22
ENDBRANCH  15  16
ENDBRANCH   1  15
TORSDOF 4
ENDMDL
MODEL 9
REMARK VINA RESULT:      -7.5      2.527      6.017
REMARK  Name = 
REMARK  5 active torsions:
REMARK  status: ('A' for Active; 'I' for Inactive)
REMARK    1  A    between atoms: C_1  and  C_2
REMARK    2  A    between atoms: C_5  and  N_6
REMARK    3  A    between atoms: N_6  and  C_7
REMARK    4  A    between atoms: C_7  and  N_8
REMARK    5  A    between atoms: C_14  and  N_15
REMARK                            x       y       z     vdW  Elec       q    Type
REMARK                         _______ _______ _______ _____ _____    ______ ____
ROOT
ATOM      1  N   UNL     1       6.417   6.528  18.214  0.00  0.00    +0.000 N 
ATOM      2  C   UNL     1       5.145   6.853  17.786  0.00  0.00    +0.000 C 
ATOM      3  O   UNL     1       4.790   7.696  16.985  0.00  0.00    +0.000 OA
ATOM      4  C   UNL     1       4.245   5.794  18.256  0.00  0.00    +0.000 A 
ATOM      5  C   UNL     1       2.983   5.457  17.803  0.00  0.00    +0.000 A 
ATOM      6  C   UNL     1       2.548   4.146  18.038  0.00  0.00    +0.000 A 
ATOM      7  C   UNL     1       3.402   3.214  18.683  0.00  0.00    +0.000 A 
ATOM      8  C   UNL     1       4.644   3.604  19.205  0.00  0.00    +0.000 A 
ATOM      9  C   UNL     1       5.016   4.918  18.991  0.00  0.00    +0.000 A 
ATOM     10  C   UNL     1       6.324   5.531  19.158  0.00  0.00    +0.000 C 
ATOM     11  O   UNL     1       7.155   5.153  19.960  0.00  0.00    +0.000 OA
ENDROOT
BRANCH   7  12
ATOM     12  N   UNL     1       3.036   1.788  18.690  0.00  0.00    +0.000 N 
ATOM     13  O   UNL     1       3.935   0.964  18.482  0.00  0.00    +0.000 OA
ATOM     14  O   UNL     1       1.858   1.503  18.941  0.00  0.00    +0.000 OA
ENDBRANCH   7  12
BRANCH   1  15
ATOM     15  C   UNL     1       7.350   6.213  17.158  0.00  0.00    +0.000 C 
BRANCH  15  16
ATOM     16  N   UNL     1       7.448   4.794  16.905  0.00  0.00    +0.000 N 
ATOM     17  H   UNL     1       7.053   4.257  17.673  0.00  0.00    +0.000 HD
BRANCH  16  22
ATOM     18  C   UNL     1       5.129   3.351  11.837  0.00  0.00    +0.000 C 
ATOM     19  C   UNL     1       5.724   3.724  13.159  0.00  0.00    +0.000 A 
ATOM     20  C   UNL     1       5.112   3.334  14.353  0.00  0.00    +0.000 A 
ATOM     21  C   UNL     1       5.665   3.685  15.586  0.00  0.00    +0.000 A 
ATOM     22  C   UNL     1       6.879   4.408  15.667  0.00  0.00    +0.000 A 
ATOM     23  C   UNL     1       7.450   4.834  14.470  0.00  0.00    +0.000 A 
ATOM     24  C   UNL     1       6.890   4.489  13.230  0.00  0.00    +0.000 A 
ENDBRANCH  16  22
ENDBRANCH  15  16
ENDBRANCH   1  15
TORSDOF 4
ENDMDL
