MODEL 1
REMARK VINA RESULT:      -8.3      0.000      0.000
REMARK  Name = 
REMARK  6 active torsions:
REMARK  status: ('A' for Active; 'I' for Inactive)
REMARK    1  A    between atoms: C_1  and  C_2
REMARK    2  A    between atoms: C_2  and  C_3
REMARK    3  A    between atoms: C_7  and  N_8
REMARK    4  A    between atoms: C_11  and  C_12
REMARK    5  A    between atoms: C_14  and  C_15
REMARK    6  A    between atoms: C_24  and  N_25
REMARK                            x       y       z     vdW  Elec       q    Type
REMARK                         _______ _______ _______ _____ _____    ______ ____
ROOT
ATOM      1  N   UNL     1       2.222   7.693  18.754  0.00  0.00    +0.000 N 
ATOM      2  N   UNL     1       2.024   8.853  18.070  0.00  0.00    +0.000 NA
ATOM      3  N   UNL     1       1.340   9.687  18.840  0.00  0.00    +0.000 NA
ATOM      4  C   UNL     1       1.174   9.094  20.058  0.00  0.00    +0.000 A 
ATOM      5  C   UNL     1       1.731   7.827  20.056  0.00  0.00    +0.000 A 
ENDROOT
BRANCH   1  10
ATOM      6  C   UNL     1       2.871   4.209  17.610  0.00  0.00    +0.000 A 
ATOM      7  C   UNL     1       4.113   4.366  16.986  0.00  0.00    +0.000 A 
ATOM      8  C   UNL     1       4.724   5.619  16.933  0.00  0.00    +0.000 A 
ATOM      9  C   UNL     1       4.099   6.728  17.505  0.00  0.00    +0.000 A 
ATOM     10  C   UNL     1       2.858   6.587  18.135  0.00  0.00    +0.000 A 
ATOM     11  C   UNL     1       2.250   5.323  18.192  0.00  0.00    +0.000 A 
BRANCH   6  13
ATOM     12  C   UNL     1       3.296   1.803  18.078  0.00  0.00    +0.000 C 
ATOM     13  C   UNL     1       2.243   2.845  17.731  0.00  0.00    +0.000 C 
ENDBRANCH   6  13
ENDBRANCH   1  10
BRANCH   4  14
ATOM     14  C   UNL     1       0.600   9.791  21.237  0.00  0.00    +0.000 A 
ATOM     15  N   UNL     1      -0.115  10.897  21.172  0.00  0.00    +0.000 NA
ATOM     16  C   UNL     1      -0.546  11.079  22.464  0.00  0.00    +0.000 A 
ATOM     17  N   UNL     1      -0.074  10.153  23.318  0.00  0.00    +0.000 NA
ATOM     18  O   UNL     1       0.684   9.308  22.513  0.00  0.00    +0.000 OA
BRANCH  16  19
ATOM     19  C   UNL     1      -1.419  12.176  22.883  0.00  0.00    +0.000 A 
ATOM     20  C   UNL     1      -2.690  11.861  23.408  0.00  0.00    +0.000 A 
ATOM     21  C   UNL     1      -3.581  12.857  23.815  0.00  0.00    +0.000 A 
ATOM     22  C   UNL     1      -3.219  14.196  23.705  0.00  0.00    +0.000 A 
ATOM     23  C   UNL     1      -1.971  14.533  23.188  0.00  0.00    +0.000 A 
ATOM     24  C   UNL     1      -1.070  13.535  22.777  0.00  0.00    +0.000 A 
ATOM     25 CL   UNL     1       0.429  14.101  22.117  0.00  0.00    +0.000 Cl
ENDBRANCH  16  19
ENDBRANCH   4  14
BRANCH   5  26
ATOM     26  N   UNL     1       1.908   6.920  21.064  0.00  0.00    +0.000 N 
ATOM     27  H   UNL     1       1.451   6.006  20.957  0.00  0.00    +0.000 HD
ATOM     28  H   UNL     1       1.884   7.229  22.031  0.00  0.00    +0.000 HD
ENDBRANCH   5  26
TORSDOF 5
ENDMDL
MODEL 2
REMARK VINA RESULT:      -8.2      0.837      1.756
REMARK  Name = 
REMARK  6 active torsions:
REMARK  status: ('A' for Active; 'I' for Inactive)
REMARK    1  A    between atoms: C_1  and  C_2
REMARK    2  A    between atoms: C_2  and  C_3
REMARK    3  A    between atoms: C_7  and  N_8
REMARK    4  A    between atoms: C_11  and  C_12
REMARK    5  A    between atoms: C_14  and  C_15
REMARK    6  A    between atoms: C_24  and  N_25
REMARK                            x       y       z     vdW  Elec       q    Type
REMARK                         _______ _______ _______ _____ _____    ______ ____
ROOT
ATOM      1  N   UNL     1       2.353   7.104  18.659  0.00  0.00    +0.000 N 
ATOM      2  N   UNL     1       2.230   8.246  17.927  0.00  0.00    +0.000 NA
ATOM      3  N   UNL     1       1.625   9.162  18.670  0.00  0.00    +0.000 NA
ATOM      4  C   UNL     1       1.438   8.636  19.915  0.00  0.00    +0.000 A 
ATOM      5  C   UNL     1       1.897   7.332  19.961  0.00  0.00    +0.000 A 
ENDROOT
BRANCH   1  10
ATOM      6  C   UNL     1       4.726   4.816  16.926  0.00  0.00    +0.000 A 
ATOM      7  C   UNL     1       3.963   3.645  16.867  0.00  0.00    +0.000 A 
ATOM      8  C   UNL     1       2.677   3.610  17.408  0.00  0.00    +0.000 A 
ATOM      9  C   UNL     1       2.142   4.747  18.015  0.00  0.00    +0.000 A 
ATOM     10  C   UNL     1       2.891   5.927  18.080  0.00  0.00    +0.000 A 
ATOM     11  C   UNL     1       4.181   5.959  17.528  0.00  0.00    +0.000 A 
BRANCH   6  13
ATOM     12  C   UNL     1       5.955   4.843  14.764  0.00  0.00    +0.000 C 
ATOM     13  C   UNL     1       6.085   4.877  16.279  0.00  0.00    +0.000 C 
ENDBRANCH   6  13
ENDBRANCH   1  10
BRANCH   4  14
ATOM     14  C   UNL     1       0.940   9.425  21.070  0.00  0.00    +0.000 A 
ATOM     15  N   UNL     1       0.158  10.483  20.968  0.00  0.00    +0.000 NA
ATOM     16  C   UNL     1      -0.157  10.779  22.272  0.00  0.00    +0.000 A 
ATOM     17  N   UNL     1       0.448   9.973  23.162  0.00  0.00    +0.000 NA
ATOM     18  O   UNL     1       1.174   9.085  22.373  0.00  0.00    +0.000 OA
BRANCH  16  19
ATOM     19  C   UNL     1      -1.049  11.871  22.665  0.00  0.00    +0.000 A 
ATOM     20  C   UNL     1      -2.272  11.547  23.290  0.00  0.00    +0.000 A 
ATOM     21  C   UNL     1      -3.178  12.537  23.679  0.00  0.00    +0.000 A 
ATOM     22  C   UNL     1      -2.880  13.876  23.452  0.00  0.00    +0.000 A 
ATOM     23  C   UNL     1      -1.679  14.221  22.836  0.00  0.00    +0.000 A 
ATOM     24  C   UNL     1      -0.763  13.230  22.441  0.00  0.00    +0.000 A 
ATOM     25 CL   UNL     1       0.669  13.801  21.651  0.00  0.00    +0.000 Cl
ENDBRANCH  16  19
ENDBRANCH   4  14
BRANCH   5  26
ATOM     26  N   UNL     1       2.023   6.457  21.005  0.00  0.00    +0.000 N 
ATOM     27  H   UNL     1       1.232   6.388  21.656  0.00  0.00    +0.000 HD
ATOM     28  H   UNL     1       2.908   6.384  21.497  0.00  0.00    +0.000 HD
ENDBRANCH   5  26
TORSDOF 5
ENDMDL
MODEL 3
REMARK VINA RESULT:      -8.2      3.596      5.555
REMARK  Name = 
REMARK  6 active torsions:
REMARK  status: ('A' for Active; 'I' for Inactive)
REMARK    1  A    between atoms: C_1  and  C_2
REMARK    2  A    between atoms: C_2  and  C_3
REMARK    3  A    between atoms: C_7  and  N_8
REMARK    4  A    between atoms: C_11  and  C_12
REMARK    5  A    between atoms: C_14  and  C_15
REMARK    6  A    between atoms: C_24  and  N_25
REMARK                            x       y       z     vdW  Elec       q    Type
REMARK                         _______ _______ _______ _____ _____    ______ ____
ROOT
ATOM      1  N   UNL     1       4.985   4.442  16.170  0.00  0.00    +0.000 N 
ATOM      2  N   UNL     1       4.672   3.290  16.825  0.00  0.00    +0.000 NA
ATOM      3  N   UNL     1       4.079   3.601  17.968  0.00  0.00    +0.000 NA
ATOM      4  C   UNL     1       3.929   4.957  18.008  0.00  0.00    +0.000 A 
ATOM      5  C   UNL     1       4.480   5.535  16.878  0.00  0.00    +0.000 A 
ENDROOT
BRANCH   1  10
ATOM      6  C   UNL     1       5.918   3.586  12.667  0.00  0.00    +0.000 A 
ATOM      7  C   UNL     1       7.139   4.258  12.550  0.00  0.00    +0.000 A 
ATOM      8  C   UNL     1       7.643   5.000  13.619  0.00  0.00    +0.000 A 
ATOM      9  C   UNL     1       6.930   5.076  14.816  0.00  0.00    +0.000 A 
ATOM     10  C   UNL     1       5.708   4.408  14.950  0.00  0.00    +0.000 A 
ATOM     11  C   UNL     1       5.208   3.657  13.874  0.00  0.00    +0.000 A 
BRANCH   6  13
ATOM     12  C   UNL     1       4.015   3.172  11.118  0.00  0.00    +0.000 C 
ATOM     13  C   UNL     1       5.407   2.727  11.540  0.00  0.00    +0.000 C 
ENDBRANCH   6  13
ENDBRANCH   1  10
BRANCH   4  14
ATOM     14  C   UNL     1       3.155   5.665  19.060  0.00  0.00    +0.000 A 
ATOM     15  N   UNL     1       2.852   6.948  19.025  0.00  0.00    +0.000 NA
ATOM     16  C   UNL     1       2.021   7.112  20.106  0.00  0.00    +0.000 A 
ATOM     17  N   UNL     1       1.852   5.988  20.824  0.00  0.00    +0.000 NA
ATOM     18  O   UNL     1       2.602   5.036  20.140  0.00  0.00    +0.000 OA
BRANCH  16  19
ATOM     19  C   UNL     1       1.389   8.385  20.459  0.00  0.00    +0.000 A 
ATOM     20  C   UNL     1       1.053   8.617  21.809  0.00  0.00    +0.000 A 
ATOM     21  C   UNL     1       0.435   9.802  22.215  0.00  0.00    +0.000 A 
ATOM     22  C   UNL     1       0.139  10.785  21.277  0.00  0.00    +0.000 A 
ATOM     23  C   UNL     1       0.460  10.579  19.937  0.00  0.00    +0.000 A 
ATOM     24  C   UNL     1       1.081   9.389  19.522  0.00  0.00    +0.000 A 
ATOM     25 CL   UNL     1       1.385   9.252  17.822  0.00  0.00    +0.000 Cl
ENDBRANCH  16  19
ENDBRANCH   4  14
BRANCH   5  26
ATOM     26  N   UNL     1       4.467   6.828  16.430  0.00  0.00    +0.000 N 
ATOM     27  H   UNL     1       3.734   7.084  15.759  0.00  0.00    +0.000 HD
ATOM     28  H   UNL     1       5.342   7.294  16.211  0.00  0.00    +0.000 HD
ENDBRANCH   5  26
TORSDOF 5
ENDMDL
MODEL 4
REMARK VINA RESULT:      -8.0      1.845      2.199
REMARK  Name = 
REMARK  6 active torsions:
REMARK  status: ('A' for Active; 'I' for Inactive)
REMARK    1  A    between atoms: C_1  and  C_2
REMARK    2  A    between atoms: C_2  and  C_3
REMARK    3  A    between atoms: C_7  and  N_8
REMARK    4  A    between atoms: C_11  and  C_12
REMARK    5  A    between atoms: C_14  and  C_15
REMARK    6  A    between atoms: C_24  and  N_25
REMARK                            x       y       z     vdW  Elec       q    Type
REMARK                         _______ _______ _______ _____ _____    ______ ____
ROOT
ATOM      1  N   UNL     1       2.743   7.169  18.492  0.00  0.00    +0.000 N 
ATOM      2  N   UNL     1       2.928   7.912  17.366  0.00  0.00    +0.000 NA
ATOM      3  N   UNL     1       2.249   9.043  17.490  0.00  0.00    +0.000 NA
ATOM      4  C   UNL     1       1.696   9.067  18.737  0.00  0.00    +0.000 A 
ATOM      5  C   UNL     1       1.993   7.900  19.417  0.00  0.00    +0.000 A 
ENDROOT
BRANCH   1  10
ATOM      6  C   UNL     1       3.012   3.457  18.362  0.00  0.00    +0.000 A 
ATOM      7  C   UNL     1       4.308   3.271  18.854  0.00  0.00    +0.000 A 
ATOM      8  C   UNL     1       5.091   4.369  19.214  0.00  0.00    +0.000 A 
ATOM      9  C   UNL     1       4.586   5.663  19.085  0.00  0.00    +0.000 A 
ATOM     10  C   UNL     1       3.290   5.864  18.597  0.00  0.00    +0.000 A 
ATOM     11  C   UNL     1       2.503   4.757  18.242  0.00  0.00    +0.000 A 
BRANCH   6  13
ATOM     12  C   UNL     1       0.832   2.346  18.814  0.00  0.00    +0.000 C 
ATOM     13  C   UNL     1       2.140   2.271  18.041  0.00  0.00    +0.000 C 
ENDBRANCH   6  13
ENDBRANCH   1  10
BRANCH   4  14
ATOM     14  C   UNL     1       1.000  10.251  19.301  0.00  0.00    +0.000 A 
ATOM     15  N   UNL     1      -0.086  10.191  20.047  0.00  0.00    +0.000 NA
ATOM     16  C   UNL     1      -0.272  11.491  20.452  0.00  0.00    +0.000 A 
ATOM     17  N   UNL     1       0.630  12.344  19.935  0.00  0.00    +0.000 NA
ATOM     18  O   UNL     1       1.465  11.531  19.174  0.00  0.00    +0.000 OA
BRANCH  16  19
ATOM     19  C   UNL     1      -1.351  11.918  21.344  0.00  0.00    +0.000 A 
ATOM     20  C   UNL     1      -2.223  12.937  20.905  0.00  0.00    +0.000 A 
ATOM     21  C   UNL     1      -3.266  13.403  21.709  0.00  0.00    +0.000 A 
ATOM     22  C   UNL     1      -3.462  12.858  22.973  0.00  0.00    +0.000 A 
ATOM     23  C   UNL     1      -2.614  11.851  23.430  0.00  0.00    +0.000 A 
ATOM     24  C   UNL     1      -1.563  11.378  22.626  0.00  0.00    +0.000 A 
ATOM     25 CL   UNL     1      -0.565  10.153  23.337  0.00  0.00    +0.000 Cl
ENDBRANCH  16  19
ENDBRANCH   4  14
BRANCH   5  26
ATOM     26  N   UNL     1       1.758   7.527  20.712  0.00  0.00    +0.000 N 
ATOM     27  H   UNL     1       1.614   8.278  21.397  0.00  0.00    +0.000 HD
ATOM     28  H   UNL     1       2.282   6.758  21.119  0.00  0.00    +0.000 HD
ENDBRANCH   5  26
TORSDOF 5
ENDMDL
MODEL 5
REMARK VINA RESULT:      -7.9      2.295      9.394
REMARK  Name = 
REMARK  6 active torsions:
REMARK  status: ('A' for Active; 'I' for Inactive)
REMARK    1  A    between atoms: C_1  and  C_2
REMARK    2  A    between atoms: C_2  and  C_3
REMARK    3  A    between atoms: C_7  and  N_8
REMARK    4  A    between atoms: C_11  and  C_12
REMARK    5  A    between atoms: C_14  and  C_15
REMARK    6  A    between atoms: C_24  and  N_25
REMARK                            x       y       z     vdW  Elec       q    Type
REMARK                         _______ _______ _______ _____ _____    ______ ____
ROOT
ATOM      1  N   UNL     1      -0.138  10.944  22.081  0.00  0.00    +0.000 N 
ATOM      2  N   UNL     1       0.550  10.101  22.900  0.00  0.00    +0.000 NA
ATOM      3  N   UNL     1       1.147   9.182  22.156  0.00  0.00    +0.000 NA
ATOM      4  C   UNL     1       0.914   9.485  20.846  0.00  0.00    +0.000 A 
ATOM      5  C   UNL     1       0.110  10.607  20.747  0.00  0.00    +0.000 A 
ENDROOT
BRANCH   1  10
ATOM      6  C   UNL     1      -2.985  12.660  23.760  0.00  0.00    +0.000 A 
ATOM      7  C   UNL     1      -2.595  13.998  23.633  0.00  0.00    +0.000 A 
ATOM      8  C   UNL     1      -1.392  14.327  23.007  0.00  0.00    +0.000 A 
ATOM      9  C   UNL     1      -0.567  13.322  22.502  0.00  0.00    +0.000 A 
ATOM     10  C   UNL     1      -0.944  11.979  22.619  0.00  0.00    +0.000 A 
ATOM     11  C   UNL     1      -2.158  11.653  23.243  0.00  0.00    +0.000 A 
BRANCH   6  13
ATOM     12  C   UNL     1      -5.393  13.271  23.895  0.00  0.00    +0.000 C 
ATOM     13  C   UNL     1      -4.316  12.307  24.370  0.00  0.00    +0.000 C 
ENDBRANCH   6  13
ENDBRANCH   1  10
BRANCH   4  14
ATOM     14  C   UNL     1       1.562   8.776  19.713  0.00  0.00    +0.000 A 
ATOM     15  N   UNL     1       1.962   7.519  19.752  0.00  0.00    +0.000 NA
ATOM     16  C   UNL     1       2.350   7.264  18.459  0.00  0.00    +0.000 A 
ATOM     17  N   UNL     1       2.250   8.334  17.652  0.00  0.00    +0.000 NA
ATOM     18  O   UNL     1       1.736   9.331  18.476  0.00  0.00    +0.000 OA
BRANCH  16  19
ATOM     19  C   UNL     1       2.840   5.963  18.000  0.00  0.00    +0.000 A 
ATOM     20  C   UNL     1       1.983   4.847  18.106  0.00  0.00    +0.000 A 
ATOM     21  C   UNL     1       2.388   3.573  17.700  0.00  0.00    +0.000 A 
ATOM     22  C   UNL     1       3.663   3.387  17.177  0.00  0.00    +0.000 A 
ATOM     23  C   UNL     1       4.528   4.473  17.063  0.00  0.00    +0.000 A 
ATOM     24  C   UNL     1       4.127   5.757  17.470  0.00  0.00    +0.000 A 
ATOM     25 CL   UNL     1       5.318   7.004  17.309  0.00  0.00    +0.000 Cl
ENDBRANCH  16  19
ENDBRANCH   4  14
BRANCH   5  26
ATOM     26  N   UNL     1      -0.286  11.339  19.662  0.00  0.00    +0.000 N 
ATOM     27  H   UNL     1      -0.316  10.855  18.757  0.00  0.00    +0.000 HD
ATOM     28  H   UNL     1       0.036  12.296  19.554  0.00  0.00    +0.000 HD
ENDBRANCH   5  26
TORSDOF 5
ENDMDL
MODEL 6
REMARK VINA RESULT:      -7.9      1.501      1.657
REMARK  Name = 
REMARK  6 active torsions:
REMARK  status: ('A' for Active; 'I' for Inactive)
REMARK    1  A    between atoms: C_1  and  C_2
REMARK    2  A    between atoms: C_2  and  C_3
REMARK    3  A    between atoms: C_7  and  N_8
REMARK    4  A    between atoms: C_11  and  C_12
REMARK    5  A    between atoms: C_14  and  C_15
REMARK    6  A    between atoms: C_24  and  N_25
REMARK                            x       y       z     vdW  Elec       q    Type
REMARK                         _______ _______ _______ _____ _____    ______ ____
ROOT
ATOM      1  N   UNL     1       2.270   7.806  18.469  0.00  0.00    +0.000 N 
ATOM      2  N   UNL     1       2.168   8.782  17.525  0.00  0.00    +0.000 NA
ATOM      3  N   UNL     1       1.471   9.789  18.030  0.00  0.00    +0.000 NA
ATOM      4  C   UNL     1       1.199   9.498  19.335  0.00  0.00    +0.000 A 
ATOM      5  C   UNL     1       1.698   8.250  19.664  0.00  0.00    +0.000 A 
ENDROOT
BRANCH   1  10
ATOM      6  C   UNL     1       2.737   4.154  17.913  0.00  0.00    +0.000 A 
ATOM      7  C   UNL     1       4.110   4.103  17.648  0.00  0.00    +0.000 A 
ATOM      8  C   UNL     1       4.872   5.272  17.641  0.00  0.00    +0.000 A 
ATOM      9  C   UNL     1       4.268   6.503  17.899  0.00  0.00    +0.000 A 
ATOM     10  C   UNL     1       2.897   6.570  18.168  0.00  0.00    +0.000 A 
ATOM     11  C   UNL     1       2.136   5.391  18.181  0.00  0.00    +0.000 A 
BRANCH   6  13
ATOM     12  C   UNL     1       1.082   2.871  19.257  0.00  0.00    +0.000 C 
ATOM     13  C   UNL     1       1.928   2.886  17.993  0.00  0.00    +0.000 C 
ENDBRANCH   6  13
ENDBRANCH   1  10
BRANCH   4  14
ATOM     14  C   UNL     1       0.577  10.464  20.277  0.00  0.00    +0.000 A 
ATOM     15  N   UNL     1      -0.720  10.686  20.367  0.00  0.00    +0.000 NA
ATOM     16  C   UNL     1      -0.829  11.524  21.451  0.00  0.00    +0.000 A 
ATOM     17  N   UNL     1       0.358  11.858  21.986  0.00  0.00    +0.000 NA
ATOM     18  O   UNL     1       1.285  11.166  21.212  0.00  0.00    +0.000 OA
BRANCH  16  19
ATOM     19  C   UNL     1      -2.105  12.020  21.969  0.00  0.00    +0.000 A 
ATOM     20  C   UNL     1      -2.316  12.001  23.364  0.00  0.00    +0.000 A 
ATOM     21  C   UNL     1      -3.515  12.446  23.927  0.00  0.00    +0.000 A 
ATOM     22  C   UNL     1      -4.531  12.922  23.106  0.00  0.00    +0.000 A 
ATOM     23  C   UNL     1      -4.347  12.950  21.725  0.00  0.00    +0.000 A 
ATOM     24  C   UNL     1      -3.143  12.503  21.152  0.00  0.00    +0.000 A 
ATOM     25 CL   UNL     1      -3.069  12.557  19.422  0.00  0.00    +0.000 Cl
ENDBRANCH  16  19
ENDBRANCH   4  14
BRANCH   5  26
ATOM     26  N   UNL     1       1.767   7.595  20.863  0.00  0.00    +0.000 N 
ATOM     27  H   UNL     1       0.943   7.646  21.473  0.00  0.00    +0.000 HD
ATOM     28  H   UNL     1       2.625   7.627  21.406  0.00  0.00    +0.000 HD
ENDBRANCH   5  26
TORSDOF 5
ENDMDL
MODEL 7
REMARK VINA RESULT:      -7.8      3.513      9.280
REMARK  Name = 
REMARK  6 active torsions:
REMARK  status: ('A' for Active; 'I' for Inactive)
REMARK    1  A    between atoms: C_1  and  C_2
REMARK    2  A    between atoms: C_2  and  C_3
REMARK    3  A    between atoms: C_7  and  N_8
REMARK    4  A    between atoms: C_11  and  C_12
REMARK    5  A    between atoms: C_14  and  C_15
REMARK    6  A    between atoms: C_24  and  N_25
REMARK                            x       y       z     vdW  Elec       q    Type
REMARK                         _______ _______ _______ _____ _____    ______ ____
ROOT
ATOM      1  N   UNL     1       0.800   9.253  19.933  0.00  0.00    +0.000 N 
ATOM      2  N   UNL     1       0.844   8.566  21.108  0.00  0.00    +0.000 NA
ATOM      3  N   UNL     1       1.568   7.470  20.930  0.00  0.00    +0.000 NA
ATOM      4  C   UNL     1       2.066   7.496  19.660  0.00  0.00    +0.000 A 
ATOM      5  C   UNL     1       1.615   8.620  18.990  0.00  0.00    +0.000 A 
ENDROOT
BRANCH   1  10
ATOM      6  C   UNL     1      -1.917  11.564  18.865  0.00  0.00    +0.000 A 
ATOM      7  C   UNL     1      -1.512  12.749  19.489  0.00  0.00    +0.000 A 
ATOM      8  C   UNL     1      -0.355  12.778  20.268  0.00  0.00    +0.000 A 
ATOM      9  C   UNL     1       0.409  11.622  20.431  0.00  0.00    +0.000 A 
ATOM     10  C   UNL     1       0.019  10.430  19.811  0.00  0.00    +0.000 A 
ATOM     11  C   UNL     1      -1.142  10.407  19.023  0.00  0.00    +0.000 A 
BRANCH   6  13
ATOM     12  C   UNL     1      -2.759  11.017  16.589  0.00  0.00    +0.000 C 
ATOM     13  C   UNL     1      -3.126  11.549  17.966  0.00  0.00    +0.000 C 
ENDBRANCH   6  13
ENDBRANCH   1  10
BRANCH   4  14
ATOM     14  C   UNL     1       3.060   6.518  19.150  0.00  0.00    +0.000 A 
ATOM     15  N   UNL     1       3.547   6.522  17.924  0.00  0.00    +0.000 NA
ATOM     16  C   UNL     1       4.520   5.552  17.961  0.00  0.00    +0.000 A 
ATOM     17  N   UNL     1       4.603   4.926  19.147  0.00  0.00    +0.000 NA
ATOM     18  O   UNL     1       3.640   5.556  19.930  0.00  0.00    +0.000 OA
BRANCH  16  19
ATOM     19  C   UNL     1       5.375   5.217  16.821  0.00  0.00    +0.000 A 
ATOM     20  C   UNL     1       4.882   4.318  15.852  0.00  0.00    +0.000 A 
ATOM     21  C   UNL     1       5.649   3.943  14.746  0.00  0.00    +0.000 A 
ATOM     22  C   UNL     1       6.929   4.460  14.584  0.00  0.00    +0.000 A 
ATOM     23  C   UNL     1       7.439   5.348  15.527  0.00  0.00    +0.000 A 
ATOM     24  C   UNL     1       6.673   5.730  16.643  0.00  0.00    +0.000 A 
ATOM     25 CL   UNL     1       7.449   6.808  17.755  0.00  0.00    +0.000 Cl
ENDBRANCH  16  19
ENDBRANCH   4  14
BRANCH   5  26
ATOM     26  N   UNL     1       1.934   9.123  17.759  0.00  0.00    +0.000 N 
ATOM     27  H   UNL     1       2.458   8.509  17.124  0.00  0.00    +0.000 HD
ATOM     28  H   UNL     1       2.243  10.086  17.672  0.00  0.00    +0.000 HD
ENDBRANCH   5  26
TORSDOF 5
ENDMDL
MODEL 8
REMARK VINA RESULT:      -7.7      1.596      2.454
REMARK  Name = 
REMARK  6 active torsions:
REMARK  status: ('A' for Active; 'I' for Inactive)
REMARK    1  A    between atoms: C_1  and  C_2
REMARK    2  A    between atoms: C_2  and  C_3
REMARK    3  A    between atoms: C_7  and  N_8
REMARK    4  A    between atoms: C_11  and  C_12
REMARK    5  A    between atoms: C_14  and  C_15
REMARK    6  A    between atoms: C_24  and  N_25
REMARK                            x       y       z     vdW  Elec       q    Type
REMARK                         _______ _______ _______ _____ _____    ______ ____
ROOT
ATOM      1  N   UNL     1       2.236   8.032  18.383  0.00  0.00    +0.000 N 
ATOM      2  N   UNL     1       2.051   9.016  17.460  0.00  0.00    +0.000 NA
ATOM      3  N   UNL     1       1.322   9.977  18.008  0.00  0.00    +0.000 NA
ATOM      4  C   UNL     1       1.113   9.653  19.317  0.00  0.00    +0.000 A 
ATOM      5  C   UNL     1       1.688   8.427  19.605  0.00  0.00    +0.000 A 
ENDROOT
BRANCH   1  10
ATOM      6  C   UNL     1       4.922   5.733  17.212  0.00  0.00    +0.000 A 
ATOM      7  C   UNL     1       4.262   4.502  17.282  0.00  0.00    +0.000 A 
ATOM      8  C   UNL     1       2.941   4.433  17.726  0.00  0.00    +0.000 A 
ATOM      9  C   UNL     1       2.268   5.595  18.105  0.00  0.00    +0.000 A 
ATOM     10  C   UNL     1       2.914   6.834  18.038  0.00  0.00    +0.000 A 
ATOM     11  C   UNL     1       4.240   6.900  17.584  0.00  0.00    +0.000 A 
BRANCH   6  13
ATOM     12  C   UNL     1       7.118   6.888  17.397  0.00  0.00    +0.000 C 
ATOM     13  C   UNL     1       6.324   5.819  16.664  0.00  0.00    +0.000 C 
ENDBRANCH   6  13
ENDBRANCH   1  10
BRANCH   4  14
ATOM     14  C   UNL     1       0.479  10.570  20.297  0.00  0.00    +0.000 A 
ATOM     15  N   UNL     1      -0.817  10.802  20.369  0.00  0.00    +0.000 NA
ATOM     16  C   UNL     1      -0.944  11.578  21.496  0.00  0.00    +0.000 A 
ATOM     17  N   UNL     1       0.233  11.868  22.078  0.00  0.00    +0.000 NA
ATOM     18  O   UNL     1       1.171  11.210  21.288  0.00  0.00    +0.000 OA
BRANCH  16  19
ATOM     19  C   UNL     1      -2.227  12.059  22.011  0.00  0.00    +0.000 A 
ATOM     20  C   UNL     1      -2.438  12.046  23.405  0.00  0.00    +0.000 A 
ATOM     21  C   UNL     1      -3.643  12.477  23.966  0.00  0.00    +0.000 A 
ATOM     22  C   UNL     1      -4.666  12.933  23.142  0.00  0.00    +0.000 A 
ATOM     23  C   UNL     1      -4.483  12.954  21.761  0.00  0.00    +0.000 A 
ATOM     24  C   UNL     1      -3.273  12.521  21.191  0.00  0.00    +0.000 A 
ATOM     25 CL   UNL     1      -3.199  12.565  19.460  0.00  0.00    +0.000 Cl
ENDBRANCH  16  19
ENDBRANCH   4  14
BRANCH   5  26
ATOM     26  N   UNL     1       1.834   7.758  20.789  0.00  0.00    +0.000 N 
ATOM     27  H   UNL     1       2.152   8.303  21.599  0.00  0.00    +0.000 HD
ATOM     28  H   UNL     1       2.239   6.827  20.795  0.00  0.00    +0.000 HD
ENDBRANCH   5  26
TORSDOF 5
ENDMDL
MODEL 9
REMARK VINA RESULT:      -7.7      1.214      1.321
REMARK  Name = 
REMARK  6 active torsions:
REMARK  status: ('A' for Active; 'I' for Inactive)
REMARK    1  A    between atoms: C_1  and  C_2
REMARK    2  A    between atoms: C_2  and  C_3
REMARK    3  A    between atoms: C_7  and  N_8
REMARK    4  A    between atoms: C_11  and  C_12
REMARK    5  A    between atoms: C_14  and  C_15
REMARK    6  A    between atoms: C_24  and  N_25
REMARK                            x       y       z     vdW  Elec       q    Type
REMARK                         _______ _______ _______ _____ _____    ______ ____
ROOT
ATOM      1  N   UNL     1       2.412   7.673  18.335  0.00  0.00    +0.000 N 
ATOM      2  N   UNL     1       2.187   8.748  17.530  0.00  0.00    +0.000 NA
ATOM      3  N   UNL     1       1.487   9.646  18.208  0.00  0.00    +0.000 NA
ATOM      4  C   UNL     1       1.338   9.186  19.484  0.00  0.00    +0.000 A 
ATOM      5  C   UNL     1       1.921   7.938  19.617  0.00  0.00    +0.000 A 
ENDROOT
BRANCH   1  10
ATOM      6  C   UNL     1       3.074   4.113  17.469  0.00  0.00    +0.000 A 
ATOM      7  C   UNL     1       4.360   4.210  16.927  0.00  0.00    +0.000 A 
ATOM      8  C   UNL     1       4.997   5.448  16.838  0.00  0.00    +0.000 A 
ATOM      9  C   UNL     1       4.354   6.601  17.289  0.00  0.00    +0.000 A 
ATOM     10  C   UNL     1       3.069   6.519  17.836  0.00  0.00    +0.000 A 
ATOM     11  C   UNL     1       2.434   5.272  17.931  0.00  0.00    +0.000 A 
BRANCH   6  13
ATOM     12  C   UNL     1       3.375   1.776  18.268  0.00  0.00    +0.000 C 
ATOM     13  C   UNL     1       2.414   2.768  17.633  0.00  0.00    +0.000 C 
ENDBRANCH   6  13
ENDBRANCH   1  10
BRANCH   4  14
ATOM     14  C   UNL     1       0.752   9.995  20.583  0.00  0.00    +0.000 A 
ATOM     15  N   UNL     1      -0.047  11.028  20.403  0.00  0.00    +0.000 NA
ATOM     16  C   UNL     1      -0.446  11.354  21.677  0.00  0.00    +0.000 A 
ATOM     17  N   UNL     1       0.123  10.589  22.625  0.00  0.00    +0.000 NA
ATOM     18  O   UNL     1       0.917   9.698  21.908  0.00  0.00    +0.000 OA
BRANCH  16  19
ATOM     19  C   UNL     1      -1.387  12.433  21.982  0.00  0.00    +0.000 A 
ATOM     20  C   UNL     1      -1.271  13.093  23.223  0.00  0.00    +0.000 A 
ATOM     21  C   UNL     1      -2.142  14.123  23.588  0.00  0.00    +0.000 A 
ATOM     22  C   UNL     1      -3.151  14.517  22.716  0.00  0.00    +0.000 A 
ATOM     23  C   UNL     1      -3.287  13.879  21.485  0.00  0.00    +0.000 A 
ATOM     24  C   UNL     1      -2.414  12.842  21.112  0.00  0.00    +0.000 A 
ATOM     25 CL   UNL     1      -2.725  12.113  19.572  0.00  0.00    +0.000 Cl
ENDBRANCH  16  19
ENDBRANCH   4  14
BRANCH   5  26
ATOM     26  N   UNL     1       2.120   7.149  20.716  0.00  0.00    +0.000 N 
ATOM     27  H   UNL     1       3.001   6.624  20.762  0.00  0.00    +0.000 HD
ATOM     28  H   UNL     1       1.350   6.604  21.092  0.00  0.00    +0.000 HD
ENDBRANCH   5  26
TORSDOF 5
ENDMDL
