MODEL 1
REMARK VINA RESULT:      -7.7      0.000      0.000
REMARK  Name = 
REMARK  3 active torsions:
REMARK  status: ('A' for Active; 'I' for Inactive)
REMARK    1  A    between atoms: S_2  and  N_4
REMARK    2  A    between atoms: S_2  and  C_19
REMARK    3  A    between atoms: N_4  and  C_5
REMARK                            x       y       z     vdW  Elec       q    Type
REMARK                         _______ _______ _______ _____ _____    ______ ____
ROOT
ATOM      1  C   UNL     1       1.460   9.371  18.609  0.00  0.00    +0.000 A 
ATOM      2  C   UNL     1       1.417   8.879  19.892  0.00  0.00    +0.000 A 
ATOM      3  N   UNL     1       1.895   7.664  20.246  0.00  0.00    +0.000 NA
ATOM      4  C   UNL     1       2.463   6.896  19.293  0.00  0.00    +0.000 A 
ATOM      5  N   UNL     1       2.891   5.604  19.607  0.00  0.00    +0.000 N 
ATOM      6  C   UNL     1       2.955   4.675  18.453  0.00  0.00    +0.000 C 
ATOM      7  C   UNL     1       1.960   3.499  18.594  0.00  0.00    +0.000 C 
ATOM      8  C   UNL     1       2.474   2.398  19.534  0.00  0.00    +0.000 C 
ATOM      9  C   UNL     1       1.663   2.607  20.802  0.00  0.00    +0.000 C 
ATOM     10  C   UNL     1       1.185   4.040  20.636  0.00  0.00    +0.000 C 
ATOM     11  C   UNL     1       2.346   5.053  20.866  0.00  0.00    +0.000 C 
ATOM     12  O   UNL     1       0.776   4.010  19.249  0.00  0.00    +0.000 OA
ATOM     13  N   UNL     1       2.646   7.357  18.044  0.00  0.00    +0.000 NA
ATOM     14  C   UNL     1       2.145   8.570  17.726  0.00  0.00    +0.000 A 
ENDROOT
BRANCH   1  15
ATOM     15  N   UNL     1       0.871  10.626  18.241  0.00  0.00    +0.000 N 
ATOM     16  H   UNL     1       1.483  11.420  18.441  0.00  0.00    +0.000 HD
BRANCH  15  18
ATOM     17  O   UNL     1      -0.944   9.912  19.912  0.00  0.00    +0.000 OA
ATOM     18  S   UNL     1      -0.649  10.935  18.936  0.00  0.00    +0.000 S 
ATOM     19  O   UNL     1      -0.704  12.348  19.244  0.00  0.00    +0.000 OA
BRANCH  18  20
ATOM     20  C   UNL     1      -1.873  10.709  17.635  0.00  0.00    +0.000 A 
ATOM     21  C   UNL     1      -2.007   9.716  16.668  0.00  0.00    +0.000 A 
ATOM     22  C   UNL     1      -3.133  10.033  15.872  0.00  0.00    +0.000 A 
ATOM     23  C   UNL     1      -3.645  11.193  16.392  0.00  0.00    +0.000 A 
ATOM     24  O   UNL     1      -2.912  11.606  17.459  0.00  0.00    +0.000 OA
ENDBRANCH  18  20
ENDBRANCH  15  18
ENDBRANCH   1  15
TORSDOF 3
ENDMDL
MODEL 2
REMARK VINA RESULT:      -7.5      2.409      7.358
REMARK  Name = 
REMARK  3 active torsions:
REMARK  status: ('A' for Active; 'I' for Inactive)
REMARK    1  A    between atoms: S_2  and  N_4
REMARK    2  A    between atoms: S_2  and  C_19
REMARK    3  A    between atoms: N_4  and  C_5
REMARK                            x       y       z     vdW  Elec       q    Type
REMARK                         _______ _______ _______ _____ _____    ______ ____
ROOT
ATOM      1  C   UNL     1       2.976   6.450  18.344  0.00  0.00    +0.000 A 
ATOM      2  C   UNL     1       2.979   7.599  17.589  0.00  0.00    +0.000 A 
ATOM      3  N   UNL     1       2.449   8.772  18.005  0.00  0.00    +0.000 NA
ATOM      4  C   UNL     1       1.901   8.826  19.237  0.00  0.00    +0.000 A 
ATOM      5  N   UNL     1       1.272   9.997  19.665  0.00  0.00    +0.000 N 
ATOM      6  C   UNL     1       0.248   9.800  20.721  0.00  0.00    +0.000 C 
ATOM      7  C   UNL     1      -1.170  10.185  20.239  0.00  0.00    +0.000 C 
ATOM      8  C   UNL     1      -1.411  11.702  20.261  0.00  0.00    +0.000 C 
ATOM      9  C   UNL     1      -1.328  12.096  18.796  0.00  0.00    +0.000 C 
ATOM     10  C   UNL     1      -0.574  10.919  18.197  0.00  0.00    +0.000 C 
ATOM     11  C   UNL     1       0.932  10.954  18.591  0.00  0.00    +0.000 C 
ATOM     12  O   UNL     1      -1.265   9.824  18.842  0.00  0.00    +0.000 OA
ATOM     13  N   UNL     1       1.966   7.778  20.075  0.00  0.00    +0.000 NA
ATOM     14  C   UNL     1       2.493   6.621  19.620  0.00  0.00    +0.000 A 
ENDROOT
BRANCH   1  15
ATOM     15  N   UNL     1       3.468   5.197  17.848  0.00  0.00    +0.000 N 
ATOM     16  H   UNL     1       3.894   5.282  16.924  0.00  0.00    +0.000 HD
BRANCH  15  18
ATOM     17  O   UNL     1       1.041   4.489  17.398  0.00  0.00    +0.000 OA
ATOM     18  S   UNL     1       2.318   3.946  17.796  0.00  0.00    +0.000 S 
ATOM     19  O   UNL     1       2.934   2.822  17.124  0.00  0.00    +0.000 OA
BRANCH  18  20
ATOM     20  C   UNL     1       2.081   3.385  19.490  0.00  0.00    +0.000 A 
ATOM     21  C   UNL     1       0.935   3.314  20.279  0.00  0.00    +0.000 A 
ATOM     22  C   UNL     1       1.312   2.822  21.550  0.00  0.00    +0.000 A 
ATOM     23  C   UNL     1       2.663   2.600  21.482  0.00  0.00    +0.000 A 
ATOM     24  O   UNL     1       3.139   2.917  20.250  0.00  0.00    +0.000 OA
ENDBRANCH  18  20
ENDBRANCH  15  18
ENDBRANCH   1  15
TORSDOF 3
ENDMDL
MODEL 3
REMARK VINA RESULT:      -7.5      3.464      4.694
REMARK  Name = 
REMARK  3 active torsions:
REMARK  status: ('A' for Active; 'I' for Inactive)
REMARK    1  A    between atoms: S_2  and  N_4
REMARK    2  A    between atoms: S_2  and  C_19
REMARK    3  A    between atoms: N_4  and  C_5
REMARK                            x       y       z     vdW  Elec       q    Type
REMARK                         _______ _______ _______ _____ _____    ______ ____
ROOT
ATOM      1  C   UNL     1       1.604   8.745  19.474  0.00  0.00    +0.000 A 
ATOM      2  C   UNL     1       2.030   8.793  18.168  0.00  0.00    +0.000 A 
ATOM      3  N   UNL     1       2.802   7.841  17.595  0.00  0.00    +0.000 NA
ATOM      4  C   UNL     1       3.161   6.773  18.338  0.00  0.00    +0.000 A 
ATOM      5  N   UNL     1       4.024   5.815  17.804  0.00  0.00    +0.000 N 
ATOM      6  C   UNL     1       4.790   5.040  18.811  0.00  0.00    +0.000 C 
ATOM      7  C   UNL     1       6.313   5.286  18.702  0.00  0.00    +0.000 C 
ATOM      8  C   UNL     1       6.962   4.485  17.564  0.00  0.00    +0.000 C 
ATOM      9  C   UNL     1       7.203   5.530  16.486  0.00  0.00    +0.000 C 
ATOM     10  C   UNL     1       6.244   6.635  16.902  0.00  0.00    +0.000 C 
ATOM     11  C   UNL     1       4.768   6.243  16.600  0.00  0.00    +0.000 C 
ATOM     12  O   UNL     1       6.502   6.669  18.325  0.00  0.00    +0.000 OA
ATOM     13  N   UNL     1       2.687   6.600  19.583  0.00  0.00    +0.000 NA
ATOM     14  C   UNL     1       1.929   7.578  20.126  0.00  0.00    +0.000 A 
ENDROOT
BRANCH   1  15
ATOM     15  N   UNL     1       0.858   9.807  20.084  0.00  0.00    +0.000 N 
ATOM     16  H   UNL     1       1.328  10.710  20.009  0.00  0.00    +0.000 HD
BRANCH  15  18
ATOM     17  O   UNL     1      -0.550   8.510  21.798  0.00  0.00    +0.000 OA
ATOM     18  S   UNL     1       0.449   9.549  21.715  0.00  0.00    +0.000 S 
ATOM     19  O   UNL     1       1.685   9.508  22.468  0.00  0.00    +0.000 OA
BRANCH  18  20
ATOM     20  C   UNL     1      -0.378  11.042  22.287  0.00  0.00    +0.000 A 
ATOM     21  C   UNL     1      -1.524  11.214  23.060  0.00  0.00    +0.000 A 
ATOM     22  C   UNL     1      -1.754  12.603  23.194  0.00  0.00    +0.000 A 
ATOM     23  C   UNL     1      -0.736  13.220  22.513  0.00  0.00    +0.000 A 
ATOM     24  O   UNL     1       0.106  12.300  21.975  0.00  0.00    +0.000 OA
ENDBRANCH  18  20
ENDBRANCH  15  18
ENDBRANCH   1  15
TORSDOF 3
ENDMDL
MODEL 4
REMARK VINA RESULT:      -7.3      3.272      7.773
REMARK  Name = 
REMARK  3 active torsions:
REMARK  status: ('A' for Active; 'I' for Inactive)
REMARK    1  A    between atoms: S_2  and  N_4
REMARK    2  A    between atoms: S_2  and  C_19
REMARK    3  A    between atoms: N_4  and  C_5
REMARK                            x       y       z     vdW  Elec       q    Type
REMARK                         _______ _______ _______ _____ _____    ______ ____
ROOT
ATOM      1  C   UNL     1       2.539   6.133  18.947  0.00  0.00    +0.000 A 
ATOM      2  C   UNL     1       2.667   7.176  18.061  0.00  0.00    +0.000 A 
ATOM      3  N   UNL     1       2.279   8.443  18.333  0.00  0.00    +0.000 NA
ATOM      4  C   UNL     1       1.753   8.706  19.547  0.00  0.00    +0.000 A 
ATOM      5  N   UNL     1       1.266   9.984  19.830  0.00  0.00    +0.000 N 
ATOM      6  C   UNL     1       0.236  10.033  20.897  0.00  0.00    +0.000 C 
ATOM      7  C   UNL     1      -1.132  10.520  20.366  0.00  0.00    +0.000 C 
ATOM      8  C   UNL     1      -1.197  12.046  20.208  0.00  0.00    +0.000 C 
ATOM      9  C   UNL     1      -1.082  12.251  18.706  0.00  0.00    +0.000 C 
ATOM     10  C   UNL     1      -0.475  10.933  18.255  0.00  0.00    +0.000 C 
ATOM     11  C   UNL     1       1.029  10.840  18.649  0.00  0.00    +0.000 C 
ATOM     12  O   UNL     1      -1.281  10.008  19.022  0.00  0.00    +0.000 OA
ATOM     13  N   UNL     1       1.704   7.764  20.504  0.00  0.00    +0.000 NA
ATOM     14  C   UNL     1       2.090   6.508  20.192  0.00  0.00    +0.000 A 
ENDROOT
BRANCH   1  15
ATOM     15  N   UNL     1       2.879   4.782  18.607  0.00  0.00    +0.000 N 
ATOM     16  H   UNL     1       2.271   4.098  19.061  0.00  0.00    +0.000 HD
BRANCH  15  18
ATOM     17  O   UNL     1       5.125   5.391  19.693  0.00  0.00    +0.000 OA
ATOM     18  S   UNL     1       4.495   4.351  18.915  0.00  0.00    +0.000 S 
ATOM     19  O   UNL     1       4.501   2.960  19.317  0.00  0.00    +0.000 OA
BRANCH  18  20
ATOM     20  C   UNL     1       5.350   4.367  17.331  0.00  0.00    +0.000 A 
ATOM     21  C   UNL     1       4.878   4.181  16.034  0.00  0.00    +0.000 A 
ATOM     22  C   UNL     1       5.981   4.266  15.152  0.00  0.00    +0.000 A 
ATOM     23  C   UNL     1       7.074   4.513  15.942  0.00  0.00    +0.000 A 
ATOM     24  O   UNL     1       6.713   4.591  17.249  0.00  0.00    +0.000 OA
ENDBRANCH  18  20
ENDBRANCH  15  18
ENDBRANCH   1  15
TORSDOF 3
ENDMDL
MODEL 5
REMARK VINA RESULT:      -7.2      2.973      7.629
REMARK  Name = 
REMARK  3 active torsions:
REMARK  status: ('A' for Active; 'I' for Inactive)
REMARK    1  A    between atoms: S_2  and  N_4
REMARK    2  A    between atoms: S_2  and  C_19
REMARK    3  A    between atoms: N_4  and  C_5
REMARK                            x       y       z     vdW  Elec       q    Type
REMARK                         _______ _______ _______ _____ _____    ______ ____
ROOT
ATOM      1  C   UNL     1       2.616   7.327  19.024  0.00  0.00    +0.000 A 
ATOM      2  C   UNL     1       1.798   7.471  20.120  0.00  0.00    +0.000 A 
ATOM      3  N   UNL     1       0.965   8.522  20.301  0.00  0.00    +0.000 NA
ATOM      4  C   UNL     1       0.918   9.475  19.346  0.00  0.00    +0.000 A 
ATOM      5  N   UNL     1       0.132  10.613  19.540  0.00  0.00    +0.000 N 
ATOM      6  C   UNL     1       0.565  11.804  18.769  0.00  0.00    +0.000 C 
ATOM      7  C   UNL     1       1.020  12.961  19.688  0.00  0.00    +0.000 C 
ATOM      8  C   UNL     1      -0.159  13.748  20.278  0.00  0.00    +0.000 C 
ATOM      9  C   UNL     1      -0.221  13.268  21.719  0.00  0.00    +0.000 C 
ATOM     10  C   UNL     1       0.547  11.958  21.646  0.00  0.00    +0.000 C 
ATOM     11  C   UNL     1      -0.289  10.852  20.937  0.00  0.00    +0.000 C 
ATOM     12  O   UNL     1       1.672  12.370  20.836  0.00  0.00    +0.000 OA
ATOM     13  N   UNL     1       1.600   9.343  18.196  0.00  0.00    +0.000 NA
ATOM     14  C   UNL     1       2.429   8.286  18.056  0.00  0.00    +0.000 A 
ENDROOT
BRANCH   1  15
ATOM     15  N   UNL     1       3.552   6.248  18.894  0.00  0.00    +0.000 N 
ATOM     16  H   UNL     1       4.350   6.490  18.304  0.00  0.00    +0.000 HD
BRANCH  15  18
ATOM     17  O   UNL     1       1.658   5.068  17.620  0.00  0.00    +0.000 OA
ATOM     18  S   UNL     1       2.888   4.790  18.324  0.00  0.00    +0.000 S 
ATOM     19  O   UNL     1       3.968   4.024  17.738  0.00  0.00    +0.000 OA
BRANCH  18  20
ATOM     20  C   UNL     1       2.395   3.840  19.771  0.00  0.00    +0.000 A 
ATOM     21  C   UNL     1       1.156   3.692  20.390  0.00  0.00    +0.000 A 
ATOM     22  C   UNL     1       1.329   2.851  21.515  0.00  0.00    +0.000 A 
ATOM     23  C   UNL     1       2.657   2.511  21.528  0.00  0.00    +0.000 A 
ATOM     24  O   UNL     1       3.309   3.082  20.482  0.00  0.00    +0.000 OA
ENDBRANCH  18  20
ENDBRANCH  15  18
ENDBRANCH   1  15
TORSDOF 3
ENDMDL
MODEL 6
REMARK VINA RESULT:      -7.2      2.234      2.993
REMARK  Name = 
REMARK  3 active torsions:
REMARK  status: ('A' for Active; 'I' for Inactive)
REMARK    1  A    between atoms: S_2  and  N_4
REMARK    2  A    between atoms: S_2  and  C_19
REMARK    3  A    between atoms: N_4  and  C_5
REMARK                            x       y       z     vdW  Elec       q    Type
REMARK                         _______ _______ _______ _____ _____    ______ ____
ROOT
ATOM      1  C   UNL     1       0.937   9.882  18.652  0.00  0.00    +0.000 A 
ATOM      2  C   UNL     1       0.829   9.124  19.794  0.00  0.00    +0.000 A 
ATOM      3  N   UNL     1       1.530   7.986  20.008  0.00  0.00    +0.000 NA
ATOM      4  C   UNL     1       2.398   7.579  19.059  0.00  0.00    +0.000 A 
ATOM      5  N   UNL     1       3.075   6.368  19.211  0.00  0.00    +0.000 N 
ATOM      6  C   UNL     1       3.527   5.746  17.942  0.00  0.00    +0.000 C 
ATOM      7  C   UNL     1       2.836   4.388  17.679  0.00  0.00    +0.000 C 
ATOM      8  C   UNL     1       3.460   3.240  18.485  0.00  0.00    +0.000 C 
ATOM      9  C   UNL     1       2.449   2.994  19.593  0.00  0.00    +0.000 C 
ATOM     10  C   UNL     1       1.668   4.299  19.599  0.00  0.00    +0.000 C 
ATOM     11  C   UNL     1       2.504   5.454  20.223  0.00  0.00    +0.000 C 
ATOM     12  O   UNL     1       1.482   4.488  18.177  0.00  0.00    +0.000 OA
ATOM     13  N   UNL     1       2.642   8.329  17.970  0.00  0.00    +0.000 NA
ATOM     14  C   UNL     1       1.915   9.452  17.785  0.00  0.00    +0.000 A 
ENDROOT
BRANCH   1  15
ATOM     15  N   UNL     1       0.122  11.037  18.410  0.00  0.00    +0.000 N 
ATOM     16  H   UNL     1       0.155  11.343  17.436  0.00  0.00    +0.000 HD
BRANCH  15  18
ATOM     17  O   UNL     1       1.814  12.266  19.901  0.00  0.00    +0.000 OA
ATOM     18  S   UNL     1       0.463  12.373  19.404  0.00  0.00    +0.000 S 
ATOM     19  O   UNL     1      -0.028  13.553  18.724  0.00  0.00    +0.000 OA
BRANCH  18  20
ATOM     20  C   UNL     1      -0.586  12.223  20.860  0.00  0.00    +0.000 A 
ATOM     21  C   UNL     1      -1.915  12.581  21.071  0.00  0.00    +0.000 A 
ATOM     22  C   UNL     1      -2.243  12.268  22.411  0.00  0.00    +0.000 A 
ATOM     23  C   UNL     1      -1.109  11.721  22.956  0.00  0.00    +0.000 A 
ATOM     24  O   UNL     1      -0.110  11.672  22.037  0.00  0.00    +0.000 OA
ENDBRANCH  18  20
ENDBRANCH  15  18
ENDBRANCH   1  15
TORSDOF 3
ENDMDL
MODEL 7
REMARK VINA RESULT:      -7.2      3.044      7.703
REMARK  Name = 
REMARK  3 active torsions:
REMARK  status: ('A' for Active; 'I' for Inactive)
REMARK    1  A    between atoms: S_2  and  N_4
REMARK    2  A    between atoms: S_2  and  C_19
REMARK    3  A    between atoms: N_4  and  C_5
REMARK                            x       y       z     vdW  Elec       q    Type
REMARK                         _______ _______ _______ _____ _____    ______ ____
ROOT
ATOM      1  C   UNL     1       2.063   4.846  19.124  0.00  0.00    +0.000 A 
ATOM      2  C   UNL     1       2.288   5.783  18.144  0.00  0.00    +0.000 A 
ATOM      3  N   UNL     1       2.227   7.118  18.355  0.00  0.00    +0.000 NA
ATOM      4  C   UNL     1       1.948   7.559  19.600  0.00  0.00    +0.000 A 
ATOM      5  N   UNL     1       1.796   8.927  19.834  0.00  0.00    +0.000 N 
ATOM      6  C   UNL     1       0.964   9.265  21.014  0.00  0.00    +0.000 C 
ATOM      7  C   UNL     1      -0.327  10.020  20.621  0.00  0.00    +0.000 C 
ATOM      8  C   UNL     1      -0.081  11.510  20.344  0.00  0.00    +0.000 C 
ATOM      9  C   UNL     1      -0.139  11.604  18.828  0.00  0.00    +0.000 C 
ATOM     10  C   UNL     1       0.097  10.159  18.416  0.00  0.00    +0.000 C 
ATOM     11  C   UNL     1       1.585   9.749  18.624  0.00  0.00    +0.000 C 
ATOM     12  O   UNL     1      -0.773   9.484  19.354  0.00  0.00    +0.000 OA
ATOM     13  N   UNL     1       1.833   6.705  20.631  0.00  0.00    +0.000 NA
ATOM     14  C   UNL     1       1.888   5.379  20.380  0.00  0.00    +0.000 A 
ENDROOT
BRANCH   1  15
ATOM     15  N   UNL     1       2.050   3.436  18.858  0.00  0.00    +0.000 N 
ATOM     16  H   UNL     1       1.325   2.945  19.384  0.00  0.00    +0.000 HD
BRANCH  15  18
ATOM     17  O   UNL     1       3.774   2.547  20.541  0.00  0.00    +0.000 OA
ATOM     18  S   UNL     1       3.532   2.645  19.121  0.00  0.00    +0.000 S 
ATOM     19  O   UNL     1       3.569   1.496  18.241  0.00  0.00    +0.000 OA
BRANCH  18  20
ATOM     20  C   UNL     1       4.823   3.733  18.498  0.00  0.00    +0.000 A 
ATOM     21  C   UNL     1       5.200   4.053  17.197  0.00  0.00    +0.000 A 
ATOM     22  C   UNL     1       6.300   4.941  17.268  0.00  0.00    +0.000 A 
ATOM     23  C   UNL     1       6.538   5.136  18.604  0.00  0.00    +0.000 A 
ATOM     24  O   UNL     1       5.654   4.432  19.357  0.00  0.00    +0.000 OA
ENDBRANCH  18  20
ENDBRANCH  15  18
ENDBRANCH   1  15
TORSDOF 3
ENDMDL
MODEL 8
REMARK VINA RESULT:      -7.2      5.706      7.638
REMARK  Name = 
REMARK  3 active torsions:
REMARK  status: ('A' for Active; 'I' for Inactive)
REMARK    1  A    between atoms: S_2  and  N_4
REMARK    2  A    between atoms: S_2  and  C_19
REMARK    3  A    between atoms: N_4  and  C_5
REMARK                            x       y       z     vdW  Elec       q    Type
REMARK                         _______ _______ _______ _____ _____    ______ ____
ROOT
ATOM      1  C   UNL     1       5.568   5.764  16.185  0.00  0.00    +0.000 A 
ATOM      2  C   UNL     1       4.543   6.452  16.791  0.00  0.00    +0.000 A 
ATOM      3  N   UNL     1       3.981   6.081  17.964  0.00  0.00    +0.000 NA
ATOM      4  C   UNL     1       4.461   4.985  18.587  0.00  0.00    +0.000 A 
ATOM      5  N   UNL     1       3.849   4.527  19.756  0.00  0.00    +0.000 N 
ATOM      6  C   UNL     1       4.046   3.082  20.034  0.00  0.00    +0.000 C 
ATOM      7  C   UNL     1       2.716   2.296  20.002  0.00  0.00    +0.000 C 
ATOM      8  C   UNL     1       1.903   2.453  21.295  0.00  0.00    +0.000 C 
ATOM      9  C   UNL     1       0.790   3.410  20.901  0.00  0.00    +0.000 C 
ATOM     10  C   UNL     1       1.363   4.059  19.651  0.00  0.00    +0.000 C 
ATOM     11  C   UNL     1       2.496   5.065  20.007  0.00  0.00    +0.000 C 
ATOM     12  O   UNL     1       1.886   2.890  18.977  0.00  0.00    +0.000 OA
ATOM     13  N   UNL     1       5.536   4.330  18.116  0.00  0.00    +0.000 NA
ATOM     14  C   UNL     1       6.063   4.724  16.936  0.00  0.00    +0.000 A 
ENDROOT
BRANCH   1  15
ATOM     15  N   UNL     1       6.091   6.129  14.901  0.00  0.00    +0.000 N 
ATOM     16  H   UNL     1       5.357   6.278  14.206  0.00  0.00    +0.000 HD
BRANCH  15  18
ATOM     17  O   UNL     1       8.179   5.765  13.450  0.00  0.00    +0.000 OA
ATOM     18  S   UNL     1       7.226   5.039  14.255  0.00  0.00    +0.000 S 
ATOM     19  O   UNL     1       7.624   4.148  15.324  0.00  0.00    +0.000 OA
BRANCH  18  20
ATOM     20  C   UNL     1       6.338   3.986  13.096  0.00  0.00    +0.000 A 
ATOM     21  C   UNL     1       6.800   3.076  12.149  0.00  0.00    +0.000 A 
ATOM     22  C   UNL     1       5.676   2.535  11.481  0.00  0.00    +0.000 A 
ATOM     23  C   UNL     1       4.579   3.125  12.055  0.00  0.00    +0.000 A 
ATOM     24  O   UNL     1       4.955   3.986  13.035  0.00  0.00    +0.000 OA
ENDBRANCH  18  20
ENDBRANCH  15  18
ENDBRANCH   1  15
TORSDOF 3
ENDMDL
MODEL 9
REMARK VINA RESULT:      -7.2      5.970      7.855
REMARK  Name = 
REMARK  3 active torsions:
REMARK  status: ('A' for Active; 'I' for Inactive)
REMARK    1  A    between atoms: S_2  and  N_4
REMARK    2  A    between atoms: S_2  and  C_19
REMARK    3  A    between atoms: N_4  and  C_5
REMARK                            x       y       z     vdW  Elec       q    Type
REMARK                         _______ _______ _______ _____ _____    ______ ____
ROOT
ATOM      1  C   UNL     1       6.324   4.496  16.606  0.00  0.00    +0.000 A 
ATOM      2  C   UNL     1       5.020   4.806  16.301  0.00  0.00    +0.000 A 
ATOM      3  N   UNL     1       4.027   4.857  17.219  0.00  0.00    +0.000 NA
ATOM      4  C   UNL     1       4.333   4.609  18.509  0.00  0.00    +0.000 A 
ATOM      5  N   UNL     1       3.319   4.573  19.468  0.00  0.00    +0.000 N 
ATOM      6  C   UNL     1       3.633   3.765  20.673  0.00  0.00    +0.000 C 
ATOM      7  C   UNL     1       2.695   2.545  20.819  0.00  0.00    +0.000 C 
ATOM      8  C   UNL     1       1.325   2.918  21.404  0.00  0.00    +0.000 C 
ATOM      9  C   UNL     1       0.401   2.877  20.197  0.00  0.00    +0.000 C 
ATOM     10  C   UNL     1       1.386   2.992  19.045  0.00  0.00    +0.000 C 
ATOM     11  C   UNL     1       1.950   4.439  18.927  0.00  0.00    +0.000 C 
ATOM     12  O   UNL     1       2.402   2.063  19.487  0.00  0.00    +0.000 OA
ATOM     13  N   UNL     1       5.605   4.416  18.899  0.00  0.00    +0.000 NA
ATOM     14  C   UNL     1       6.567   4.360  17.953  0.00  0.00    +0.000 A 
ENDROOT
BRANCH   1  15
ATOM     15  N   UNL     1       7.343   4.366  15.604  0.00  0.00    +0.000 N 
ATOM     16  H   UNL     1       8.265   4.642  15.945  0.00  0.00    +0.000 HD
BRANCH  15  18
ATOM     17  O   UNL     1       5.960   6.142  14.368  0.00  0.00    +0.000 OA
ATOM     18  S   UNL     1       7.034   5.200  14.156  0.00  0.00    +0.000 S 
ATOM     19  O   UNL     1       8.313   5.586  13.599  0.00  0.00    +0.000 OA
BRANCH  18  20
ATOM     20  C   UNL     1       6.377   3.997  12.989  0.00  0.00    +0.000 A 
ATOM     21  C   UNL     1       7.022   3.120  12.120  0.00  0.00    +0.000 A 
ATOM     22  C   UNL     1       6.030   2.411  11.403  0.00  0.00    +0.000 A 
ATOM     23  C   UNL     1       4.826   2.872  11.871  0.00  0.00    +0.000 A 
ATOM     24  O   UNL     1       5.015   3.812  12.833  0.00  0.00    +0.000 OA
ENDBRANCH  18  20
ENDBRANCH  15  18
ENDBRANCH   1  15
TORSDOF 3
ENDMDL
