MODEL 1
REMARK VINA RESULT:      -9.4      0.000      0.000
REMARK  Name = 
REMARK  9 active torsions:
REMARK  status: ('A' for Active; 'I' for Inactive)
REMARK    1  A    between atoms: C_1  and  C_2
REMARK    2  A    between atoms: C_2  and  C_3
REMARK    3  A    between atoms: C_2  and  O_4
REMARK    4  A    between atoms: C_2  and  C_5
REMARK    5  A    between atoms: C_8  and  C_9
REMARK    6  A    between atoms: C_9  and  N_10
REMARK    7  A    between atoms: C_11  and  C_13
REMARK    8  A    between atoms: C_18  and  O_19
REMARK    9  A    between atoms: O_19  and  C_20
REMARK                            x       y       z     vdW  Elec       q    Type
REMARK                         _______ _______ _______ _____ _____    ______ ____
ROOT
ATOM      1  N   UNL     1       1.750   6.727  20.670  0.00  0.00    +0.000 N 
ATOM      2  C   UNL     1       2.560   6.066  19.779  0.00  0.00    +0.000 C 
ATOM      3  O   UNL     1       3.441   6.645  19.149  0.00  0.00    +0.000 OA
ATOM      4  H   UNL     1       1.086   6.217  21.237  0.00  0.00    +0.000 HD
ENDROOT
BRANCH   2   5
ATOM      5  C   UNL     1       2.376   4.600  19.596  0.00  0.00    +0.000 A 
ATOM      6  C   UNL     1       1.056   4.127  19.560  0.00  0.00    +0.000 A 
ATOM      7  C   UNL     1       0.796   2.775  19.360  0.00  0.00    +0.000 A 
ATOM      8  C   UNL     1       1.871   1.929  19.179  0.00  0.00    +0.000 A 
ATOM      9  N   UNL     1       3.156   2.337  19.212  0.00  0.00    +0.000 NA
ATOM     10  C   UNL     1       3.394   3.655  19.454  0.00  0.00    +0.000 A 
BRANCH  10  11
ATOM     11  O   UNL     1       4.720   4.058  19.508  0.00  0.00    +0.000 OA
BRANCH  11  12
ATOM     12  C   UNL     1       5.366   4.400  18.326  0.00  0.00    +0.000 A 
ATOM     13  C   UNL     1       6.560   5.159  18.498  0.00  0.00    +0.000 A 
ATOM     14  C   UNL     1       7.394   5.550  17.428  0.00  0.00    +0.000 A 
ATOM     15  C   UNL     1       6.961   5.115  16.163  0.00  0.00    +0.000 A 
ATOM     16  N   UNL     1       7.522   5.304  14.962  0.00  0.00    +0.000 NA
ATOM     17  O   UNL     1       6.693   4.662  14.056  0.00  0.00    +0.000 OA
ATOM     18  N   UNL     1       5.606   4.070  14.678  0.00  0.00    +0.000 NA
ATOM     19  C   UNL     1       5.748   4.331  15.983  0.00  0.00    +0.000 A 
ATOM     20  C   UNL     1       4.930   3.946  17.062  0.00  0.00    +0.000 A 
ENDBRANCH  11  12
ENDBRANCH  10  11
ENDBRANCH   2   5
BRANCH   1  21
ATOM     21  C   UNL     1       1.943   8.127  20.962  0.00  0.00    +0.000 C 
BRANCH  21  25
ATOM     22  C   UNL     1      -0.774  10.441  18.509  0.00  0.00    +0.000 A 
ATOM     23  C   UNL     1       0.425   9.937  17.978  0.00  0.00    +0.000 A 
ATOM     24  C   UNL     1       1.320   9.218  18.775  0.00  0.00    +0.000 A 
ATOM     25  C   UNL     1       1.035   8.978  20.123  0.00  0.00    +0.000 A 
ATOM     26  C   UNL     1      -0.116   9.542  20.682  0.00  0.00    +0.000 A 
ATOM     27  C   UNL     1      -1.008  10.259  19.884  0.00  0.00    +0.000 A 
BRANCH  22  29
ATOM     28  C   UNL     1      -3.046  11.422  18.528  0.00  0.00    +0.000 C 
ATOM     29  C   UNL     1      -1.866  11.033  17.625  0.00  0.00    +0.000 C 
ATOM     30  C   UNL     1      -2.350  10.114  16.496  0.00  0.00    +0.000 C 
BRANCH  29  31
ATOM     31  O   UNL     1      -1.371  12.225  17.001  0.00  0.00    +0.000 OA
ATOM     32  H   UNL     1      -2.084  12.884  17.018  0.00  0.00    +0.000 HD
ENDBRANCH  29  31
ENDBRANCH  22  29
ENDBRANCH  21  25
ENDBRANCH   1  21
TORSDOF 7
ENDMDL
MODEL 2
REMARK VINA RESULT:      -9.3      2.381      5.095
REMARK  Name = 
REMARK  9 active torsions:
REMARK  status: ('A' for Active; 'I' for Inactive)
REMARK    1  A    between atoms: C_1  and  C_2
REMARK    2  A    between atoms: C_2  and  C_3
REMARK    3  A    between atoms: C_2  and  O_4
REMARK    4  A    between atoms: C_2  and  C_5
REMARK    5  A    between atoms: C_8  and  C_9
REMARK    6  A    between atoms: C_9  and  N_10
REMARK    7  A    between atoms: C_11  and  C_13
REMARK    8  A    between atoms: C_18  and  O_19
REMARK    9  A    between atoms: O_19  and  C_20
REMARK                            x       y       z     vdW  Elec       q    Type
REMARK                         _______ _______ _______ _____ _____    ______ ____
ROOT
ATOM      1  N   UNL     1       3.613   7.280  17.791  0.00  0.00    +0.000 N 
ATOM      2  C   UNL     1       4.639   6.855  16.982  0.00  0.00    +0.000 C 
ATOM      3  O   UNL     1       4.605   6.996  15.762  0.00  0.00    +0.000 OA
ATOM      4  H   UNL     1       3.697   7.227  18.798  0.00  0.00    +0.000 HD
ENDROOT
BRANCH   2   5
ATOM      5  C   UNL     1       5.835   6.231  17.611  0.00  0.00    +0.000 A 
ATOM      6  C   UNL     1       6.893   7.088  17.949  0.00  0.00    +0.000 A 
ATOM      7  C   UNL     1       8.035   6.590  18.569  0.00  0.00    +0.000 A 
ATOM      8  C   UNL     1       8.079   5.240  18.854  0.00  0.00    +0.000 A 
ATOM      9  N   UNL     1       7.091   4.378  18.543  0.00  0.00    +0.000 NA
ATOM     10  C   UNL     1       6.001   4.874  17.895  0.00  0.00    +0.000 A 
BRANCH  10  11
ATOM     11  O   UNL     1       5.001   3.973  17.559  0.00  0.00    +0.000 OA
BRANCH  11  12
ATOM     12  C   UNL     1       3.973   3.743  18.466  0.00  0.00    +0.000 A 
ATOM     13  C   UNL     1       2.663   3.948  17.944  0.00  0.00    +0.000 A 
ATOM     14  C   UNL     1       1.484   3.707  18.683  0.00  0.00    +0.000 A 
ATOM     15  C   UNL     1       1.703   3.230  19.987  0.00  0.00    +0.000 A 
ATOM     16  N   UNL     1       0.812   2.898  20.930  0.00  0.00    +0.000 NA
ATOM     17  O   UNL     1       1.559   2.483  22.022  0.00  0.00    +0.000 OA
ATOM     18  N   UNL     1       2.920   2.555  21.775  0.00  0.00    +0.000 NA
ATOM     19  C   UNL     1       3.039   3.010  20.522  0.00  0.00    +0.000 A 
ATOM     20  C   UNL     1       4.203   3.251  19.768  0.00  0.00    +0.000 A 
ENDBRANCH  11  12
ENDBRANCH  10  11
ENDBRANCH   2   5
BRANCH   1  21
ATOM     21  C   UNL     1       2.472   7.978  17.251  0.00  0.00    +0.000 C 
BRANCH  21  25
ATOM     22  C   UNL     1       0.339  10.028  20.413  0.00  0.00    +0.000 A 
ATOM     23  C   UNL     1       1.137   8.906  20.692  0.00  0.00    +0.000 A 
ATOM     24  C   UNL     1       1.800   8.222  19.670  0.00  0.00    +0.000 A 
ATOM     25  C   UNL     1       1.689   8.647  18.343  0.00  0.00    +0.000 A 
ATOM     26  C   UNL     1       0.835   9.713  18.043  0.00  0.00    +0.000 A 
ATOM     27  C   UNL     1       0.173  10.394  19.065  0.00  0.00    +0.000 A 
BRANCH  22  29
ATOM     28  C   UNL     1      -0.458  10.048  22.756  0.00  0.00    +0.000 C 
ATOM     29  C   UNL     1      -0.216  10.922  21.517  0.00  0.00    +0.000 C 
ATOM     30  C   UNL     1      -1.498  11.679  21.149  0.00  0.00    +0.000 C 
BRANCH  29  31
ATOM     31  O   UNL     1       0.763  11.913  21.855  0.00  0.00    +0.000 OA
ATOM     32  H   UNL     1       0.659  12.121  22.798  0.00  0.00    +0.000 HD
ENDBRANCH  29  31
ENDBRANCH  22  29
ENDBRANCH  21  25
ENDBRANCH   1  21
TORSDOF 7
ENDMDL
MODEL 3
REMARK VINA RESULT:      -9.1      0.692      1.266
REMARK  Name = 
REMARK  9 active torsions:
REMARK  status: ('A' for Active; 'I' for Inactive)
REMARK    1  A    between atoms: C_1  and  C_2
REMARK    2  A    between atoms: C_2  and  C_3
REMARK    3  A    between atoms: C_2  and  O_4
REMARK    4  A    between atoms: C_2  and  C_5
REMARK    5  A    between atoms: C_8  and  C_9
REMARK    6  A    between atoms: C_9  and  N_10
REMARK    7  A    between atoms: C_11  and  C_13
REMARK    8  A    between atoms: C_18  and  O_19
REMARK    9  A    between atoms: O_19  and  C_20
REMARK                            x       y       z     vdW  Elec       q    Type
REMARK                         _______ _______ _______ _____ _____    ______ ____
ROOT
ATOM      1  N   UNL     1       1.670   7.098  20.823  0.00  0.00    +0.000 N 
ATOM      2  C   UNL     1       2.368   6.359  19.899  0.00  0.00    +0.000 C 
ATOM      3  O   UNL     1       3.122   6.883  19.083  0.00  0.00    +0.000 OA
ATOM      4  H   UNL     1       1.118   6.641  21.536  0.00  0.00    +0.000 HD
ENDROOT
BRANCH   2   5
ATOM      5  C   UNL     1       2.222   4.877  19.910  0.00  0.00    +0.000 A 
ATOM      6  C   UNL     1       0.919   4.369  20.026  0.00  0.00    +0.000 A 
ATOM      7  C   UNL     1       0.692   2.997  20.013  0.00  0.00    +0.000 A 
ATOM      8  C   UNL     1       1.781   2.163  19.860  0.00  0.00    +0.000 A 
ATOM      9  N   UNL     1       3.051   2.605  19.751  0.00  0.00    +0.000 NA
ATOM     10  C   UNL     1       3.260   3.948  19.813  0.00  0.00    +0.000 A 
BRANCH  10  11
ATOM     11  O   UNL     1       4.572   4.388  19.723  0.00  0.00    +0.000 OA
BRANCH  11  12
ATOM     12  C   UNL     1       5.150   4.520  18.466  0.00  0.00    +0.000 A 
ATOM     13  C   UNL     1       4.471   3.824  17.423  0.00  0.00    +0.000 A 
ATOM     14  C   UNL     1       4.860   3.881  16.067  0.00  0.00    +0.000 A 
ATOM     15  C   UNL     1       5.975   4.700  15.816  0.00  0.00    +0.000 A 
ATOM     16  N   UNL     1       6.582   4.976  14.655  0.00  0.00    +0.000 NA
ATOM     17  O   UNL     1       7.619   5.840  14.970  0.00  0.00    +0.000 OA
ATOM     18  N   UNL     1       7.674   6.110  16.327  0.00  0.00    +0.000 NA
ATOM     19  C   UNL     1       6.665   5.422  16.876  0.00  0.00    +0.000 A 
ATOM     20  C   UNL     1       6.261   5.356  18.222  0.00  0.00    +0.000 A 
ENDBRANCH  11  12
ENDBRANCH  10  11
ENDBRANCH   2   5
BRANCH   1  21
ATOM     21  C   UNL     1       1.844   8.527  20.925  0.00  0.00    +0.000 C 
BRANCH  21  25
ATOM     22  C   UNL     1      -1.139  10.461  18.452  0.00  0.00    +0.000 A 
ATOM     23  C   UNL     1       0.062   9.993  17.897  0.00  0.00    +0.000 A 
ATOM     24  C   UNL     1       1.042   9.398  18.697  0.00  0.00    +0.000 A 
ATOM     25  C   UNL     1       0.840   9.249  20.073  0.00  0.00    +0.000 A 
ATOM     26  C   UNL     1      -0.317   9.782  20.649  0.00  0.00    +0.000 A 
ATOM     27  C   UNL     1      -1.293  10.376  19.848  0.00  0.00    +0.000 A 
BRANCH  22  29
ATOM     28  C   UNL     1      -3.324  11.625  18.493  0.00  0.00    +0.000 C 
ATOM     29  C   UNL     1      -2.311  10.910  17.586  0.00  0.00    +0.000 C 
ATOM     30  C   UNL     1      -3.006   9.786  16.808  0.00  0.00    +0.000 C 
BRANCH  29  31
ATOM     31  O   UNL     1      -1.842  11.853  16.613  0.00  0.00    +0.000 OA
ATOM     32  H   UNL     1      -1.721  11.377  15.775  0.00  0.00    +0.000 HD
ENDBRANCH  29  31
ENDBRANCH  22  29
ENDBRANCH  21  25
ENDBRANCH   1  21
TORSDOF 7
ENDMDL
MODEL 4
REMARK VINA RESULT:      -9.1      2.375      2.934
REMARK  Name = 
REMARK  9 active torsions:
REMARK  status: ('A' for Active; 'I' for Inactive)
REMARK    1  A    between atoms: C_1  and  C_2
REMARK    2  A    between atoms: C_2  and  C_3
REMARK    3  A    between atoms: C_2  and  O_4
REMARK    4  A    between atoms: C_2  and  C_5
REMARK    5  A    between atoms: C_8  and  C_9
REMARK    6  A    between atoms: C_9  and  N_10
REMARK    7  A    between atoms: C_11  and  C_13
REMARK    8  A    between atoms: C_18  and  O_19
REMARK    9  A    between atoms: O_19  and  C_20
REMARK                            x       y       z     vdW  Elec       q    Type
REMARK                         _______ _______ _______ _____ _____    ______ ____
ROOT
ATOM      1  N   UNL     1       2.643   6.494  18.999  0.00  0.00    +0.000 N 
ATOM      2  C   UNL     1       2.246   5.220  18.675  0.00  0.00    +0.000 C 
ATOM      3  O   UNL     1       1.481   4.996  17.740  0.00  0.00    +0.000 OA
ATOM      4  H   UNL     1       3.335   6.649  19.720  0.00  0.00    +0.000 HD
ENDROOT
BRANCH   2   5
ATOM      5  C   UNL     1       2.782   4.079  19.467  0.00  0.00    +0.000 A 
ATOM      6  C   UNL     1       2.213   3.863  20.732  0.00  0.00    +0.000 A 
ATOM      7  C   UNL     1       2.634   2.800  21.523  0.00  0.00    +0.000 A 
ATOM      8  C   UNL     1       3.607   1.961  21.016  0.00  0.00    +0.000 A 
ATOM      9  N   UNL     1       4.185   2.132  19.810  0.00  0.00    +0.000 NA
ATOM     10  C   UNL     1       3.795   3.204  19.069  0.00  0.00    +0.000 A 
BRANCH  10  11
ATOM     11  O   UNL     1       4.414   3.383  17.841  0.00  0.00    +0.000 OA
BRANCH  11  12
ATOM     12  C   UNL     1       5.263   4.471  17.670  0.00  0.00    +0.000 A 
ATOM     13  C   UNL     1       4.964   5.288  16.541  0.00  0.00    +0.000 A 
ATOM     14  C   UNL     1       5.666   6.473  16.230  0.00  0.00    +0.000 A 
ATOM     15  C   UNL     1       6.688   6.798  17.139  0.00  0.00    +0.000 A 
ATOM     16  N   UNL     1       7.522   7.846  17.138  0.00  0.00    +0.000 NA
ATOM     17  O   UNL     1       8.324   7.688  18.258  0.00  0.00    +0.000 OA
ATOM     18  N   UNL     1       8.003   6.541  18.966  0.00  0.00    +0.000 NA
ATOM     19  C   UNL     1       6.991   5.973  18.299  0.00  0.00    +0.000 A 
ATOM     20  C   UNL     1       6.278   4.796  18.596  0.00  0.00    +0.000 A 
ENDBRANCH  11  12
ENDBRANCH  10  11
ENDBRANCH   2   5
BRANCH   1  21
ATOM     21  C   UNL     1       2.235   7.630  18.209  0.00  0.00    +0.000 C 
BRANCH  21  25
ATOM     22  C   UNL     1       0.397  10.661  20.698  0.00  0.00    +0.000 A 
ATOM     23  C   UNL     1       0.696  10.919  19.350  0.00  0.00    +0.000 A 
ATOM     24  C   UNL     1       1.320   9.956  18.553  0.00  0.00    +0.000 A 
ATOM     25  C   UNL     1       1.652   8.705  19.081  0.00  0.00    +0.000 A 
ATOM     26  C   UNL     1       1.432   8.464  20.441  0.00  0.00    +0.000 A 
ATOM     27  C   UNL     1       0.810   9.428  21.235  0.00  0.00    +0.000 A 
BRANCH  22  29
ATOM     28  C   UNL     1      -0.894  10.847  22.802  0.00  0.00    +0.000 C 
ATOM     29  C   UNL     1      -0.472  11.598  21.530  0.00  0.00    +0.000 C 
ATOM     30  C   UNL     1      -1.710  12.140  20.805  0.00  0.00    +0.000 C 
BRANCH  29  31
ATOM     31  O   UNL     1       0.306  12.736  21.922  0.00  0.00    +0.000 OA
ATOM     32  H   UNL     1       0.485  13.261  21.124  0.00  0.00    +0.000 HD
ENDBRANCH  29  31
ENDBRANCH  22  29
ENDBRANCH  21  25
ENDBRANCH   1  21
TORSDOF 7
ENDMDL
MODEL 5
REMARK VINA RESULT:      -9.0      2.130      2.788
REMARK  Name = 
REMARK  9 active torsions:
REMARK  status: ('A' for Active; 'I' for Inactive)
REMARK    1  A    between atoms: C_1  and  C_2
REMARK    2  A    between atoms: C_2  and  C_3
REMARK    3  A    between atoms: C_2  and  O_4
REMARK    4  A    between atoms: C_2  and  C_5
REMARK    5  A    between atoms: C_8  and  C_9
REMARK    6  A    between atoms: C_9  and  N_10
REMARK    7  A    between atoms: C_11  and  C_13
REMARK    8  A    between atoms: C_18  and  O_19
REMARK    9  A    between atoms: O_19  and  C_20
REMARK                            x       y       z     vdW  Elec       q    Type
REMARK                         _______ _______ _______ _____ _____    ______ ____
ROOT
ATOM      1  N   UNL     1       2.691   6.729  19.016  0.00  0.00    +0.000 N 
ATOM      2  C   UNL     1       2.234   5.475  18.696  0.00  0.00    +0.000 C 
ATOM      3  O   UNL     1       1.534   5.271  17.707  0.00  0.00    +0.000 OA
ATOM      4  H   UNL     1       3.332   6.862  19.787  0.00  0.00    +0.000 HD
ENDROOT
BRANCH   2   5
ATOM      5  C   UNL     1       2.624   4.328  19.561  0.00  0.00    +0.000 A 
ATOM      6  C   UNL     1       2.000   4.239  20.815  0.00  0.00    +0.000 A 
ATOM      7  C   UNL     1       2.284   3.180  21.671  0.00  0.00    +0.000 A 
ATOM      8  C   UNL     1       3.177   2.220  21.239  0.00  0.00    +0.000 A 
ATOM      9  N   UNL     1       3.805   2.267  20.047  0.00  0.00    +0.000 NA
ATOM     10  C   UNL     1       3.551   3.333  19.241  0.00  0.00    +0.000 A 
BRANCH  10  11
ATOM     11  O   UNL     1       4.221   3.383  18.027  0.00  0.00    +0.000 OA
BRANCH  11  12
ATOM     12  C   UNL     1       5.127   4.413  17.803  0.00  0.00    +0.000 A 
ATOM     13  C   UNL     1       4.906   5.148  16.601  0.00  0.00    +0.000 A 
ATOM     14  C   UNL     1       5.674   6.270  16.223  0.00  0.00    +0.000 A 
ATOM     15  C   UNL     1       6.679   6.623  17.141  0.00  0.00    +0.000 A 
ATOM     16  N   UNL     1       7.562   7.628  17.089  0.00  0.00    +0.000 NA
ATOM     17  O   UNL     1       8.316   7.526  18.247  0.00  0.00    +0.000 OA
ATOM     18  N   UNL     1       7.916   6.457  19.032  0.00  0.00    +0.000 NA
ATOM     19  C   UNL     1       6.902   5.882  18.374  0.00  0.00    +0.000 A 
ATOM     20  C   UNL     1       6.123   4.767  18.737  0.00  0.00    +0.000 A 
ENDBRANCH  11  12
ENDBRANCH  10  11
ENDBRANCH   2   5
BRANCH   1  21
ATOM     21  C   UNL     1       2.427   7.864  18.164  0.00  0.00    +0.000 C 
BRANCH  21  25
ATOM     22  C   UNL     1      -0.090  10.783  20.138  0.00  0.00    +0.000 A 
ATOM     23  C   UNL     1       0.452   9.700  20.850  0.00  0.00    +0.000 A 
ATOM     24  C   UNL     1       1.238   8.737  20.209  0.00  0.00    +0.000 A 
ATOM     25  C   UNL     1       1.508   8.838  18.841  0.00  0.00    +0.000 A 
ATOM     26  C   UNL     1       0.909   9.866  18.107  0.00  0.00    +0.000 A 
ATOM     27  C   UNL     1       0.125  10.826  18.748  0.00  0.00    +0.000 A 
BRANCH  22  29
ATOM     28  C   UNL     1      -0.842  11.633  22.337  0.00  0.00    +0.000 C 
ATOM     29  C   UNL     1      -0.761  11.959  20.839  0.00  0.00    +0.000 C 
ATOM     30  C   UNL     1      -2.152  12.319  20.304  0.00  0.00    +0.000 C 
BRANCH  29  31
ATOM     31  O   UNL     1       0.054  13.128  20.681  0.00  0.00    +0.000 OA
ATOM     32  H   UNL     1      -0.214  13.769  21.359  0.00  0.00    +0.000 HD
ENDBRANCH  29  31
ENDBRANCH  22  29
ENDBRANCH  21  25
ENDBRANCH   1  21
TORSDOF 7
ENDMDL
MODEL 6
REMARK VINA RESULT:      -9.0      0.549      1.172
REMARK  Name = 
REMARK  9 active torsions:
REMARK  status: ('A' for Active; 'I' for Inactive)
REMARK    1  A    between atoms: C_1  and  C_2
REMARK    2  A    between atoms: C_2  and  C_3
REMARK    3  A    between atoms: C_2  and  O_4
REMARK    4  A    between atoms: C_2  and  C_5
REMARK    5  A    between atoms: C_8  and  C_9
REMARK    6  A    between atoms: C_9  and  N_10
REMARK    7  A    between atoms: C_11  and  C_13
REMARK    8  A    between atoms: C_18  and  O_19
REMARK    9  A    between atoms: O_19  and  C_20
REMARK                            x       y       z     vdW  Elec       q    Type
REMARK                         _______ _______ _______ _____ _____    ______ ____
ROOT
ATOM      1  N   UNL     1       1.790   6.703  20.733  0.00  0.00    +0.000 N 
ATOM      2  C   UNL     1       2.526   6.056  19.771  0.00  0.00    +0.000 C 
ATOM      3  O   UNL     1       3.345   6.647  19.072  0.00  0.00    +0.000 OA
ATOM      4  H   UNL     1       1.181   6.183  21.351  0.00  0.00    +0.000 HD
ENDROOT
BRANCH   2   5
ATOM      5  C   UNL     1       2.341   4.589  19.593  0.00  0.00    +0.000 A 
ATOM      6  C   UNL     1       1.019   4.120  19.532  0.00  0.00    +0.000 A 
ATOM      7  C   UNL     1       0.759   2.768  19.335  0.00  0.00    +0.000 A 
ATOM      8  C   UNL     1       1.835   1.917  19.183  0.00  0.00    +0.000 A 
ATOM      9  N   UNL     1       3.120   2.321  19.240  0.00  0.00    +0.000 NA
ATOM     10  C   UNL     1       3.358   3.639  19.479  0.00  0.00    +0.000 A 
BRANCH  10  11
ATOM     11  O   UNL     1       4.684   4.038  19.559  0.00  0.00    +0.000 OA
BRANCH  11  12
ATOM     12  C   UNL     1       5.348   4.395  18.392  0.00  0.00    +0.000 A 
ATOM     13  C   UNL     1       6.516   5.188  18.591  0.00  0.00    +0.000 A 
ATOM     14  C   UNL     1       7.365   5.601  17.541  0.00  0.00    +0.000 A 
ATOM     15  C   UNL     1       6.975   5.151  16.267  0.00  0.00    +0.000 A 
ATOM     16  N   UNL     1       7.559   5.353  15.079  0.00  0.00    +0.000 NA
ATOM     17  O   UNL     1       6.770   4.687  14.154  0.00  0.00    +0.000 OA
ATOM     18  N   UNL     1       5.686   4.066  14.752  0.00  0.00    +0.000 NA
ATOM     19  C   UNL     1       5.789   4.332  16.059  0.00  0.00    +0.000 A 
ATOM     20  C   UNL     1       4.956   3.927  17.119  0.00  0.00    +0.000 A 
ENDBRANCH  11  12
ENDBRANCH  10  11
ENDBRANCH   2   5
BRANCH   1  21
ATOM     21  C   UNL     1       1.994   8.102  21.018  0.00  0.00    +0.000 C 
BRANCH  21  25
ATOM     22  C   UNL     1      -0.804  10.679  18.949  0.00  0.00    +0.000 A 
ATOM     23  C   UNL     1      -1.003  10.334  20.295  0.00  0.00    +0.000 A 
ATOM     24  C   UNL     1      -0.121   9.476  20.957  0.00  0.00    +0.000 A 
ATOM     25  C   UNL     1       0.989   8.948  20.291  0.00  0.00    +0.000 A 
ATOM     26  C   UNL     1       1.154   9.220  18.930  0.00  0.00    +0.000 A 
ATOM     27  C   UNL     1       0.272  10.077  18.270  0.00  0.00    +0.000 A 
BRANCH  22  29
ATOM     28  C   UNL     1      -0.922  13.119  18.544  0.00  0.00    +0.000 C 
ATOM     29  C   UNL     1      -1.614  11.776  18.264  0.00  0.00    +0.000 C 
ATOM     30  C   UNL     1      -3.087  11.846  18.686  0.00  0.00    +0.000 C 
BRANCH  29  31
ATOM     31  O   UNL     1      -1.602  11.555  16.848  0.00  0.00    +0.000 OA
ATOM     32  H   UNL     1      -2.199  10.812  16.660  0.00  0.00    +0.000 HD
ENDBRANCH  29  31
ENDBRANCH  22  29
ENDBRANCH  21  25
ENDBRANCH   1  21
TORSDOF 7
ENDMDL
MODEL 7
REMARK VINA RESULT:      -9.0      1.642      2.031
REMARK  Name = 
REMARK  9 active torsions:
REMARK  status: ('A' for Active; 'I' for Inactive)
REMARK    1  A    between atoms: C_1  and  C_2
REMARK    2  A    between atoms: C_2  and  C_3
REMARK    3  A    between atoms: C_2  and  O_4
REMARK    4  A    between atoms: C_2  and  C_5
REMARK    5  A    between atoms: C_8  and  C_9
REMARK    6  A    between atoms: C_9  and  N_10
REMARK    7  A    between atoms: C_11  and  C_13
REMARK    8  A    between atoms: C_18  and  O_19
REMARK    9  A    between atoms: O_19  and  C_20
REMARK                            x       y       z     vdW  Elec       q    Type
REMARK                         _______ _______ _______ _____ _____    ______ ____
ROOT
ATOM      1  N   UNL     1       1.581   6.801  20.191  0.00  0.00    +0.000 N 
ATOM      2  C   UNL     1       1.943   5.562  20.659  0.00  0.00    +0.000 C 
ATOM      3  O   UNL     1       2.458   5.409  21.764  0.00  0.00    +0.000 OA
ATOM      4  H   UNL     1       1.086   6.895  19.314  0.00  0.00    +0.000 HD
ENDROOT
BRANCH   2   5
ATOM      5  C   UNL     1       1.679   4.369  19.808  0.00  0.00    +0.000 A 
ATOM      6  C   UNL     1       1.246   3.206  20.463  0.00  0.00    +0.000 A 
ATOM      7  C   UNL     1       0.947   2.058  19.739  0.00  0.00    +0.000 A 
ATOM      8  C   UNL     1       1.068   2.109  18.365  0.00  0.00    +0.000 A 
ATOM      9  N   UNL     1       1.485   3.201  17.693  0.00  0.00    +0.000 NA
ATOM     10  C   UNL     1       1.819   4.302  18.420  0.00  0.00    +0.000 A 
BRANCH  10  11
ATOM     11  O   UNL     1       2.269   5.411  17.719  0.00  0.00    +0.000 OA
BRANCH  11  12
ATOM     12  C   UNL     1       3.614   5.488  17.378  0.00  0.00    +0.000 A 
ATOM     13  C   UNL     1       4.133   4.324  16.738  0.00  0.00    +0.000 A 
ATOM     14  C   UNL     1       5.457   4.226  16.257  0.00  0.00    +0.000 A 
ATOM     15  C   UNL     1       6.232   5.383  16.447  0.00  0.00    +0.000 A 
ATOM     16  N   UNL     1       7.504   5.619  16.102  0.00  0.00    +0.000 NA
ATOM     17  O   UNL     1       7.770   6.916  16.513  0.00  0.00    +0.000 OA
ATOM     18  N   UNL     1       6.672   7.501  17.122  0.00  0.00    +0.000 NA
ATOM     19  C   UNL     1       5.704   6.577  17.091  0.00  0.00    +0.000 A 
ATOM     20  C   UNL     1       4.380   6.659  17.561  0.00  0.00    +0.000 A 
ENDBRANCH  11  12
ENDBRANCH  10  11
ENDBRANCH   2   5
BRANCH   1  21
ATOM     21  C   UNL     1       1.724   7.982  21.008  0.00  0.00    +0.000 C 
BRANCH  21  25
ATOM     22  C   UNL     1      -0.677  11.172  19.331  0.00  0.00    +0.000 A 
ATOM     23  C   UNL     1       0.264  10.489  18.544  0.00  0.00    +0.000 A 
ATOM     24  C   UNL     1       1.065   9.482  19.090  0.00  0.00    +0.000 A 
ATOM     25  C   UNL     1       0.937   9.126  20.436  0.00  0.00    +0.000 A 
ATOM     26  C   UNL     1       0.061   9.851  21.248  0.00  0.00    +0.000 A 
ATOM     27  C   UNL     1      -0.737  10.857  20.701  0.00  0.00    +0.000 A 
BRANCH  22  29
ATOM     28  C   UNL     1      -1.957  13.255  19.722  0.00  0.00    +0.000 C 
ATOM     29  C   UNL     1      -1.711  12.114  18.722  0.00  0.00    +0.000 C 
ATOM     30  C   UNL     1      -3.041  11.452  18.343  0.00  0.00    +0.000 C 
BRANCH  29  31
ATOM     31  O   UNL     1      -1.177  12.684  17.520  0.00  0.00    +0.000 OA
ATOM     32  H   UNL     1      -1.287  13.647  17.575  0.00  0.00    +0.000 HD
ENDBRANCH  29  31
ENDBRANCH  22  29
ENDBRANCH  21  25
ENDBRANCH   1  21
TORSDOF 7
ENDMDL
MODEL 8
REMARK VINA RESULT:      -8.9      1.420      1.859
REMARK  Name = 
REMARK  9 active torsions:
REMARK  status: ('A' for Active; 'I' for Inactive)
REMARK    1  A    between atoms: C_1  and  C_2
REMARK    2  A    between atoms: C_2  and  C_3
REMARK    3  A    between atoms: C_2  and  O_4
REMARK    4  A    between atoms: C_2  and  C_5
REMARK    5  A    between atoms: C_8  and  C_9
REMARK    6  A    between atoms: C_9  and  N_10
REMARK    7  A    between atoms: C_11  and  C_13
REMARK    8  A    between atoms: C_18  and  O_19
REMARK    9  A    between atoms: O_19  and  C_20
REMARK                            x       y       z     vdW  Elec       q    Type
REMARK                         _______ _______ _______ _____ _____    ______ ____
ROOT
ATOM      1  N   UNL     1       2.205   7.652  19.418  0.00  0.00    +0.000 N 
ATOM      2  C   UNL     1       1.835   6.819  20.445  0.00  0.00    +0.000 C 
ATOM      3  O   UNL     1       1.359   7.249  21.492  0.00  0.00    +0.000 OA
ATOM      4  H   UNL     1       2.519   7.272  18.535  0.00  0.00    +0.000 HD
ENDROOT
BRANCH   2   5
ATOM      5  C   UNL     1       1.993   5.349  20.267  0.00  0.00    +0.000 A 
ATOM      6  C   UNL     1       0.848   4.560  20.460  0.00  0.00    +0.000 A 
ATOM      7  C   UNL     1       0.902   3.182  20.282  0.00  0.00    +0.000 A 
ATOM      8  C   UNL     1       2.105   2.626  19.894  0.00  0.00    +0.000 A 
ATOM      9  N   UNL     1       3.231   3.343  19.703  0.00  0.00    +0.000 NA
ATOM     10  C   UNL     1       3.172   4.684  19.926  0.00  0.00    +0.000 A 
BRANCH  10  11
ATOM     11  O   UNL     1       4.343   5.406  19.749  0.00  0.00    +0.000 OA
BRANCH  11  12
ATOM     12  C   UNL     1       4.955   5.396  18.501  0.00  0.00    +0.000 A 
ATOM     13  C   UNL     1       4.322   6.216  17.521  0.00  0.00    +0.000 A 
ATOM     14  C   UNL     1       4.822   6.393  16.213  0.00  0.00    +0.000 A 
ATOM     15  C   UNL     1       6.017   5.700  15.949  0.00  0.00    +0.000 A 
ATOM     16  N   UNL     1       6.747   5.665  14.828  0.00  0.00    +0.000 NA
ATOM     17  O   UNL     1       7.826   4.841  15.108  0.00  0.00    +0.000 OA
ATOM     18  N   UNL     1       7.779   4.351  16.403  0.00  0.00    +0.000 NA
ATOM     19  C   UNL     1       6.673   4.870  16.949  0.00  0.00    +0.000 A 
ATOM     20  C   UNL     1       6.162   4.709  18.250  0.00  0.00    +0.000 A 
ENDBRANCH  11  12
ENDBRANCH  10  11
ENDBRANCH   2   5
BRANCH   1  21
ATOM     21  C   UNL     1       1.987   9.077  19.493  0.00  0.00    +0.000 C 
BRANCH  21  25
ATOM     22  C   UNL     1      -1.851  10.271  17.883  0.00  0.00    +0.000 A 
ATOM     23  C   UNL     1      -1.555  10.449  19.245  0.00  0.00    +0.000 A 
ATOM     24  C   UNL     1      -0.330  10.033  19.775  0.00  0.00    +0.000 A 
ATOM     25  C   UNL     1       0.633   9.439  18.955  0.00  0.00    +0.000 A 
ATOM     26  C   UNL     1       0.319   9.185  17.616  0.00  0.00    +0.000 A 
ATOM     27  C   UNL     1      -0.904   9.600  17.089  0.00  0.00    +0.000 A 
BRANCH  22  29
ATOM     28  C   UNL     1      -4.319  10.149  17.726  0.00  0.00    +0.000 C 
ATOM     29  C   UNL     1      -3.076  10.905  17.232  0.00  0.00    +0.000 C 
ATOM     30  C   UNL     1      -3.051  10.927  15.698  0.00  0.00    +0.000 C 
BRANCH  29  31
ATOM     31  O   UNL     1      -3.184  12.269  17.660  0.00  0.00    +0.000 OA
ATOM     32  H   UNL     1      -2.390  12.479  18.179  0.00  0.00    +0.000 HD
ENDBRANCH  29  31
ENDBRANCH  22  29
ENDBRANCH  21  25
ENDBRANCH   1  21
TORSDOF 7
ENDMDL
MODEL 9
REMARK VINA RESULT:      -8.9      1.793      2.207
REMARK  Name = 
REMARK  9 active torsions:
REMARK  status: ('A' for Active; 'I' for Inactive)
REMARK    1  A    between atoms: C_1  and  C_2
REMARK    2  A    between atoms: C_2  and  C_3
REMARK    3  A    between atoms: C_2  and  O_4
REMARK    4  A    between atoms: C_2  and  C_5
REMARK    5  A    between atoms: C_8  and  C_9
REMARK    6  A    between atoms: C_9  and  N_10
REMARK    7  A    between atoms: C_11  and  C_13
REMARK    8  A    between atoms: C_18  and  O_19
REMARK    9  A    between atoms: O_19  and  C_20
REMARK                            x       y       z     vdW  Elec       q    Type
REMARK                         _______ _______ _______ _____ _____    ______ ____
ROOT
ATOM      1  N   UNL     1       1.653   6.719  19.972  0.00  0.00    +0.000 N 
ATOM      2  C   UNL     1       1.866   5.475  20.513  0.00  0.00    +0.000 C 
ATOM      3  O   UNL     1       2.240   5.327  21.674  0.00  0.00    +0.000 OA
ATOM      4  H   UNL     1       1.269   6.816  19.042  0.00  0.00    +0.000 HD
ENDROOT
BRANCH   2   5
ATOM      5  C   UNL     1       1.610   4.274  19.671  0.00  0.00    +0.000 A 
ATOM      6  C   UNL     1       0.808   3.267  20.231  0.00  0.00    +0.000 A 
ATOM      7  C   UNL     1       0.494   2.127  19.499  0.00  0.00    +0.000 A 
ATOM      8  C   UNL     1       0.977   2.032  18.209  0.00  0.00    +0.000 A 
ATOM      9  N   UNL     1       1.755   2.970  17.632  0.00  0.00    +0.000 NA
ATOM     10  C   UNL     1       2.091   4.058  18.378  0.00  0.00    +0.000 A 
BRANCH  10  11
ATOM     11  O   UNL     1       2.911   5.005  17.782  0.00  0.00    +0.000 OA
BRANCH  11  12
ATOM     12  C   UNL     1       4.288   4.879  17.917  0.00  0.00    +0.000 A 
ATOM     13  C   UNL     1       4.963   4.430  16.744  0.00  0.00    +0.000 A 
ATOM     14  C   UNL     1       6.365   4.298  16.656  0.00  0.00    +0.000 A 
ATOM     15  C   UNL     1       7.059   4.663  17.823  0.00  0.00    +0.000 A 
ATOM     16  N   UNL     1       8.376   4.665  18.063  0.00  0.00    +0.000 NA
ATOM     17  O   UNL     1       8.520   5.118  19.365  0.00  0.00    +0.000 OA
ATOM     18  N   UNL     1       7.298   5.400  19.953  0.00  0.00    +0.000 NA
ATOM     19  C   UNL     1       6.375   5.132  19.020  0.00  0.00    +0.000 A 
ATOM     20  C   UNL     1       4.975   5.261  19.089  0.00  0.00    +0.000 A 
ENDBRANCH  11  12
ENDBRANCH  10  11
ENDBRANCH   2   5
BRANCH   1  21
ATOM     21  C   UNL     1       1.792   7.916  20.766  0.00  0.00    +0.000 C 
BRANCH  21  25
ATOM     22  C   UNL     1      -0.650  11.055  19.053  0.00  0.00    +0.000 A 
ATOM     23  C   UNL     1       0.274  10.350  18.264  0.00  0.00    +0.000 A 
ATOM     24  C   UNL     1       1.088   9.359  18.821  0.00  0.00    +0.000 A 
ATOM     25  C   UNL     1       0.992   9.042  20.179  0.00  0.00    +0.000 A 
ATOM     26  C   UNL     1       0.133   9.791  20.990  0.00  0.00    +0.000 A 
ATOM     27  C   UNL     1      -0.678  10.780  20.432  0.00  0.00    +0.000 A 
BRANCH  22  29
ATOM     28  C   UNL     1      -2.414  12.706  19.589  0.00  0.00    +0.000 C 
ATOM     29  C   UNL     1      -1.698  11.979  18.441  0.00  0.00    +0.000 C 
ATOM     30  C   UNL     1      -2.724  11.281  17.540  0.00  0.00    +0.000 C 
BRANCH  29  31
ATOM     31  O   UNL     1      -1.042  12.963  17.631  0.00  0.00    +0.000 OA
ATOM     32  H   UNL     1      -0.126  13.041  17.946  0.00  0.00    +0.000 HD
ENDBRANCH  29  31
ENDBRANCH  22  29
ENDBRANCH  21  25
ENDBRANCH   1  21
TORSDOF 7
ENDMDL
