MODEL 1
REMARK VINA RESULT:      -6.7      0.000      0.000
REMARK  Name = 
REMARK  8 active torsions:
REMARK  status: ('A' for Active; 'I' for Inactive)
REMARK    1  A    between atoms: C_1  and  O_2
REMARK    2  A    between atoms: O_2  and  C_3
REMARK    3  A    between atoms: C_6  and  C_7
REMARK    4  A    between atoms: C_7  and  C_9
REMARK    5  A    between atoms: C_10  and  C_11
REMARK    6  A    between atoms: C_14  and  O_15
REMARK    7  A    between atoms: O_15  and  C_16
REMARK    8  A    between atoms: C_16  and  C_17
REMARK                            x       y       z     vdW  Elec       q    Type
REMARK                         _______ _______ _______ _____ _____    ______ ____
ROOT
ATOM      1  C   UNL     1       2.594   5.516  19.498  0.00  0.00    +0.000 C 
ATOM      2  C   UNL     1       2.901   6.720  18.984  0.00  0.00    +0.000 C 
ENDROOT
BRANCH   2   3
ATOM      3  C   UNL     1       2.049   7.905  19.184  0.00  0.00    +0.000 A 
ATOM      4  C   UNL     1       1.515   8.216  20.439  0.00  0.00    +0.000 A 
ATOM      5  C   UNL     1       0.687   9.328  20.610  0.00  0.00    +0.000 A 
ATOM      6  C   UNL     1       0.410  10.179  19.541  0.00  0.00    +0.000 A 
ATOM      7  C   UNL     1       0.961   9.899  18.292  0.00  0.00    +0.000 A 
ATOM      8  C   UNL     1       1.781   8.770  18.116  0.00  0.00    +0.000 A 
BRANCH   6   9
ATOM      9  O   UNL     1      -0.446  11.204  19.836  0.00  0.00    +0.000 OA
BRANCH   9  10
ATOM     10  C   UNL     1      -0.872  12.007  18.735  0.00  0.00    +0.000 C 
BRANCH  10  11
ATOM     11  C   UNL     1      -2.340  11.752  18.438  0.00  0.00    +0.000 C 
ATOM     12  N   UNL     1      -3.559  11.540  18.191  0.00  0.00    +0.000 NA
ENDBRANCH  10  11
ENDBRANCH   9  10
ENDBRANCH   6   9
ENDBRANCH   2   3
BRANCH   1  13
ATOM     13  C   UNL     1       3.507   4.351  19.336  0.00  0.00    +0.000 C 
ATOM     14  O   UNL     1       3.321   3.297  19.939  0.00  0.00    +0.000 OA
BRANCH  13  18
ATOM     15  C   UNL     1       6.673   4.653  16.434  0.00  0.00    +0.000 A 
ATOM     16  C   UNL     1       5.379   4.293  16.059  0.00  0.00    +0.000 A 
ATOM     17  C   UNL     1       4.359   4.208  17.013  0.00  0.00    +0.000 A 
ATOM     18  C   UNL     1       4.629   4.473  18.360  0.00  0.00    +0.000 A 
ATOM     19  C   UNL     1       5.936   4.811  18.740  0.00  0.00    +0.000 A 
ATOM     20  C   UNL     1       6.952   4.902  17.778  0.00  0.00    +0.000 A 
BRANCH  15  22
ATOM     21  C   UNL     1       7.051   4.828  14.104  0.00  0.00    +0.000 C 
ATOM     22  O   UNL     1       7.586   4.685  15.416  0.00  0.00    +0.000 OA
ENDBRANCH  15  22
ENDBRANCH  13  18
ENDBRANCH   1  13
TORSDOF 7
ENDMDL
MODEL 2
REMARK VINA RESULT:      -6.7      3.382      8.982
REMARK  Name = 
REMARK  8 active torsions:
REMARK  status: ('A' for Active; 'I' for Inactive)
REMARK    1  A    between atoms: C_1  and  O_2
REMARK    2  A    between atoms: O_2  and  C_3
REMARK    3  A    between atoms: C_6  and  C_7
REMARK    4  A    between atoms: C_7  and  C_9
REMARK    5  A    between atoms: C_10  and  C_11
REMARK    6  A    between atoms: C_14  and  O_15
REMARK    7  A    between atoms: O_15  and  C_16
REMARK    8  A    between atoms: C_16  and  C_17
REMARK                            x       y       z     vdW  Elec       q    Type
REMARK                         _______ _______ _______ _____ _____    ______ ____
ROOT
ATOM      1  C   UNL     1       1.579   9.025  18.503  0.00  0.00    +0.000 C 
ATOM      2  C   UNL     1       1.931   7.817  18.975  0.00  0.00    +0.000 C 
ENDROOT
BRANCH   2   3
ATOM      3  C   UNL     1       2.826   6.908  18.237  0.00  0.00    +0.000 A 
ATOM      4  C   UNL     1       2.700   5.519  18.339  0.00  0.00    +0.000 A 
ATOM      5  C   UNL     1       3.571   4.668  17.655  0.00  0.00    +0.000 A 
ATOM      6  C   UNL     1       4.560   5.185  16.820  0.00  0.00    +0.000 A 
ATOM      7  C   UNL     1       4.677   6.568  16.684  0.00  0.00    +0.000 A 
ATOM      8  C   UNL     1       3.810   7.424  17.385  0.00  0.00    +0.000 A 
BRANCH   6   9
ATOM      9  O   UNL     1       5.369   4.245  16.244  0.00  0.00    +0.000 OA
BRANCH   9  10
ATOM     10  C   UNL     1       6.744   4.599  16.099  0.00  0.00    +0.000 C 
BRANCH  10  11
ATOM     11  C   UNL     1       7.426   4.618  17.457  0.00  0.00    +0.000 C 
ATOM     12  N   UNL     1       7.991   4.633  18.585  0.00  0.00    +0.000 NA
ENDBRANCH  10  11
ENDBRANCH   9  10
ENDBRANCH   6   9
ENDBRANCH   2   3
BRANCH   1  13
ATOM     13  C   UNL     1       0.726   9.948  19.299  0.00  0.00    +0.000 C 
ATOM     14  O   UNL     1       1.094  10.392  20.384  0.00  0.00    +0.000 OA
BRANCH  13  18
ATOM     15  C   UNL     1      -2.999  11.136  17.496  0.00  0.00    +0.000 A 
ATOM     16  C   UNL     1      -2.168  10.195  16.888  0.00  0.00    +0.000 A 
ATOM     17  C   UNL     1      -0.965   9.814  17.491  0.00  0.00    +0.000 A 
ATOM     18  C   UNL     1      -0.575  10.381  18.709  0.00  0.00    +0.000 A 
ATOM     19  C   UNL     1      -1.399  11.344  19.308  0.00  0.00    +0.000 A 
ATOM     20  C   UNL     1      -2.608  11.718  18.703  0.00  0.00    +0.000 A 
BRANCH  15  22
ATOM     21  C   UNL     1      -5.321  11.587  17.580  0.00  0.00    +0.000 C 
ATOM     22  O   UNL     1      -4.138  11.440  16.802  0.00  0.00    +0.000 OA
ENDBRANCH  15  22
ENDBRANCH  13  18
ENDBRANCH   1  13
TORSDOF 7
ENDMDL
MODEL 3
REMARK VINA RESULT:      -6.6      0.301      1.066
REMARK  Name = 
REMARK  8 active torsions:
REMARK  status: ('A' for Active; 'I' for Inactive)
REMARK    1  A    between atoms: C_1  and  O_2
REMARK    2  A    between atoms: O_2  and  C_3
REMARK    3  A    between atoms: C_6  and  C_7
REMARK    4  A    between atoms: C_7  and  C_9
REMARK    5  A    between atoms: C_10  and  C_11
REMARK    6  A    between atoms: C_14  and  O_15
REMARK    7  A    between atoms: O_15  and  C_16
REMARK    8  A    between atoms: C_16  and  C_17
REMARK                            x       y       z     vdW  Elec       q    Type
REMARK                         _______ _______ _______ _____ _____    ______ ____
ROOT
ATOM      1  C   UNL     1       2.825   5.733  19.721  0.00  0.00    +0.000 C 
ATOM      2  C   UNL     1       2.772   6.737  18.828  0.00  0.00    +0.000 C 
ENDROOT
BRANCH   2   3
ATOM      3  C   UNL     1       2.027   7.982  19.082  0.00  0.00    +0.000 A 
ATOM      4  C   UNL     1       1.832   8.933  18.074  0.00  0.00    +0.000 A 
ATOM      5  C   UNL     1       1.146  10.122  18.333  0.00  0.00    +0.000 A 
ATOM      6  C   UNL     1       0.603  10.369  19.594  0.00  0.00    +0.000 A 
ATOM      7  C   UNL     1       0.763   9.416  20.599  0.00  0.00    +0.000 A 
ATOM      8  C   UNL     1       1.467   8.227  20.341  0.00  0.00    +0.000 A 
BRANCH   6   9
ATOM      9  O   UNL     1      -0.005  11.587  19.723  0.00  0.00    +0.000 OA
BRANCH   9  10
ATOM     10  C   UNL     1      -0.700  12.071  18.574  0.00  0.00    +0.000 C 
BRANCH  10  11
ATOM     11  C   UNL     1      -2.201  11.961  18.786  0.00  0.00    +0.000 C 
ATOM     12  N   UNL     1      -3.447  11.870  18.962  0.00  0.00    +0.000 NA
ENDBRANCH  10  11
ENDBRANCH   9  10
ENDBRANCH   6   9
ENDBRANCH   2   3
BRANCH   1  13
ATOM     13  C   UNL     1       3.639   4.514  19.465  0.00  0.00    +0.000 C 
ATOM     14  O   UNL     1       3.391   3.445  20.019  0.00  0.00    +0.000 OA
BRANCH  13  18
ATOM     15  C   UNL     1       6.730   4.720  16.474  0.00  0.00    +0.000 A 
ATOM     16  C   UNL     1       5.430   4.335  16.147  0.00  0.00    +0.000 A 
ATOM     17  C   UNL     1       4.435   4.281  17.129  0.00  0.00    +0.000 A 
ATOM     18  C   UNL     1       4.735   4.604  18.457  0.00  0.00    +0.000 A 
ATOM     19  C   UNL     1       6.048   4.967  18.789  0.00  0.00    +0.000 A 
ATOM     20  C   UNL     1       7.040   5.027  17.799  0.00  0.00    +0.000 A 
BRANCH  15  22
ATOM     21  C   UNL     1       7.046   4.753  14.129  0.00  0.00    +0.000 C 
ATOM     22  O   UNL     1       7.616   4.717  15.433  0.00  0.00    +0.000 OA
ENDBRANCH  15  22
ENDBRANCH  13  18
ENDBRANCH   1  13
TORSDOF 7
ENDMDL
MODEL 4
REMARK VINA RESULT:      -6.6      6.562      8.106
REMARK  Name = 
REMARK  8 active torsions:
REMARK  status: ('A' for Active; 'I' for Inactive)
REMARK    1  A    between atoms: C_1  and  O_2
REMARK    2  A    between atoms: O_2  and  C_3
REMARK    3  A    between atoms: C_6  and  C_7
REMARK    4  A    between atoms: C_7  and  C_9
REMARK    5  A    between atoms: C_10  and  C_11
REMARK    6  A    between atoms: C_14  and  O_15
REMARK    7  A    between atoms: O_15  and  C_16
REMARK    8  A    between atoms: C_16  and  C_17
REMARK                            x       y       z     vdW  Elec       q    Type
REMARK                         _______ _______ _______ _____ _____    ______ ____
ROOT
ATOM      1  C   UNL     1       7.285   8.310  17.465  0.00  0.00    +0.000 C 
ATOM      2  C   UNL     1       8.410   8.604  18.138  0.00  0.00    +0.000 C 
ENDROOT
BRANCH   2   3
ATOM      3  C   UNL     1       8.786   9.985  18.488  0.00  0.00    +0.000 A 
ATOM      4  C   UNL     1       8.421  11.066  17.679  0.00  0.00    +0.000 A 
ATOM      5  C   UNL     1       8.805  12.369  18.008  0.00  0.00    +0.000 A 
ATOM      6  C   UNL     1       9.525  12.625  19.174  0.00  0.00    +0.000 A 
ATOM      7  C   UNL     1       9.867  11.560  20.006  0.00  0.00    +0.000 A 
ATOM      8  C   UNL     1       9.494  10.247  19.667  0.00  0.00    +0.000 A 
BRANCH   6   9
ATOM      9  O   UNL     1       9.871  13.935  19.354  0.00  0.00    +0.000 OA
BRANCH   9  10
ATOM     10  C   UNL     1       9.787  14.774  18.202  0.00  0.00    +0.000 C 
BRANCH  10  11
ATOM     11  C   UNL     1      11.177  15.215  17.772  0.00  0.00    +0.000 C 
ATOM     12  N   UNL     1      12.330  15.580  17.416  0.00  0.00    +0.000 NA
ENDBRANCH  10  11
ENDBRANCH   9  10
ENDBRANCH   6   9
ENDBRANCH   2   3
BRANCH   1  13
ATOM     13  C   UNL     1       6.898   6.901  17.182  0.00  0.00    +0.000 C 
ATOM     14  O   UNL     1       7.626   6.148  16.540  0.00  0.00    +0.000 OA
BRANCH  13  18
ATOM     15  C   UNL     1       3.266   5.361  18.909  0.00  0.00    +0.000 A 
ATOM     16  C   UNL     1       4.515   4.867  19.288  0.00  0.00    +0.000 A 
ATOM     17  C   UNL     1       5.686   5.384  18.723  0.00  0.00    +0.000 A 
ATOM     18  C   UNL     1       5.618   6.399  17.762  0.00  0.00    +0.000 A 
ATOM     19  C   UNL     1       4.362   6.878  17.364  0.00  0.00    +0.000 A 
ATOM     20  C   UNL     1       3.191   6.361  17.938  0.00  0.00    +0.000 A 
BRANCH  15  22
ATOM     21  C   UNL     1       2.170   4.832  20.938  0.00  0.00    +0.000 C 
ATOM     22  O   UNL     1       2.197   4.764  19.517  0.00  0.00    +0.000 OA
ENDBRANCH  15  22
ENDBRANCH  13  18
ENDBRANCH   1  13
TORSDOF 7
ENDMDL
MODEL 5
REMARK VINA RESULT:      -6.6      1.713      1.806
REMARK  Name = 
REMARK  8 active torsions:
REMARK  status: ('A' for Active; 'I' for Inactive)
REMARK    1  A    between atoms: C_1  and  O_2
REMARK    2  A    between atoms: O_2  and  C_3
REMARK    3  A    between atoms: C_6  and  C_7
REMARK    4  A    between atoms: C_7  and  C_9
REMARK    5  A    between atoms: C_10  and  C_11
REMARK    6  A    between atoms: C_14  and  O_15
REMARK    7  A    between atoms: O_15  and  C_16
REMARK    8  A    between atoms: C_16  and  C_17
REMARK                            x       y       z     vdW  Elec       q    Type
REMARK                         _______ _______ _______ _____ _____    ______ ____
ROOT
ATOM      1  C   UNL     1       2.213   5.459  19.841  0.00  0.00    +0.000 C 
ATOM      2  C   UNL     1       2.636   6.729  19.718  0.00  0.00    +0.000 C 
ENDROOT
BRANCH   2   3
ATOM      3  C   UNL     1       1.778   7.883  20.037  0.00  0.00    +0.000 A 
ATOM      4  C   UNL     1       1.246   8.063  21.318  0.00  0.00    +0.000 A 
ATOM      5  C   UNL     1       0.413   9.148  21.601  0.00  0.00    +0.000 A 
ATOM      6  C   UNL     1       0.128  10.100  20.624  0.00  0.00    +0.000 A 
ATOM      7  C   UNL     1       0.677   9.950  19.351  0.00  0.00    +0.000 A 
ATOM      8  C   UNL     1       1.503   8.849  19.062  0.00  0.00    +0.000 A 
BRANCH   6   9
ATOM      9  O   UNL     1      -0.733  11.086  21.022  0.00  0.00    +0.000 OA
BRANCH   9  10
ATOM     10  C   UNL     1      -0.677  11.454  22.399  0.00  0.00    +0.000 C 
BRANCH  10  11
ATOM     11  C   UNL     1      -2.070  11.783  22.911  0.00  0.00    +0.000 C 
ATOM     12  N   UNL     1      -3.226  12.055  23.334  0.00  0.00    +0.000 NA
ENDBRANCH  10  11
ENDBRANCH   9  10
ENDBRANCH   6   9
ENDBRANCH   2   3
BRANCH   1  13
ATOM     13  C   UNL     1       3.123   4.311  19.575  0.00  0.00    +0.000 C 
ATOM     14  O   UNL     1       2.912   3.197  20.047  0.00  0.00    +0.000 OA
BRANCH  13  18
ATOM     15  C   UNL     1       6.381   4.906  16.823  0.00  0.00    +0.000 A 
ATOM     16  C   UNL     1       5.109   4.552  16.374  0.00  0.00    +0.000 A 
ATOM     17  C   UNL     1       4.059   4.370  17.280  0.00  0.00    +0.000 A 
ATOM     18  C   UNL     1       4.275   4.533  18.653  0.00  0.00    +0.000 A 
ATOM     19  C   UNL     1       5.560   4.865  19.106  0.00  0.00    +0.000 A 
ATOM     20  C   UNL     1       6.608   5.053  18.193  0.00  0.00    +0.000 A 
BRANCH  15  22
ATOM     21  C   UNL     1       6.878   4.828  14.511  0.00  0.00    +0.000 C 
ATOM     22  O   UNL     1       7.328   5.037  15.845  0.00  0.00    +0.000 OA
ENDBRANCH  15  22
ENDBRANCH  13  18
ENDBRANCH   1  13
TORSDOF 7
ENDMDL
MODEL 6
REMARK VINA RESULT:      -6.6      3.503      9.117
REMARK  Name = 
REMARK  8 active torsions:
REMARK  status: ('A' for Active; 'I' for Inactive)
REMARK    1  A    between atoms: C_1  and  O_2
REMARK    2  A    between atoms: O_2  and  C_3
REMARK    3  A    between atoms: C_6  and  C_7
REMARK    4  A    between atoms: C_7  and  C_9
REMARK    5  A    between atoms: C_10  and  C_11
REMARK    6  A    between atoms: C_14  and  O_15
REMARK    7  A    between atoms: O_15  and  C_16
REMARK    8  A    between atoms: C_16  and  C_17
REMARK                            x       y       z     vdW  Elec       q    Type
REMARK                         _______ _______ _______ _____ _____    ______ ____
ROOT
ATOM      1  C   UNL     1       1.289   9.443  18.862  0.00  0.00    +0.000 C 
ATOM      2  C   UNL     1       2.100   8.983  17.894  0.00  0.00    +0.000 C 
ENDROOT
BRANCH   2   3
ATOM      3  C   UNL     1       2.759   7.668  17.974  0.00  0.00    +0.000 A 
ATOM      4  C   UNL     1       2.158   6.590  18.635  0.00  0.00    +0.000 A 
ATOM      5  C   UNL     1       2.805   5.355  18.726  0.00  0.00    +0.000 A 
ATOM      6  C   UNL     1       4.045   5.156  18.122  0.00  0.00    +0.000 A 
ATOM      7  C   UNL     1       4.640   6.211  17.432  0.00  0.00    +0.000 A 
ATOM      8  C   UNL     1       3.997   7.459  17.354  0.00  0.00    +0.000 A 
BRANCH   6   9
ATOM      9  O   UNL     1       4.584   3.915  18.323  0.00  0.00    +0.000 OA
BRANCH   9  10
ATOM     10  C   UNL     1       3.736   2.953  18.949  0.00  0.00    +0.000 C 
BRANCH  10  11
ATOM     11  C   UNL     1       4.484   2.245  20.067  0.00  0.00    +0.000 C 
ATOM     12  N   UNL     1       5.104   1.658  20.995  0.00  0.00    +0.000 NA
ENDBRANCH  10  11
ENDBRANCH   9  10
ENDBRANCH   6   9
ENDBRANCH   2   3
BRANCH   1  13
ATOM     13  C   UNL     1       0.585  10.748  18.725  0.00  0.00    +0.000 C 
ATOM     14  O   UNL     1       1.174  11.817  18.865  0.00  0.00    +0.000 OA
BRANCH  13  18
ATOM     15  C   UNL     1      -3.599  10.769  17.708  0.00  0.00    +0.000 A 
ATOM     16  C   UNL     1      -3.064  11.707  18.591  0.00  0.00    +0.000 A 
ATOM     17  C   UNL     1      -1.700  11.692  18.904  0.00  0.00    +0.000 A 
ATOM     18  C   UNL     1      -0.857  10.726  18.343  0.00  0.00    +0.000 A 
ATOM     19  C   UNL     1      -1.401   9.768  17.475  0.00  0.00    +0.000 A 
ATOM     20  C   UNL     1      -2.767   9.792  17.159  0.00  0.00    +0.000 A 
BRANCH  15  22
ATOM     21  C   UNL     1      -5.478  12.194  17.515  0.00  0.00    +0.000 C 
ATOM     22  O   UNL     1      -4.946  10.874  17.495  0.00  0.00    +0.000 OA
ENDBRANCH  15  22
ENDBRANCH  13  18
ENDBRANCH   1  13
TORSDOF 7
ENDMDL
MODEL 7
REMARK VINA RESULT:      -6.6      3.490      9.131
REMARK  Name = 
REMARK  8 active torsions:
REMARK  status: ('A' for Active; 'I' for Inactive)
REMARK    1  A    between atoms: C_1  and  O_2
REMARK    2  A    between atoms: O_2  and  C_3
REMARK    3  A    between atoms: C_6  and  C_7
REMARK    4  A    between atoms: C_7  and  C_9
REMARK    5  A    between atoms: C_10  and  C_11
REMARK    6  A    between atoms: C_14  and  O_15
REMARK    7  A    between atoms: O_15  and  C_16
REMARK    8  A    between atoms: C_16  and  C_17
REMARK                            x       y       z     vdW  Elec       q    Type
REMARK                         _______ _______ _______ _____ _____    ______ ____
ROOT
ATOM      1  C   UNL     1       1.515   9.286  18.776  0.00  0.00    +0.000 C 
ATOM      2  C   UNL     1       2.248   8.747  17.787  0.00  0.00    +0.000 C 
ENDROOT
BRANCH   2   3
ATOM      3  C   UNL     1       2.785   7.377  17.857  0.00  0.00    +0.000 A 
ATOM      4  C   UNL     1       4.090   7.084  17.446  0.00  0.00    +0.000 A 
ATOM      5  C   UNL     1       4.579   5.776  17.493  0.00  0.00    +0.000 A 
ATOM      6  C   UNL     1       3.791   4.740  17.992  0.00  0.00    +0.000 A 
ATOM      7  C   UNL     1       2.500   5.023  18.436  0.00  0.00    +0.000 A 
ATOM      8  C   UNL     1       2.003   6.337  18.373  0.00  0.00    +0.000 A 
BRANCH   6   9
ATOM      9  O   UNL     1       4.376   3.504  17.943  0.00  0.00    +0.000 OA
BRANCH   9  10
ATOM     10  C   UNL     1       3.709   2.462  18.654  0.00  0.00    +0.000 C 
BRANCH  10  11
ATOM     11  C   UNL     1       4.477   2.118  19.920  0.00  0.00    +0.000 C 
ATOM     12  N   UNL     1       5.113   1.833  20.971  0.00  0.00    +0.000 NA
ENDBRANCH  10  11
ENDBRANCH   9  10
ENDBRANCH   6   9
ENDBRANCH   2   3
BRANCH   1  13
ATOM     13  C   UNL     1       0.930  10.649  18.650  0.00  0.00    +0.000 C 
ATOM     14  O   UNL     1       1.634  11.656  18.656  0.00  0.00    +0.000 OA
BRANCH  13  18
ATOM     15  C   UNL     1      -3.329  11.047  18.155  0.00  0.00    +0.000 A 
ATOM     16  C   UNL     1      -2.623  11.863  19.039  0.00  0.00    +0.000 A 
ATOM     17  C   UNL     1      -1.238  11.727  19.183  0.00  0.00    +0.000 A 
ATOM     18  C   UNL     1      -0.544  10.761  18.446  0.00  0.00    +0.000 A 
ATOM     19  C   UNL     1      -1.258   9.924  17.575  0.00  0.00    +0.000 A 
ATOM     20  C   UNL     1      -2.645  10.070  17.430  0.00  0.00    +0.000 A 
BRANCH  15  22
ATOM     21  C   UNL     1      -5.155  12.038  17.022  0.00  0.00    +0.000 C 
ATOM     22  O   UNL     1      -4.679  11.263  18.117  0.00  0.00    +0.000 OA
ENDBRANCH  15  22
ENDBRANCH  13  18
ENDBRANCH   1  13
TORSDOF 7
ENDMDL
MODEL 8
REMARK VINA RESULT:      -6.6      0.735      1.263
REMARK  Name = 
REMARK  8 active torsions:
REMARK  status: ('A' for Active; 'I' for Inactive)
REMARK    1  A    between atoms: C_1  and  O_2
REMARK    2  A    between atoms: O_2  and  C_3
REMARK    3  A    between atoms: C_6  and  C_7
REMARK    4  A    between atoms: C_7  and  C_9
REMARK    5  A    between atoms: C_10  and  C_11
REMARK    6  A    between atoms: C_14  and  O_15
REMARK    7  A    between atoms: O_15  and  C_16
REMARK    8  A    between atoms: C_16  and  C_17
REMARK                            x       y       z     vdW  Elec       q    Type
REMARK                         _______ _______ _______ _____ _____    ______ ____
ROOT
ATOM      1  C   UNL     1       2.866   5.528  19.762  0.00  0.00    +0.000 C 
ATOM      2  C   UNL     1       2.847   6.571  18.915  0.00  0.00    +0.000 C 
ENDROOT
BRANCH   2   3
ATOM      3  C   UNL     1       2.071   7.794  19.183  0.00  0.00    +0.000 A 
ATOM      4  C   UNL     1       1.564   8.070  20.457  0.00  0.00    +0.000 A 
ATOM      5  C   UNL     1       0.808   9.221  20.693  0.00  0.00    +0.000 A 
ATOM      6  C   UNL     1       0.578  10.142  19.672  0.00  0.00    +0.000 A 
ATOM      7  C   UNL     1       1.105   9.895  18.405  0.00  0.00    +0.000 A 
ATOM      8  C   UNL     1       1.852   8.729  18.164  0.00  0.00    +0.000 A 
BRANCH   6   9
ATOM      9  O   UNL     1      -0.211  11.202  20.027  0.00  0.00    +0.000 OA
BRANCH   9  10
ATOM     10  C   UNL     1      -1.340  11.455  19.192  0.00  0.00    +0.000 C 
BRANCH  10  11
ATOM     11  C   UNL     1      -2.353  12.317  19.928  0.00  0.00    +0.000 C 
ATOM     12  N   UNL     1      -3.194  13.032  20.539  0.00  0.00    +0.000 NA
ENDBRANCH  10  11
ENDBRANCH   9  10
ENDBRANCH   6   9
ENDBRANCH   2   3
BRANCH   1  13
ATOM     13  C   UNL     1       3.710   4.331  19.498  0.00  0.00    +0.000 C 
ATOM     14  O   UNL     1       3.585   3.296  20.148  0.00  0.00    +0.000 OA
BRANCH  13  18
ATOM     15  C   UNL     1       6.585   4.578  16.301  0.00  0.00    +0.000 A 
ATOM     16  C   UNL     1       6.926   4.919  17.610  0.00  0.00    +0.000 A 
ATOM     17  C   UNL     1       5.983   4.826  18.639  0.00  0.00    +0.000 A 
ATOM     18  C   UNL     1       4.679   4.397  18.364  0.00  0.00    +0.000 A 
ATOM     19  C   UNL     1       4.330   4.077  17.044  0.00  0.00    +0.000 A 
ATOM     20  C   UNL     1       5.282   4.166  16.018  0.00  0.00    +0.000 A 
BRANCH  15  22
ATOM     21  C   UNL     1       7.172   4.869  14.027  0.00  0.00    +0.000 C 
ATOM     22  O   UNL     1       7.586   4.728  15.382  0.00  0.00    +0.000 OA
ENDBRANCH  15  22
ENDBRANCH  13  18
ENDBRANCH   1  13
TORSDOF 7
ENDMDL
MODEL 9
REMARK VINA RESULT:      -6.5      3.431      9.118
REMARK  Name = 
REMARK  8 active torsions:
REMARK  status: ('A' for Active; 'I' for Inactive)
REMARK    1  A    between atoms: C_1  and  O_2
REMARK    2  A    between atoms: O_2  and  C_3
REMARK    3  A    between atoms: C_6  and  C_7
REMARK    4  A    between atoms: C_7  and  C_9
REMARK    5  A    between atoms: C_10  and  C_11
REMARK    6  A    between atoms: C_14  and  O_15
REMARK    7  A    between atoms: O_15  and  C_16
REMARK    8  A    between atoms: C_16  and  C_17
REMARK                            x       y       z     vdW  Elec       q    Type
REMARK                         _______ _______ _______ _____ _____    ______ ____
ROOT
ATOM      1  C   UNL     1       1.320   9.585  18.266  0.00  0.00    +0.000 C 
ATOM      2  C   UNL     1       1.731   8.536  18.998  0.00  0.00    +0.000 C 
ENDROOT
BRANCH   2   3
ATOM      3  C   UNL     1       2.557   7.454  18.437  0.00  0.00    +0.000 A 
ATOM      4  C   UNL     1       2.394   6.125  18.844  0.00  0.00    +0.000 A 
ATOM      5  C   UNL     1       3.201   5.111  18.323  0.00  0.00    +0.000 A 
ATOM      6  C   UNL     1       4.161   5.395  17.352  0.00  0.00    +0.000 A 
ATOM      7  C   UNL     1       4.312   6.709  16.913  0.00  0.00    +0.000 A 
ATOM      8  C   UNL     1       3.511   7.732  17.450  0.00  0.00    +0.000 A 
BRANCH   6   9
ATOM      9  O   UNL     1       4.909   4.320  16.959  0.00  0.00    +0.000 OA
BRANCH   9  10
ATOM     10  C   UNL     1       6.318   4.422  17.166  0.00  0.00    +0.000 C 
BRANCH  10  11
ATOM     11  C   UNL     1       7.006   4.844  15.878  0.00  0.00    +0.000 C 
ATOM     12  N   UNL     1       7.578   5.194  14.810  0.00  0.00    +0.000 NA
ENDBRANCH  10  11
ENDBRANCH   9  10
ENDBRANCH   6   9
ENDBRANCH   2   3
BRANCH   1  13
ATOM     13  C   UNL     1       0.541  10.697  18.876  0.00  0.00    +0.000 C 
ATOM     14  O   UNL     1       1.075  11.547  19.585  0.00  0.00    +0.000 OA
BRANCH  13  18
ATOM     15  C   UNL     1      -3.631  10.908  17.829  0.00  0.00    +0.000 A 
ATOM     16  C   UNL     1      -2.762  10.036  17.172  0.00  0.00    +0.000 A 
ATOM     17  C   UNL     1      -1.411   9.973  17.530  0.00  0.00    +0.000 A 
ATOM     18  C   UNL     1      -0.912  10.794  18.547  0.00  0.00    +0.000 A 
ATOM     19  C   UNL     1      -1.780  11.688  19.190  0.00  0.00    +0.000 A 
ATOM     20  C   UNL     1      -3.135  11.741  18.832  0.00  0.00    +0.000 A 
BRANCH  15  22
ATOM     21  C   UNL     1      -5.502  12.161  17.105  0.00  0.00    +0.000 C 
ATOM     22  O   UNL     1      -4.922  10.891  17.379  0.00  0.00    +0.000 OA
ENDBRANCH  15  22
ENDBRANCH  13  18
ENDBRANCH   1  13
TORSDOF 7
ENDMDL
