MODEL 1
REMARK VINA RESULT:      -6.5      0.000      0.000
REMARK  Name = 
REMARK  8 active torsions:
REMARK  status: ('A' for Active; 'I' for Inactive)
REMARK    1  A    between atoms: P_2  and  O_3
REMARK    2  A    between atoms: P_2  and  O_4
REMARK    3  A    between atoms: P_2  and  C_5
REMARK    4  A    between atoms: C_5  and  O_6
REMARK    5  A    between atoms: C_5  and  C_7
REMARK    6  A    between atoms: C_5  and  P_13
REMARK    7  A    between atoms: P_13  and  O_15
REMARK    8  A    between atoms: P_13  and  O_16
REMARK                            x       y       z     vdW  Elec       q    Type
REMARK                         _______ _______ _______ _____ _____    ______ ____
ROOT
ATOM      1  C   UNL     1       5.651   4.816  17.168  0.00  0.00    +0.000 C 
ENDROOT
BRANCH   1   2
ATOM      2  C   UNL     1       4.148   5.318  17.059  0.00  0.00    +0.000 C 
ATOM      3  C   UNL     1       3.767   6.577  17.844  0.00  0.00    +0.000 C 
ATOM      4  C   UNL     1       3.152   6.336  19.224  0.00  0.00    +0.000 C 
ATOM      5  N   UNL     1       2.052   5.377  19.224  0.00  0.00    +0.000 NA
ATOM      6  C   UNL     1       2.325   4.114  18.552  0.00  0.00    +0.000 C 
ATOM      7  C   UNL     1       3.021   4.250  17.189  0.00  0.00    +0.000 C 
ATOM      8  H   UNL     1       1.235   5.803  18.785  0.00  0.00    +0.000 HD
ENDBRANCH   1   2
BRANCH   1  10
ATOM      9  O   UNL     1       7.397   5.492  19.979  0.00  0.00    +0.000 OA
ATOM     10  P   UNL     1       6.597   5.183  18.691  0.00  0.00    +0.000 P 
BRANCH  10  11
ATOM     11  O   UNL     1       7.833   4.203  18.180  0.00  0.00    +0.000 OA
ATOM     12  H   UNL     1       8.661   4.708  18.334  0.00  0.00    +0.000 HD
ENDBRANCH  10  11
BRANCH  10  13
ATOM     13  O   UNL     1       5.859   4.022  19.520  0.00  0.00    +0.000 OA
ATOM     14  H   UNL     1       4.942   3.935  19.182  0.00  0.00    +0.000 HD
ENDBRANCH  10  13
ENDBRANCH   1  10
BRANCH   1  15
ATOM     15  O   UNL     1       5.492   3.329  17.051  0.00  0.00    +0.000 OA
ATOM     16  H   UNL     1       5.542   3.173  16.076  0.00  0.00    +0.000 HD
ENDBRANCH   1  15
BRANCH   1  17
ATOM     17  P   UNL     1       6.674   5.213  15.703  0.00  0.00    +0.000 P 
ATOM     18  O   UNL     1       5.502   5.898  15.000  0.00  0.00    +0.000 OA
BRANCH  17  19
ATOM     19  O   UNL     1       7.497   6.393  16.490  0.00  0.00    +0.000 OA
ATOM     20  H   UNL     1       7.163   6.468  17.411  0.00  0.00    +0.000 HD
ENDBRANCH  17  19
BRANCH  17  21
ATOM     21  O   UNL     1       7.642   5.588  14.319  0.00  0.00    +0.000 OA
ATOM     22  H   UNL     1       7.548   4.818  13.723  0.00  0.00    +0.000 HD
ENDBRANCH  17  21
ENDBRANCH   1  17
TORSDOF 8
ENDMDL
MODEL 2
REMARK VINA RESULT:      -6.1      0.789      1.077
REMARK  Name = 
REMARK  8 active torsions:
REMARK  status: ('A' for Active; 'I' for Inactive)
REMARK    1  A    between atoms: P_2  and  O_3
REMARK    2  A    between atoms: P_2  and  O_4
REMARK    3  A    between atoms: P_2  and  C_5
REMARK    4  A    between atoms: C_5  and  O_6
REMARK    5  A    between atoms: C_5  and  C_7
REMARK    6  A    between atoms: C_5  and  P_13
REMARK    7  A    between atoms: P_13  and  O_15
REMARK    8  A    between atoms: P_13  and  O_16
REMARK                            x       y       z     vdW  Elec       q    Type
REMARK                         _______ _______ _______ _____ _____    ______ ____
ROOT
ATOM      1  C   UNL     1       5.100   4.663  17.294  0.00  0.00    +0.000 C 
ENDROOT
BRANCH   1   2
ATOM      2  C   UNL     1       3.562   5.051  17.362  0.00  0.00    +0.000 C 
ATOM      3  C   UNL     1       3.183   6.295  18.172  0.00  0.00    +0.000 C 
ATOM      4  C   UNL     1       2.758   6.038  19.620  0.00  0.00    +0.000 C 
ATOM      5  N   UNL     1       1.742   5.001  19.764  0.00  0.00    +0.000 NA
ATOM      6  C   UNL     1       2.027   3.748  19.080  0.00  0.00    +0.000 C 
ATOM      7  C   UNL     1       2.542   3.906  17.641  0.00  0.00    +0.000 C 
ATOM      8  H   UNL     1       0.848   5.356  19.422  0.00  0.00    +0.000 HD
ENDBRANCH   1   2
BRANCH   1  10
ATOM      9  O   UNL     1       7.103   5.476  19.891  0.00  0.00    +0.000 OA
ATOM     10  P   UNL     1       6.185   5.104  18.700  0.00  0.00    +0.000 P 
BRANCH  10  11
ATOM     11  O   UNL     1       7.346   4.052  18.157  0.00  0.00    +0.000 OA
ATOM     12  H   UNL     1       6.864   3.263  17.828  0.00  0.00    +0.000 HD
ENDBRANCH  10  11
BRANCH  10  13
ATOM     13  O   UNL     1       5.493   4.027  19.671  0.00  0.00    +0.000 OA
ATOM     14  H   UNL     1       6.132   3.789  20.375  0.00  0.00    +0.000 HD
ENDBRANCH  10  13
ENDBRANCH   1  10
BRANCH   1  15
ATOM     15  O   UNL     1       5.041   3.168  17.187  0.00  0.00    +0.000 OA
ATOM     16  H   UNL     1       4.925   3.016  16.218  0.00  0.00    +0.000 HD
ENDBRANCH   1  15
BRANCH   1  17
ATOM     17  P   UNL     1       5.915   5.132  15.724  0.00  0.00    +0.000 P 
ATOM     18  O   UNL     1       6.877   6.080  16.442  0.00  0.00    +0.000 OA
BRANCH  17  19
ATOM     19  O   UNL     1       6.691   3.694  15.596  0.00  0.00    +0.000 OA
ATOM     20  H   UNL     1       6.553   3.326  14.696  0.00  0.00    +0.000 HD
ENDBRANCH  17  19
BRANCH  17  21
ATOM     21  O   UNL     1       6.686   5.576  14.240  0.00  0.00    +0.000 OA
ATOM     22  H   UNL     1       6.108   6.258  13.844  0.00  0.00    +0.000 HD
ENDBRANCH  17  21
ENDBRANCH   1  17
TORSDOF 8
ENDMDL
MODEL 3
REMARK VINA RESULT:      -6.0      0.738      1.155
REMARK  Name = 
REMARK  8 active torsions:
REMARK  status: ('A' for Active; 'I' for Inactive)
REMARK    1  A    between atoms: P_2  and  O_3
REMARK    2  A    between atoms: P_2  and  O_4
REMARK    3  A    between atoms: P_2  and  C_5
REMARK    4  A    between atoms: C_5  and  O_6
REMARK    5  A    between atoms: C_5  and  C_7
REMARK    6  A    between atoms: C_5  and  P_13
REMARK    7  A    between atoms: P_13  and  O_15
REMARK    8  A    between atoms: P_13  and  O_16
REMARK                            x       y       z     vdW  Elec       q    Type
REMARK                         _______ _______ _______ _____ _____    ______ ____
ROOT
ATOM      1  C   UNL     1       5.539   4.781  17.322  0.00  0.00    +0.000 C 
ENDROOT
BRANCH   1   2
ATOM      2  C   UNL     1       4.041   5.301  17.252  0.00  0.00    +0.000 C 
ATOM      3  C   UNL     1       3.652   6.458  18.177  0.00  0.00    +0.000 C 
ATOM      4  C   UNL     1       3.014   6.056  19.509  0.00  0.00    +0.000 C 
ATOM      5  N   UNL     1       1.911   5.110  19.376  0.00  0.00    +0.000 NA
ATOM      6  C   UNL     1       2.190   3.937  18.562  0.00  0.00    +0.000 C 
ATOM      7  C   UNL     1       2.907   4.231  17.235  0.00  0.00    +0.000 C 
ATOM      8  H   UNL     1       1.103   5.591  18.980  0.00  0.00    +0.000 HD
ENDBRANCH   1   2
BRANCH   1  10
ATOM      9  O   UNL     1       7.401   5.530  20.040  0.00  0.00    +0.000 OA
ATOM     10  P   UNL     1       6.547   5.187  18.794  0.00  0.00    +0.000 P 
BRANCH  10  11
ATOM     11  O   UNL     1       7.116   6.556  18.050  0.00  0.00    +0.000 OA
ATOM     12  H   UNL     1       7.234   6.320  17.104  0.00  0.00    +0.000 HD
ENDBRANCH  10  11
BRANCH  10  13
ATOM     13  O   UNL     1       7.770   4.268  18.305  0.00  0.00    +0.000 OA
ATOM     14  H   UNL     1       7.437   3.646  17.624  0.00  0.00    +0.000 HD
ENDBRANCH  10  13
ENDBRANCH   1  10
BRANCH   1  15
ATOM     15  O   UNL     1       5.356   3.293  17.264  0.00  0.00    +0.000 OA
ATOM     16  H   UNL     1       5.665   2.994  18.154  0.00  0.00    +0.000 HD
ENDBRANCH   1  15
BRANCH   1  17
ATOM     17  P   UNL     1       6.511   5.112  15.807  0.00  0.00    +0.000 P 
ATOM     18  O   UNL     1       5.945   3.876  15.106  0.00  0.00    +0.000 OA
BRANCH  17  19
ATOM     19  O   UNL     1       5.560   6.372  15.367  0.00  0.00    +0.000 OA
ATOM     20  H   UNL     1       5.774   7.154  15.922  0.00  0.00    +0.000 HD
ENDBRANCH  17  19
BRANCH  17  21
ATOM     21  O   UNL     1       7.431   5.424  14.375  0.00  0.00    +0.000 OA
ATOM     22  H   UNL     1       7.923   4.597  14.201  0.00  0.00    +0.000 HD
ENDBRANCH  17  21
ENDBRANCH   1  17
TORSDOF 8
ENDMDL
MODEL 4
REMARK VINA RESULT:      -6.0      1.290      3.209
REMARK  Name = 
REMARK  8 active torsions:
REMARK  status: ('A' for Active; 'I' for Inactive)
REMARK    1  A    between atoms: P_2  and  O_3
REMARK    2  A    between atoms: P_2  and  O_4
REMARK    3  A    between atoms: P_2  and  C_5
REMARK    4  A    between atoms: C_5  and  O_6
REMARK    5  A    between atoms: C_5  and  C_7
REMARK    6  A    between atoms: C_5  and  P_13
REMARK    7  A    between atoms: P_13  and  O_15
REMARK    8  A    between atoms: P_13  and  O_16
REMARK                            x       y       z     vdW  Elec       q    Type
REMARK                         _______ _______ _______ _____ _____    ______ ____
ROOT
ATOM      1  C   UNL     1       5.815   5.602  17.378  0.00  0.00    +0.000 C 
ENDROOT
BRANCH   1   2
ATOM      2  C   UNL     1       4.340   5.048  17.572  0.00  0.00    +0.000 C 
ATOM      3  C   UNL     1       3.326   5.967  18.260  0.00  0.00    +0.000 C 
ATOM      4  C   UNL     1       3.159   5.758  19.767  0.00  0.00    +0.000 C 
ATOM      5  N   UNL     1       2.939   4.368  20.152  0.00  0.00    +0.000 NA
ATOM      6  C   UNL     1       3.885   3.410  19.600  0.00  0.00    +0.000 C 
ATOM      7  C   UNL     1       4.182   3.591  18.103  0.00  0.00    +0.000 C 
ATOM      8  H   UNL     1       1.999   4.087  19.872  0.00  0.00    +0.000 HD
ENDBRANCH   1   2
BRANCH   1  10
ATOM      9  O   UNL     1       7.588   4.613  14.679  0.00  0.00    +0.000 OA
ATOM     10  P   UNL     1       6.776   5.066  15.916  0.00  0.00    +0.000 P 
BRANCH  10  11
ATOM     11  O   UNL     1       7.753   6.400  16.047  0.00  0.00    +0.000 OA
ATOM     12  H   UNL     1       8.578   6.179  15.563  0.00  0.00    +0.000 HD
ENDBRANCH  10  11
BRANCH  10  13
ATOM     13  O   UNL     1       5.755   5.765  14.894  0.00  0.00    +0.000 OA
ATOM     14  H   UNL     1       5.078   6.249  15.413  0.00  0.00    +0.000 HD
ENDBRANCH  10  13
ENDBRANCH   1  10
BRANCH   1  15
ATOM     15  O   UNL     1       5.583   7.081  17.281  0.00  0.00    +0.000 OA
ATOM     16  H   UNL     1       6.217   7.453  17.941  0.00  0.00    +0.000 HD
ENDBRANCH   1  15
BRANCH   1  17
ATOM     17  P   UNL     1       6.860   5.472  18.876  0.00  0.00    +0.000 P 
ATOM     18  O   UNL     1       7.748   4.406  18.232  0.00  0.00    +0.000 OA
BRANCH  17  19
ATOM     19  O   UNL     1       7.590   6.914  18.598  0.00  0.00    +0.000 OA
ATOM     20  H   UNL     1       7.107   7.624  19.075  0.00  0.00    +0.000 HD
ENDBRANCH  17  19
BRANCH  17  21
ATOM     21  O   UNL     1       7.847   5.349  20.291  0.00  0.00    +0.000 OA
ATOM     22  H   UNL     1       7.723   6.196  20.766  0.00  0.00    +0.000 HD
ENDBRANCH  17  21
ENDBRANCH   1  17
TORSDOF 8
ENDMDL
MODEL 5
REMARK VINA RESULT:      -6.0      1.463      1.864
REMARK  Name = 
REMARK  8 active torsions:
REMARK  status: ('A' for Active; 'I' for Inactive)
REMARK    1  A    between atoms: P_2  and  O_3
REMARK    2  A    between atoms: P_2  and  O_4
REMARK    3  A    between atoms: P_2  and  C_5
REMARK    4  A    between atoms: C_5  and  O_6
REMARK    5  A    between atoms: C_5  and  C_7
REMARK    6  A    between atoms: C_5  and  P_13
REMARK    7  A    between atoms: P_13  and  O_15
REMARK    8  A    between atoms: P_13  and  O_16
REMARK                            x       y       z     vdW  Elec       q    Type
REMARK                         _______ _______ _______ _____ _____    ______ ____
ROOT
ATOM      1  C   UNL     1       4.651   4.465  17.434  0.00  0.00    +0.000 C 
ENDROOT
BRANCH   1   2
ATOM      2  C   UNL     1       3.108   4.202  17.702  0.00  0.00    +0.000 C 
ATOM      3  C   UNL     1       2.464   4.927  18.888  0.00  0.00    +0.000 C 
ATOM      4  C   UNL     1       2.403   4.134  20.195  0.00  0.00    +0.000 C 
ATOM      5  N   UNL     1       1.849   2.793  20.049  0.00  0.00    +0.000 NA
ATOM      6  C   UNL     1       2.430   1.989  18.985  0.00  0.00    +0.000 C 
ATOM      7  C   UNL     1       2.610   2.726  17.648  0.00  0.00    +0.000 C 
ATOM      8  H   UNL     1       0.843   2.861  19.886  0.00  0.00    +0.000 HD
ENDBRANCH   1   2
BRANCH   1  10
ATOM      9  O   UNL     1       6.696   4.993  20.070  0.00  0.00    +0.000 OA
ATOM     10  P   UNL     1       5.759   4.752  18.862  0.00  0.00    +0.000 P 
BRANCH  10  11
ATOM     11  O   UNL     1       7.070   4.283  17.962  0.00  0.00    +0.000 OA
ATOM     12  H   UNL     1       7.482   5.111  17.631  0.00  0.00    +0.000 HD
ENDBRANCH  10  11
BRANCH  10  13
ATOM     13  O   UNL     1       5.494   3.285  19.460  0.00  0.00    +0.000 OA
ATOM     14  H   UNL     1       5.891   3.239  20.355  0.00  0.00    +0.000 HD
ENDBRANCH  10  13
ENDBRANCH   1  10
BRANCH   1  15
ATOM     15  O   UNL     1       5.070   3.197  16.751  0.00  0.00    +0.000 OA
ATOM     16  H   UNL     1       5.167   2.560  17.500  0.00  0.00    +0.000 HD
ENDBRANCH   1  15
BRANCH   1  17
ATOM     17  P   UNL     1       4.977   5.725  16.147  0.00  0.00    +0.000 P 
ATOM     18  O   UNL     1       5.716   6.627  17.137  0.00  0.00    +0.000 OA
BRANCH  17  19
ATOM     19  O   UNL     1       6.120   4.806  15.414  0.00  0.00    +0.000 OA
ATOM     20  H   UNL     1       7.012   5.150  15.641  0.00  0.00    +0.000 HD
ENDBRANCH  17  19
BRANCH  17  21
ATOM     21  O   UNL     1       5.285   6.916  14.930  0.00  0.00    +0.000 OA
ATOM     22  H   UNL     1       5.802   7.614  15.379  0.00  0.00    +0.000 HD
ENDBRANCH  17  21
ENDBRANCH   1  17
TORSDOF 8
ENDMDL
MODEL 6
REMARK VINA RESULT:      -5.9      1.394      3.450
REMARK  Name = 
REMARK  8 active torsions:
REMARK  status: ('A' for Active; 'I' for Inactive)
REMARK    1  A    between atoms: P_2  and  O_3
REMARK    2  A    between atoms: P_2  and  O_4
REMARK    3  A    between atoms: P_2  and  C_5
REMARK    4  A    between atoms: C_5  and  O_6
REMARK    5  A    between atoms: C_5  and  C_7
REMARK    6  A    between atoms: C_5  and  P_13
REMARK    7  A    between atoms: P_13  and  O_15
REMARK    8  A    between atoms: P_13  and  O_16
REMARK                            x       y       z     vdW  Elec       q    Type
REMARK                         _______ _______ _______ _____ _____    ______ ____
ROOT
ATOM      1  C   UNL     1       5.662   5.247  17.627  0.00  0.00    +0.000 C 
ENDROOT
BRANCH   1   2
ATOM      2  C   UNL     1       4.493   4.548  18.443  0.00  0.00    +0.000 C 
ATOM      3  C   UNL     1       4.041   3.160  17.978  0.00  0.00    +0.000 C 
ATOM      4  C   UNL     1       2.837   3.138  17.035  0.00  0.00    +0.000 C 
ATOM      5  N   UNL     1       1.698   3.918  17.508  0.00  0.00    +0.000 NA
ATOM      6  C   UNL     1       2.004   5.279  17.923  0.00  0.00    +0.000 C 
ATOM      7  C   UNL     1       3.251   5.415  18.810  0.00  0.00    +0.000 C 
ATOM      8  H   UNL     1       1.263   3.434  18.295  0.00  0.00    +0.000 HD
ENDBRANCH   1   2
BRANCH   1  10
ATOM      9  O   UNL     1       6.586   3.936  14.654  0.00  0.00    +0.000 OA
ATOM     10  P   UNL     1       6.163   4.537  16.016  0.00  0.00    +0.000 P 
BRANCH  10  11
ATOM     11  O   UNL     1       7.346   5.688  15.856  0.00  0.00    +0.000 OA
ATOM     12  H   UNL     1       8.107   5.369  16.387  0.00  0.00    +0.000 HD
ENDBRANCH  10  11
BRANCH  10  13
ATOM     13  O   UNL     1       5.061   5.385  15.213  0.00  0.00    +0.000 OA
ATOM     14  H   UNL     1       4.831   4.897  14.394  0.00  0.00    +0.000 HD
ENDBRANCH  10  13
ENDBRANCH   1  10
BRANCH   1  15
ATOM     15  O   UNL     1       5.099   6.618  17.389  0.00  0.00    +0.000 OA
ATOM     16  H   UNL     1       5.900   7.155  17.173  0.00  0.00    +0.000 HD
ENDBRANCH   1  15
BRANCH   1  17
ATOM     17  P   UNL     1       7.153   5.608  18.625  0.00  0.00    +0.000 P 
ATOM     18  O   UNL     1       6.451   5.202  19.922  0.00  0.00    +0.000 OA
BRANCH  17  19
ATOM     19  O   UNL     1       7.941   4.275  18.087  0.00  0.00    +0.000 OA
ATOM     20  H   UNL     1       7.447   3.882  17.335  0.00  0.00    +0.000 HD
ENDBRANCH  17  19
BRANCH  17  21
ATOM     21  O   UNL     1       8.563   5.949  19.568  0.00  0.00    +0.000 OA
ATOM     22  H   UNL     1       8.912   6.790  19.213  0.00  0.00    +0.000 HD
ENDBRANCH  17  21
ENDBRANCH   1  17
TORSDOF 8
ENDMDL
MODEL 7
REMARK VINA RESULT:      -5.9      1.563      3.339
REMARK  Name = 
REMARK  8 active torsions:
REMARK  status: ('A' for Active; 'I' for Inactive)
REMARK    1  A    between atoms: P_2  and  O_3
REMARK    2  A    between atoms: P_2  and  O_4
REMARK    3  A    between atoms: P_2  and  C_5
REMARK    4  A    between atoms: C_5  and  O_6
REMARK    5  A    between atoms: C_5  and  C_7
REMARK    6  A    between atoms: C_5  and  P_13
REMARK    7  A    between atoms: P_13  and  O_15
REMARK    8  A    between atoms: P_13  and  O_16
REMARK                            x       y       z     vdW  Elec       q    Type
REMARK                         _______ _______ _______ _____ _____    ______ ____
ROOT
ATOM      1  C   UNL     1       5.855   5.698  17.578  0.00  0.00    +0.000 C 
ENDROOT
BRANCH   1   2
ATOM      2  C   UNL     1       4.401   5.383  18.133  0.00  0.00    +0.000 C 
ATOM      3  C   UNL     1       4.291   4.868  19.571  0.00  0.00    +0.000 C 
ATOM      4  C   UNL     1       4.231   3.347  19.727  0.00  0.00    +0.000 C 
ATOM      5  N   UNL     1       3.240   2.702  18.872  0.00  0.00    +0.000 NA
ATOM      6  C   UNL     1       3.291   3.075  17.466  0.00  0.00    +0.000 C 
ATOM      7  C   UNL     1       3.435   4.583  17.207  0.00  0.00    +0.000 C 
ATOM      8  H   UNL     1       2.306   2.911  19.226  0.00  0.00    +0.000 HD
ENDBRANCH   1   2
BRANCH   1  10
ATOM      9  O   UNL     1       6.859   4.230  14.706  0.00  0.00    +0.000 OA
ATOM     10  P   UNL     1       6.399   4.903  16.023  0.00  0.00    +0.000 P 
BRANCH  10  11
ATOM     11  O   UNL     1       7.624   6.010  15.864  0.00  0.00    +0.000 OA
ATOM     12  H   UNL     1       7.731   6.158  14.900  0.00  0.00    +0.000 HD
ENDBRANCH  10  11
BRANCH  10  13
ATOM     13  O   UNL     1       5.359   5.748  15.138  0.00  0.00    +0.000 OA
ATOM     14  H   UNL     1       5.429   6.692  15.394  0.00  0.00    +0.000 HD
ENDBRANCH  10  13
ENDBRANCH   1  10
BRANCH   1  15
ATOM     15  O   UNL     1       5.791   7.181  17.360  0.00  0.00    +0.000 OA
ATOM     16  H   UNL     1       6.348   7.314  16.554  0.00  0.00    +0.000 HD
ENDBRANCH   1  15
BRANCH   1  17
ATOM     17  P   UNL     1       7.178   5.549  18.835  0.00  0.00    +0.000 P 
ATOM     18  O   UNL     1       7.874   4.436  18.051  0.00  0.00    +0.000 OA
BRANCH  17  19
ATOM     19  O   UNL     1       7.890   6.953  18.378  0.00  0.00    +0.000 OA
ATOM     20  H   UNL     1       8.630   6.760  17.761  0.00  0.00    +0.000 HD
ENDBRANCH  17  19
BRANCH  17  21
ATOM     21  O   UNL     1       8.428   5.407  20.023  0.00  0.00    +0.000 OA
ATOM     22  H   UNL     1       8.353   6.213  20.572  0.00  0.00    +0.000 HD
ENDBRANCH  17  21
ENDBRANCH   1  17
TORSDOF 8
ENDMDL
MODEL 8
REMARK VINA RESULT:      -5.9      1.323      1.947
REMARK  Name = 
REMARK  8 active torsions:
REMARK  status: ('A' for Active; 'I' for Inactive)
REMARK    1  A    between atoms: P_2  and  O_3
REMARK    2  A    between atoms: P_2  and  O_4
REMARK    3  A    between atoms: P_2  and  C_5
REMARK    4  A    between atoms: C_5  and  O_6
REMARK    5  A    between atoms: C_5  and  C_7
REMARK    6  A    between atoms: C_5  and  P_13
REMARK    7  A    between atoms: P_13  and  O_15
REMARK    8  A    between atoms: P_13  and  O_16
REMARK                            x       y       z     vdW  Elec       q    Type
REMARK                         _______ _______ _______ _____ _____    ______ ____
ROOT
ATOM      1  C   UNL     1       5.424   4.836  18.036  0.00  0.00    +0.000 C 
ENDROOT
BRANCH   1   2
ATOM      2  C   UNL     1       4.073   5.268  18.750  0.00  0.00    +0.000 C 
ATOM      3  C   UNL     1       3.635   4.463  19.977  0.00  0.00    +0.000 C 
ATOM      4  C   UNL     1       2.645   3.328  19.705  0.00  0.00    +0.000 C 
ATOM      5  N   UNL     1       1.488   3.728  18.913  0.00  0.00    +0.000 NA
ATOM      6  C   UNL     1       1.790   4.453  17.687  0.00  0.00    +0.000 C 
ATOM      7  C   UNL     1       2.841   5.564  17.842  0.00  0.00    +0.000 C 
ATOM      8  H   UNL     1       0.873   4.308  19.485  0.00  0.00    +0.000 HD
ENDBRANCH   1   2
BRANCH   1  10
ATOM      9  O   UNL     1       8.280   6.452  18.837  0.00  0.00    +0.000 OA
ATOM     10  P   UNL     1       6.971   5.712  18.469  0.00  0.00    +0.000 P 
BRANCH  10  11
ATOM     11  O   UNL     1       7.863   4.374  18.063  0.00  0.00    +0.000 OA
ATOM     12  H   UNL     1       8.664   4.401  18.629  0.00  0.00    +0.000 HD
ENDBRANCH  10  11
BRANCH  10  13
ATOM     13  O   UNL     1       6.853   5.310  20.020  0.00  0.00    +0.000 OA
ATOM     14  H   UNL     1       6.353   6.014  20.485  0.00  0.00    +0.000 HD
ENDBRANCH  10  13
ENDBRANCH   1  10
BRANCH   1  15
ATOM     15  O   UNL     1       5.553   3.402  18.454  0.00  0.00    +0.000 OA
ATOM     16  H   UNL     1       6.292   3.424  19.110  0.00  0.00    +0.000 HD
ENDBRANCH   1  15
BRANCH   1  17
ATOM     17  P   UNL     1       5.290   4.699  16.215  0.00  0.00    +0.000 P 
ATOM     18  O   UNL     1       6.376   5.754  16.000  0.00  0.00    +0.000 OA
BRANCH  17  19
ATOM     19  O   UNL     1       6.045   3.244  16.183  0.00  0.00    +0.000 OA
ATOM     20  H   UNL     1       6.610   3.185  15.381  0.00  0.00    +0.000 HD
ENDBRANCH  17  19
BRANCH  17  21
ATOM     21  O   UNL     1       5.164   4.569  14.495  0.00  0.00    +0.000 OA
ATOM     22  H   UNL     1       5.431   5.445  14.151  0.00  0.00    +0.000 HD
ENDBRANCH  17  21
ENDBRANCH   1  17
TORSDOF 8
ENDMDL
MODEL 9
REMARK VINA RESULT:      -5.9      3.691      5.267
REMARK  Name = 
REMARK  8 active torsions:
REMARK  status: ('A' for Active; 'I' for Inactive)
REMARK    1  A    between atoms: P_2  and  O_3
REMARK    2  A    between atoms: P_2  and  O_4
REMARK    3  A    between atoms: P_2  and  C_5
REMARK    4  A    between atoms: C_5  and  O_6
REMARK    5  A    between atoms: C_5  and  C_7
REMARK    6  A    between atoms: C_5  and  P_13
REMARK    7  A    between atoms: P_13  and  O_15
REMARK    8  A    between atoms: P_13  and  O_16
REMARK                            x       y       z     vdW  Elec       q    Type
REMARK                         _______ _______ _______ _____ _____    ______ ____
ROOT
ATOM      1  C   UNL     1       3.528   3.255  18.587  0.00  0.00    +0.000 C 
ENDROOT
BRANCH   1   2
ATOM      2  C   UNL     1       4.084   4.693  18.207  0.00  0.00    +0.000 C 
ATOM      3  C   UNL     1       4.720   4.861  16.824  0.00  0.00    +0.000 C 
ATOM      4  C   UNL     1       6.243   4.713  16.774  0.00  0.00    +0.000 C 
ATOM      5  N   UNL     1       6.950   5.516  17.766  0.00  0.00    +0.000 NA
ATOM      6  C   UNL     1       6.464   5.390  19.132  0.00  0.00    +0.000 C 
ATOM      7  C   UNL     1       4.935   5.442  19.277  0.00  0.00    +0.000 C 
ATOM      8  H   UNL     1       6.901   6.500  17.499  0.00  0.00    +0.000 HD
ENDBRANCH   1   2
BRANCH   1  10
ATOM      9  O   UNL     1       0.207   2.864  19.061  0.00  0.00    +0.000 OA
ATOM     10  P   UNL     1       1.729   3.043  18.845  0.00  0.00    +0.000 P 
BRANCH  10  11
ATOM     11  O   UNL     1       1.819   1.477  18.306  0.00  0.00    +0.000 OA
ATOM     12  H   UNL     1       1.311   1.451  17.466  0.00  0.00    +0.000 HD
ENDBRANCH  10  11
BRANCH  10  13
ATOM     13  O   UNL     1       1.374   3.647  17.399  0.00  0.00    +0.000 OA
ATOM     14  H   UNL     1       2.164   3.560  16.825  0.00  0.00    +0.000 HD
ENDBRANCH  10  13
ENDBRANCH   1  10
BRANCH   1  15
ATOM     15  O   UNL     1       3.941   2.437  17.399  0.00  0.00    +0.000 OA
ATOM     16  H   UNL     1       3.167   2.519  16.790  0.00  0.00    +0.000 HD
ENDBRANCH   1  15
BRANCH   1  17
ATOM     17  P   UNL     1       4.440   2.444  19.951  0.00  0.00    +0.000 P 
ATOM     18  O   UNL     1       3.186   2.377  20.824  0.00  0.00    +0.000 OA
BRANCH  17  19
ATOM     19  O   UNL     1       4.528   1.012  19.157  0.00  0.00    +0.000 OA
ATOM     20  H   UNL     1       3.700   0.868  18.648  0.00  0.00    +0.000 HD
ENDBRANCH  17  19
BRANCH  17  21
ATOM     21  O   UNL     1       5.301   1.676  21.241  0.00  0.00    +0.000 OA
ATOM     22  H   UNL     1       4.919   0.778  21.306  0.00  0.00    +0.000 HD
ENDBRANCH  17  21
ENDBRANCH   1  17
TORSDOF 8
ENDMDL
