MODEL 1
REMARK VINA RESULT:      -6.8      0.000      0.000
REMARK  Name = 
REMARK  7 active torsions:
REMARK  status: ('A' for Active; 'I' for Inactive)
REMARK    1  A    between atoms: C_1  and  O_2
REMARK    2  A    between atoms: O_2  and  C_3
REMARK    3  A    between atoms: C_3  and  C_4
REMARK    4  A    between atoms: C_4  and  N_5
REMARK    5  A    between atoms: C_13  and  N_14
REMARK    6  A    between atoms: N_14  and  C_15
REMARK    7  A    between atoms: C_15  and  C_16
REMARK                            x       y       z     vdW  Elec       q    Type
REMARK                         _______ _______ _______ _____ _____    ______ ____
ROOT
ATOM      1  N   UNL     1       3.851   4.033  18.206  0.00  0.00    +0.000 N 
ATOM      2  C   UNL     1       3.224   2.810  17.981  0.00  0.00    +0.000 C 
ATOM      3  O   UNL     1       3.773   1.729  17.827  0.00  0.00    +0.000 OA
ATOM      4  C   UNL     1       1.738   3.043  17.975  0.00  0.00    +0.000 C 
ATOM      5  C   UNL     1       1.633   4.565  17.870  0.00  0.00    +0.000 C 
ATOM      6  C   UNL     1       2.892   5.078  18.592  0.00  0.00    +0.000 C 
ATOM      7  C   UNL     1       3.299   6.482  18.115  0.00  0.00    +0.000 C 
ATOM      8  C   UNL     1       2.299   7.565  18.513  0.00  0.00    +0.000 C 
ATOM      9  C   UNL     1       2.101   7.623  20.035  0.00  0.00    +0.000 C 
ATOM     10  C   UNL     1       1.725   6.235  20.584  0.00  0.00    +0.000 C 
ATOM     11  C   UNL     1       2.634   5.091  20.116  0.00  0.00    +0.000 C 
ENDROOT
BRANCH   9  12
ATOM     12  N   UNL     1       1.071   8.634  20.329  0.00  0.00    +0.000 NA
ATOM     13  H   UNL     1       1.262   9.483  19.791  0.00  0.00    +0.000 HD
BRANCH  12  14
ATOM     14  C   UNL     1       1.041   9.017  21.751  0.00  0.00    +0.000 C 
BRANCH  14  15
ATOM     15  C   UNL     1       0.088  10.153  22.018  0.00  0.00    +0.000 A 
ATOM     16  N   UNL     1      -0.370  10.483  23.210  0.00  0.00    +0.000 NA
ATOM     17  C   UNL     1      -1.289  11.507  23.085  0.00  0.00    +0.000 A 
ATOM     18  C   UNL     1      -1.510  11.960  21.804  0.00  0.00    +0.000 A 
ATOM     19  S   UNL     1      -0.533  11.084  20.704  0.00  0.00    +0.000 S 
ENDBRANCH  14  15
ENDBRANCH  12  14
ENDBRANCH   9  12
BRANCH   1  20
ATOM     20  C   UNL     1       5.309   4.125  18.299  0.00  0.00    +0.000 C 
BRANCH  20  21
ATOM     21  C   UNL     1       6.023   4.176  16.933  0.00  0.00    +0.000 C 
BRANCH  21  23
ATOM     22  C   UNL     1       5.601   4.338  14.584  0.00  0.00    +0.000 C 
ATOM     23  O   UNL     1       5.148   4.632  15.897  0.00  0.00    +0.000 OA
ENDBRANCH  21  23
ENDBRANCH  20  21
ENDBRANCH   1  20
TORSDOF 6
ENDMDL
MODEL 2
REMARK VINA RESULT:      -6.6      1.847      2.107
REMARK  Name = 
REMARK  7 active torsions:
REMARK  status: ('A' for Active; 'I' for Inactive)
REMARK    1  A    between atoms: C_1  and  O_2
REMARK    2  A    between atoms: O_2  and  C_3
REMARK    3  A    between atoms: C_3  and  C_4
REMARK    4  A    between atoms: C_4  and  N_5
REMARK    5  A    between atoms: C_13  and  N_14
REMARK    6  A    between atoms: N_14  and  C_15
REMARK    7  A    between atoms: C_15  and  C_16
REMARK                            x       y       z     vdW  Elec       q    Type
REMARK                         _______ _______ _______ _____ _____    ______ ____
ROOT
ATOM      1  N   UNL     1       3.841   4.037  18.439  0.00  0.00    +0.000 N 
ATOM      2  C   UNL     1       3.187   2.831  18.192  0.00  0.00    +0.000 C 
ATOM      3  O   UNL     1       3.702   1.725  18.132  0.00  0.00    +0.000 OA
ATOM      4  C   UNL     1       1.721   3.123  18.025  0.00  0.00    +0.000 C 
ATOM      5  C   UNL     1       1.693   4.642  17.858  0.00  0.00    +0.000 C 
ATOM      6  C   UNL     1       2.893   5.133  18.689  0.00  0.00    +0.000 C 
ATOM      7  C   UNL     1       3.407   6.500  18.208  0.00  0.00    +0.000 C 
ATOM      8  C   UNL     1       2.419   7.636  18.465  0.00  0.00    +0.000 C 
ATOM      9  C   UNL     1       2.070   7.760  19.955  0.00  0.00    +0.000 C 
ATOM     10  C   UNL     1       1.581   6.410  20.510  0.00  0.00    +0.000 C 
ATOM     11  C   UNL     1       2.482   5.214  20.176  0.00  0.00    +0.000 C 
ENDROOT
BRANCH   9  12
ATOM     12  N   UNL     1       1.060   8.821  20.107  0.00  0.00    +0.000 NA
ATOM     13  H   UNL     1       0.135   8.399  20.220  0.00  0.00    +0.000 HD
BRANCH  12  14
ATOM     14  C   UNL     1       0.992   9.712  18.937  0.00  0.00    +0.000 C 
BRANCH  14  15
ATOM     15  C   UNL     1      -0.255  10.558  18.933  0.00  0.00    +0.000 A 
ATOM     16  N   UNL     1      -0.492  11.549  19.771  0.00  0.00    +0.000 NA
ATOM     17  C   UNL     1      -1.760  12.049  19.549  0.00  0.00    +0.000 A 
ATOM     18  C   UNL     1      -2.471  11.450  18.534  0.00  0.00    +0.000 A 
ATOM     19  S   UNL     1      -1.526  10.214  17.818  0.00  0.00    +0.000 S 
ENDBRANCH  14  15
ENDBRANCH  12  14
ENDBRANCH   9  12
BRANCH   1  20
ATOM     20  C   UNL     1       5.284   4.075  18.679  0.00  0.00    +0.000 C 
BRANCH  20  21
ATOM     21  C   UNL     1       6.119   4.409  17.426  0.00  0.00    +0.000 C 
BRANCH  21  23
ATOM     22  C   UNL     1       7.646   5.940  18.450  0.00  0.00    +0.000 C 
ATOM     23  O   UNL     1       7.477   4.709  17.761  0.00  0.00    +0.000 OA
ENDBRANCH  21  23
ENDBRANCH  20  21
ENDBRANCH   1  20
TORSDOF 6
ENDMDL
MODEL 3
REMARK VINA RESULT:      -6.6      0.956      1.249
REMARK  Name = 
REMARK  7 active torsions:
REMARK  status: ('A' for Active; 'I' for Inactive)
REMARK    1  A    between atoms: C_1  and  O_2
REMARK    2  A    between atoms: O_2  and  C_3
REMARK    3  A    between atoms: C_3  and  C_4
REMARK    4  A    between atoms: C_4  and  N_5
REMARK    5  A    between atoms: C_13  and  N_14
REMARK    6  A    between atoms: N_14  and  C_15
REMARK    7  A    between atoms: C_15  and  C_16
REMARK                            x       y       z     vdW  Elec       q    Type
REMARK                         _______ _______ _______ _____ _____    ______ ____
ROOT
ATOM      1  N   UNL     1       3.779   4.037  18.626  0.00  0.00    +0.000 N 
ATOM      2  C   UNL     1       3.138   2.838  18.326  0.00  0.00    +0.000 C 
ATOM      3  O   UNL     1       3.657   1.735  18.250  0.00  0.00    +0.000 OA
ATOM      4  C   UNL     1       1.676   3.131  18.122  0.00  0.00    +0.000 C 
ATOM      5  C   UNL     1       1.648   4.654  17.996  0.00  0.00    +0.000 C 
ATOM      6  C   UNL     1       2.820   5.124  18.877  0.00  0.00    +0.000 C 
ATOM      7  C   UNL     1       3.344   6.506  18.452  0.00  0.00    +0.000 C 
ATOM      8  C   UNL     1       2.345   7.631  18.710  0.00  0.00    +0.000 C 
ATOM      9  C   UNL     1       1.950   7.712  20.192  0.00  0.00    +0.000 C 
ATOM     10  C   UNL     1       1.449   6.346  20.692  0.00  0.00    +0.000 C 
ATOM     11  C   UNL     1       2.364   5.161  20.353  0.00  0.00    +0.000 C 
ENDROOT
BRANCH   9  12
ATOM     12  N   UNL     1       0.932   8.766  20.342  0.00  0.00    +0.000 NA
ATOM     13  H   UNL     1       1.321   9.662  20.039  0.00  0.00    +0.000 HD
BRANCH  12  14
ATOM     14  C   UNL     1       0.490   8.933  21.737  0.00  0.00    +0.000 C 
BRANCH  14  15
ATOM     15  C   UNL     1      -0.194  10.256  21.966  0.00  0.00    +0.000 A 
ATOM     16  N   UNL     1      -0.547  10.723  23.148  0.00  0.00    +0.000 NA
ATOM     17  C   UNL     1      -1.230  11.913  22.991  0.00  0.00    +0.000 A 
ATOM     18  C   UNL     1      -1.376  12.352  21.694  0.00  0.00    +0.000 A 
ATOM     19  S   UNL     1      -0.629  11.246  20.622  0.00  0.00    +0.000 S 
ENDBRANCH  14  15
ENDBRANCH  12  14
ENDBRANCH   9  12
BRANCH   1  20
ATOM     20  C   UNL     1       5.215   4.072  18.912  0.00  0.00    +0.000 C 
BRANCH  20  21
ATOM     21  C   UNL     1       6.088   4.431  17.692  0.00  0.00    +0.000 C 
BRANCH  21  23
ATOM     22  C   UNL     1       7.681   5.856  18.766  0.00  0.00    +0.000 C 
ATOM     23  O   UNL     1       6.640   5.746  17.806  0.00  0.00    +0.000 OA
ENDBRANCH  21  23
ENDBRANCH  20  21
ENDBRANCH   1  20
TORSDOF 6
ENDMDL
MODEL 4
REMARK VINA RESULT:      -6.6      3.987      7.639
REMARK  Name = 
REMARK  7 active torsions:
REMARK  status: ('A' for Active; 'I' for Inactive)
REMARK    1  A    between atoms: C_1  and  O_2
REMARK    2  A    between atoms: O_2  and  C_3
REMARK    3  A    between atoms: C_3  and  C_4
REMARK    4  A    between atoms: C_4  and  N_5
REMARK    5  A    between atoms: C_13  and  N_14
REMARK    6  A    between atoms: N_14  and  C_15
REMARK    7  A    between atoms: C_15  and  C_16
REMARK                            x       y       z     vdW  Elec       q    Type
REMARK                         _______ _______ _______ _____ _____    ______ ____
ROOT
ATOM      1  N   UNL     1       2.539   4.031  19.671  0.00  0.00    +0.000 N 
ATOM      2  C   UNL     1       1.674   3.085  19.127  0.00  0.00    +0.000 C 
ATOM      3  O   UNL     1       0.616   2.707  19.607  0.00  0.00    +0.000 OA
ATOM      4  C   UNL     1       2.261   2.613  17.825  0.00  0.00    +0.000 C 
ATOM      5  C   UNL     1       3.696   3.135  17.888  0.00  0.00    +0.000 C 
ATOM      6  C   UNL     1       3.587   4.428  18.719  0.00  0.00    +0.000 C 
ATOM      7  C   UNL     1       4.918   4.791  19.398  0.00  0.00    +0.000 C 
ATOM      8  C   UNL     1       6.006   5.198  18.406  0.00  0.00    +0.000 C 
ATOM      9  C   UNL     1       5.572   6.395  17.547  0.00  0.00    +0.000 C 
ATOM     10  C   UNL     1       4.223   6.109  16.865  0.00  0.00    +0.000 C 
ATOM     11  C   UNL     1       3.127   5.584  17.802  0.00  0.00    +0.000 C 
ENDROOT
BRANCH   9  12
ATOM     12  N   UNL     1       6.639   6.674  16.570  0.00  0.00    +0.000 NA
ATOM     13  H   UNL     1       6.224   6.988  15.690  0.00  0.00    +0.000 HD
BRANCH  12  14
ATOM     14  C   UNL     1       7.457   5.488  16.268  0.00  0.00    +0.000 C 
BRANCH  14  15
ATOM     15  C   UNL     1       7.232   4.980  14.867  0.00  0.00    +0.000 A 
ATOM     16  N   UNL     1       7.854   5.435  13.796  0.00  0.00    +0.000 NA
ATOM     17  C   UNL     1       7.348   4.816  12.670  0.00  0.00    +0.000 A 
ATOM     18  C   UNL     1       6.359   3.884  12.892  0.00  0.00    +0.000 A 
ATOM     19  S   UNL     1       6.046   3.762  14.571  0.00  0.00    +0.000 S 
ENDBRANCH  14  15
ENDBRANCH  12  14
ENDBRANCH   9  12
BRANCH   1  20
ATOM     20  C   UNL     1       2.223   4.704  20.932  0.00  0.00    +0.000 C 
BRANCH  20  21
ATOM     21  C   UNL     1       1.261   5.900  20.780  0.00  0.00    +0.000 C 
BRANCH  21  23
ATOM     22  C   UNL     1       1.278   8.286  20.959  0.00  0.00    +0.000 C 
ATOM     23  O   UNL     1       1.970   7.119  20.537  0.00  0.00    +0.000 OA
ENDBRANCH  21  23
ENDBRANCH  20  21
ENDBRANCH   1  20
TORSDOF 6
ENDMDL
MODEL 5
REMARK VINA RESULT:      -6.5      2.142      2.624
REMARK  Name = 
REMARK  7 active torsions:
REMARK  status: ('A' for Active; 'I' for Inactive)
REMARK    1  A    between atoms: C_1  and  O_2
REMARK    2  A    between atoms: O_2  and  C_3
REMARK    3  A    between atoms: C_3  and  C_4
REMARK    4  A    between atoms: C_4  and  N_5
REMARK    5  A    between atoms: C_13  and  N_14
REMARK    6  A    between atoms: N_14  and  C_15
REMARK    7  A    between atoms: C_15  and  C_16
REMARK                            x       y       z     vdW  Elec       q    Type
REMARK                         _______ _______ _______ _____ _____    ______ ____
ROOT
ATOM      1  N   UNL     1       3.869   4.367  18.528  0.00  0.00    +0.000 N 
ATOM      2  C   UNL     1       3.266   3.132  18.302  0.00  0.00    +0.000 C 
ATOM      3  O   UNL     1       3.822   2.045  18.280  0.00  0.00    +0.000 OA
ATOM      4  C   UNL     1       1.793   3.364  18.100  0.00  0.00    +0.000 C 
ATOM      5  C   UNL     1       1.711   4.876  17.892  0.00  0.00    +0.000 C 
ATOM      6  C   UNL     1       2.876   5.433  18.731  0.00  0.00    +0.000 C 
ATOM      7  C   UNL     1       3.348   6.806  18.224  0.00  0.00    +0.000 C 
ATOM      8  C   UNL     1       2.313   7.910  18.433  0.00  0.00    +0.000 C 
ATOM      9  C   UNL     1       1.932   8.059  19.913  0.00  0.00    +0.000 C 
ATOM     10  C   UNL     1       1.483   6.706  20.494  0.00  0.00    +0.000 C 
ATOM     11  C   UNL     1       2.434   5.537  20.208  0.00  0.00    +0.000 C 
ENDROOT
BRANCH   9  12
ATOM     12  N   UNL     1       0.880   9.085  20.018  0.00  0.00    +0.000 NA
ATOM     13  H   UNL     1      -0.039   8.636  19.998  0.00  0.00    +0.000 HD
BRANCH  12  14
ATOM     14  C   UNL     1       0.916  10.051  18.908  0.00  0.00    +0.000 C 
BRANCH  14  15
ATOM     15  C   UNL     1      -0.461  10.389  18.397  0.00  0.00    +0.000 A 
ATOM     16  N   UNL     1      -1.119   9.685  17.496  0.00  0.00    +0.000 NA
ATOM     17  C   UNL     1      -2.306  10.321  17.189  0.00  0.00    +0.000 A 
ATOM     18  C   UNL     1      -2.551  11.492  17.871  0.00  0.00    +0.000 A 
ATOM     19  S   UNL     1      -1.257  11.818  18.944  0.00  0.00    +0.000 S 
ENDBRANCH  14  15
ENDBRANCH  12  14
ENDBRANCH   9  12
BRANCH   1  20
ATOM     20  C   UNL     1       5.305   4.466  18.793  0.00  0.00    +0.000 C 
BRANCH  20  21
ATOM     21  C   UNL     1       6.178   4.470  17.522  0.00  0.00    +0.000 C 
BRANCH  21  23
ATOM     22  C   UNL     1       7.647   5.654  18.993  0.00  0.00    +0.000 C 
ATOM     23  O   UNL     1       7.293   5.357  17.649  0.00  0.00    +0.000 OA
ENDBRANCH  21  23
ENDBRANCH  20  21
ENDBRANCH   1  20
TORSDOF 6
ENDMDL
MODEL 6
REMARK VINA RESULT:      -6.5      1.763      1.897
REMARK  Name = 
REMARK  7 active torsions:
REMARK  status: ('A' for Active; 'I' for Inactive)
REMARK    1  A    between atoms: C_1  and  O_2
REMARK    2  A    between atoms: O_2  and  C_3
REMARK    3  A    between atoms: C_3  and  C_4
REMARK    4  A    between atoms: C_4  and  N_5
REMARK    5  A    between atoms: C_13  and  N_14
REMARK    6  A    between atoms: N_14  and  C_15
REMARK    7  A    between atoms: C_15  and  C_16
REMARK                            x       y       z     vdW  Elec       q    Type
REMARK                         _______ _______ _______ _____ _____    ______ ____
ROOT
ATOM      1  N   UNL     1       3.827   4.164  18.353  0.00  0.00    +0.000 N 
ATOM      2  C   UNL     1       3.184   2.939  18.195  0.00  0.00    +0.000 C 
ATOM      3  O   UNL     1       3.712   1.839  18.168  0.00  0.00    +0.000 OA
ATOM      4  C   UNL     1       1.707   3.202  18.075  0.00  0.00    +0.000 C 
ATOM      5  C   UNL     1       1.648   4.710  17.833  0.00  0.00    +0.000 C 
ATOM      6  C   UNL     1       2.873   5.259  18.588  0.00  0.00    +0.000 C 
ATOM      7  C   UNL     1       3.345   6.607  18.019  0.00  0.00    +0.000 C 
ATOM      8  C   UNL     1       2.351   7.741  18.259  0.00  0.00    +0.000 C 
ATOM      9  C   UNL     1       2.062   7.935  19.755  0.00  0.00    +0.000 C 
ATOM     10  C   UNL     1       1.617   6.608  20.396  0.00  0.00    +0.000 C 
ATOM     11  C   UNL     1       2.523   5.409  20.085  0.00  0.00    +0.000 C 
ENDROOT
BRANCH   9  12
ATOM     12  N   UNL     1       1.042   8.988  19.896  0.00  0.00    +0.000 NA
ATOM     13  H   UNL     1       0.118   8.560  19.988  0.00  0.00    +0.000 HD
BRANCH  12  14
ATOM     14  C   UNL     1       0.991   9.889  18.732  0.00  0.00    +0.000 C 
BRANCH  14  15
ATOM     15  C   UNL     1      -0.260  10.730  18.713  0.00  0.00    +0.000 A 
ATOM     16  N   UNL     1      -0.425  11.842  19.401  0.00  0.00    +0.000 NA
ATOM     17  C   UNL     1      -1.714  12.307  19.225  0.00  0.00    +0.000 A 
ATOM     18  C   UNL     1      -2.512  11.557  18.391  0.00  0.00    +0.000 A 
ATOM     19  S   UNL     1      -1.627  10.219  17.794  0.00  0.00    +0.000 S 
ENDBRANCH  14  15
ENDBRANCH  12  14
ENDBRANCH   9  12
BRANCH   1  20
ATOM     20  C   UNL     1       5.279   4.235  18.530  0.00  0.00    +0.000 C 
BRANCH  20  21
ATOM     21  C   UNL     1       6.068   4.324  17.208  0.00  0.00    +0.000 C 
BRANCH  21  23
ATOM     22  C   UNL     1       5.632   5.272  15.056  0.00  0.00    +0.000 C 
ATOM     23  O   UNL     1       5.196   4.386  16.076  0.00  0.00    +0.000 OA
ENDBRANCH  21  23
ENDBRANCH  20  21
ENDBRANCH   1  20
TORSDOF 6
ENDMDL
MODEL 7
REMARK VINA RESULT:      -6.4      1.619      1.840
REMARK  Name = 
REMARK  7 active torsions:
REMARK  status: ('A' for Active; 'I' for Inactive)
REMARK    1  A    between atoms: C_1  and  O_2
REMARK    2  A    between atoms: O_2  and  C_3
REMARK    3  A    between atoms: C_3  and  C_4
REMARK    4  A    between atoms: C_4  and  N_5
REMARK    5  A    between atoms: C_13  and  N_14
REMARK    6  A    between atoms: N_14  and  C_15
REMARK    7  A    between atoms: C_15  and  C_16
REMARK                            x       y       z     vdW  Elec       q    Type
REMARK                         _______ _______ _______ _____ _____    ______ ____
ROOT
ATOM      1  N   UNL     1       3.730   4.013  18.064  0.00  0.00    +0.000 N 
ATOM      2  C   UNL     1       3.072   2.787  18.006  0.00  0.00    +0.000 C 
ATOM      3  O   UNL     1       3.592   1.686  17.904  0.00  0.00    +0.000 OA
ATOM      4  C   UNL     1       1.593   3.047  18.108  0.00  0.00    +0.000 C 
ATOM      5  C   UNL     1       1.497   4.555  17.874  0.00  0.00    +0.000 C 
ATOM      6  C   UNL     1       2.820   5.107  18.435  0.00  0.00    +0.000 C 
ATOM      7  C   UNL     1       3.200   6.454  17.798  0.00  0.00    +0.000 C 
ATOM      8  C   UNL     1       2.251   7.587  18.182  0.00  0.00    +0.000 C 
ATOM      9  C   UNL     1       2.189   7.785  19.703  0.00  0.00    +0.000 C 
ATOM     10  C   UNL     1       1.847   6.460  20.407  0.00  0.00    +0.000 C 
ATOM     11  C   UNL     1       2.698   5.261  19.967  0.00  0.00    +0.000 C 
ENDROOT
BRANCH   9  12
ATOM     12  N   UNL     1       1.200   8.838  19.992  0.00  0.00    +0.000 NA
ATOM     13  H   UNL     1       0.276   8.416  20.113  0.00  0.00    +0.000 HD
BRANCH  12  14
ATOM     14  C   UNL     1       1.089   9.826  18.906  0.00  0.00    +0.000 C 
BRANCH  14  15
ATOM     15  C   UNL     1       0.162  10.962  19.258  0.00  0.00    +0.000 A 
ATOM     16  N   UNL     1      -1.004  10.819  19.857  0.00  0.00    +0.000 NA
ATOM     17  C   UNL     1      -1.632  12.047  19.945  0.00  0.00    +0.000 A 
ATOM     18  C   UNL     1      -0.933  13.115  19.429  0.00  0.00    +0.000 A 
ATOM     19  S   UNL     1       0.572  12.577  18.813  0.00  0.00    +0.000 S 
ENDBRANCH  14  15
ENDBRANCH  12  14
ENDBRANCH   9  12
BRANCH   1  20
ATOM     20  C   UNL     1       5.192   4.085  18.021  0.00  0.00    +0.000 C 
BRANCH  20  21
ATOM     21  C   UNL     1       5.779   4.078  16.595  0.00  0.00    +0.000 C 
BRANCH  21  23
ATOM     22  C   UNL     1       7.705   4.680  17.879  0.00  0.00    +0.000 C 
ATOM     23  O   UNL     1       7.150   4.485  16.587  0.00  0.00    +0.000 OA
ENDBRANCH  21  23
ENDBRANCH  20  21
ENDBRANCH   1  20
TORSDOF 6
ENDMDL
MODEL 8
REMARK VINA RESULT:      -6.4      1.875      2.225
REMARK  Name = 
REMARK  7 active torsions:
REMARK  status: ('A' for Active; 'I' for Inactive)
REMARK    1  A    between atoms: C_1  and  O_2
REMARK    2  A    between atoms: O_2  and  C_3
REMARK    3  A    between atoms: C_3  and  C_4
REMARK    4  A    between atoms: C_4  and  N_5
REMARK    5  A    between atoms: C_13  and  N_14
REMARK    6  A    between atoms: N_14  and  C_15
REMARK    7  A    between atoms: C_15  and  C_16
REMARK                            x       y       z     vdW  Elec       q    Type
REMARK                         _______ _______ _______ _____ _____    ______ ____
ROOT
ATOM      1  N   UNL     1       3.901   4.207  18.292  0.00  0.00    +0.000 N 
ATOM      2  C   UNL     1       3.284   2.978  18.069  0.00  0.00    +0.000 C 
ATOM      3  O   UNL     1       3.837   1.893  17.981  0.00  0.00    +0.000 OA
ATOM      4  C   UNL     1       1.801   3.214  17.968  0.00  0.00    +0.000 C 
ATOM      5  C   UNL     1       1.708   4.731  17.809  0.00  0.00    +0.000 C 
ATOM      6  C   UNL     1       2.924   5.265  18.588  0.00  0.00    +0.000 C 
ATOM      7  C   UNL     1       3.363   6.653  18.092  0.00  0.00    +0.000 C 
ATOM      8  C   UNL     1       2.345   7.749  18.397  0.00  0.00    +0.000 C 
ATOM      9  C   UNL     1       2.058   7.855  19.902  0.00  0.00    +0.000 C 
ATOM     10  C   UNL     1       1.646   6.486  20.471  0.00  0.00    +0.000 C 
ATOM     11  C   UNL     1       2.577   5.326  20.093  0.00  0.00    +0.000 C 
ENDROOT
BRANCH   9  12
ATOM     12  N   UNL     1       1.016   8.876  20.103  0.00  0.00    +0.000 NA
ATOM     13  H   UNL     1       0.097   8.469  19.913  0.00  0.00    +0.000 HD
BRANCH  12  14
ATOM     14  C   UNL     1       1.173  10.033  19.205  0.00  0.00    +0.000 C 
BRANCH  14  15
ATOM     15  C   UNL     1      -0.130  10.448  18.572  0.00  0.00    +0.000 A 
ATOM     16  N   UNL     1      -0.845   9.690  17.763  0.00  0.00    +0.000 NA
ATOM     17  C   UNL     1      -1.928  10.408  17.294  0.00  0.00    +0.000 A 
ATOM     18  C   UNL     1      -2.038  11.699  17.762  0.00  0.00    +0.000 A 
ATOM     19  S   UNL     1      -0.748  12.037  18.836  0.00  0.00    +0.000 S 
ENDBRANCH  14  15
ENDBRANCH  12  14
ENDBRANCH   9  12
BRANCH   1  20
ATOM     20  C   UNL     1       5.351   4.300  18.468  0.00  0.00    +0.000 C 
BRANCH  20  21
ATOM     21  C   UNL     1       6.084   4.975  17.291  0.00  0.00    +0.000 C 
BRANCH  21  23
ATOM     22  C   UNL     1       6.040   3.739  15.243  0.00  0.00    +0.000 C 
ATOM     23  O   UNL     1       5.420   4.732  16.047  0.00  0.00    +0.000 OA
ENDBRANCH  21  23
ENDBRANCH  20  21
ENDBRANCH   1  20
TORSDOF 6
ENDMDL
MODEL 9
REMARK VINA RESULT:      -6.4      2.023      2.226
REMARK  Name = 
REMARK  7 active torsions:
REMARK  status: ('A' for Active; 'I' for Inactive)
REMARK    1  A    between atoms: C_1  and  O_2
REMARK    2  A    between atoms: O_2  and  C_3
REMARK    3  A    between atoms: C_3  and  C_4
REMARK    4  A    between atoms: C_4  and  N_5
REMARK    5  A    between atoms: C_13  and  N_14
REMARK    6  A    between atoms: N_14  and  C_15
REMARK    7  A    between atoms: C_15  and  C_16
REMARK                            x       y       z     vdW  Elec       q    Type
REMARK                         _______ _______ _______ _____ _____    ______ ____
ROOT
ATOM      1  N   UNL     1       4.073   5.110  17.837  0.00  0.00    +0.000 N 
ATOM      2  C   UNL     1       3.656   3.797  17.633  0.00  0.00    +0.000 C 
ATOM      3  O   UNL     1       4.371   2.835  17.401  0.00  0.00    +0.000 OA
ATOM      4  C   UNL     1       2.157   3.759  17.761  0.00  0.00    +0.000 C 
ATOM      5  C   UNL     1       1.773   5.238  17.708  0.00  0.00    +0.000 C 
ATOM      6  C   UNL     1       2.981   5.961  18.334  0.00  0.00    +0.000 C 
ATOM      7  C   UNL     1       3.087   7.421  17.863  0.00  0.00    +0.000 C 
ATOM      8  C   UNL     1       1.950   8.301  18.376  0.00  0.00    +0.000 C 
ATOM      9  C   UNL     1       1.882   8.304  19.910  0.00  0.00    +0.000 C 
ATOM     10  C   UNL     1       1.810   6.865  20.451  0.00  0.00    +0.000 C 
ATOM     11  C   UNL     1       2.863   5.908  19.873  0.00  0.00    +0.000 C 
ENDROOT
BRANCH   9  12
ATOM     12  N   UNL     1       0.719   9.109  20.321  0.00  0.00    +0.000 NA
ATOM     13  H   UNL     1      -0.136   8.691  19.945  0.00  0.00    +0.000 HD
BRANCH  12  14
ATOM     14  C   UNL     1       0.783  10.493  19.822  0.00  0.00    +0.000 C 
BRANCH  14  15
ATOM     15  C   UNL     1      -0.565  11.006  19.382  0.00  0.00    +0.000 A 
ATOM     16  N   UNL     1      -1.251  11.942  20.009  0.00  0.00    +0.000 NA
ATOM     17  C   UNL     1      -2.477  12.106  19.394  0.00  0.00    +0.000 A 
ATOM     18  C   UNL     1      -2.707  11.308  18.296  0.00  0.00    +0.000 A 
ATOM     19  S   UNL     1      -1.343  10.314  18.007  0.00  0.00    +0.000 S 
ENDBRANCH  14  15
ENDBRANCH  12  14
ENDBRANCH   9  12
BRANCH   1  20
ATOM     20  C   UNL     1       5.493   5.462  17.807  0.00  0.00    +0.000 C 
BRANCH  20  21
ATOM     21  C   UNL     1       6.043   5.727  16.391  0.00  0.00    +0.000 C 
BRANCH  21  23
ATOM     22  C   UNL     1       7.525   7.208  17.545  0.00  0.00    +0.000 C 
ATOM     23  O   UNL     1       7.332   6.346  16.432  0.00  0.00    +0.000 OA
ENDBRANCH  21  23
ENDBRANCH  20  21
ENDBRANCH   1  20
TORSDOF 6
ENDMDL
