MODEL 1
REMARK VINA RESULT:      -7.6      0.000      0.000
REMARK  Name = 
REMARK  9 active torsions:
REMARK  status: ('A' for Active; 'I' for Inactive)
REMARK    1  A    between atoms: C_1  and  C_2
REMARK    2  A    between atoms: C_2  and  C_3
REMARK    3  A    between atoms: C_2  and  C_4
REMARK    4  A    between atoms: C_7  and  C_8
REMARK    5  A    between atoms: N_10  and  C_11
REMARK    6  A    between atoms: C_18  and  C_19
REMARK    7  A    between atoms: N_21  and  C_22
REMARK    8  A    between atoms: C_22  and  C_23
REMARK    9  A    between atoms: C_23  and  N_24
REMARK                            x       y       z     vdW  Elec       q    Type
REMARK                         _______ _______ _______ _____ _____    ______ ____
ROOT
ATOM      1  C   UNL     1       6.912   6.321  16.994  0.00  0.00    +0.000 A 
ATOM      2  N   UNL     1       7.220   5.997  15.729  0.00  0.00    +0.000 NA
ATOM      3  N   UNL     1       6.434   4.944  15.417  0.00  0.00    +0.000 N 
ATOM      4  C   UNL     1       5.695   4.531  16.497  0.00  0.00    +0.000 A 
ATOM      5  C   UNL     1       5.958   5.403  17.530  0.00  0.00    +0.000 A 
ENDROOT
BRANCH   1   9
ATOM      6  C   UNL     1       8.845   9.695  18.842  0.00  0.00    +0.000 A 
ATOM      7  C   UNL     1       7.988   9.870  17.745  0.00  0.00    +0.000 A 
ATOM      8  C   UNL     1       7.344   8.771  17.158  0.00  0.00    +0.000 A 
ATOM      9  C   UNL     1       7.553   7.474  17.643  0.00  0.00    +0.000 A 
ATOM     10  C   UNL     1       8.404   7.309  18.741  0.00  0.00    +0.000 A 
ATOM     11  C   UNL     1       9.022   8.403  19.346  0.00  0.00    +0.000 A 
BRANCH   6  13
ATOM     12  C   UNL     1       9.351  12.161  18.658  0.00  0.00    +0.000 C 
ATOM     13  C   UNL     1       9.587  10.871  19.449  0.00  0.00    +0.000 C 
ATOM     14  C   UNL     1       9.197  11.078  20.917  0.00  0.00    +0.000 C 
ENDBRANCH   6  13
ENDBRANCH   1   9
BRANCH   3  15
ATOM     15  C   UNL     1       6.403   4.411  14.101  0.00  0.00    +0.000 A 
ATOM     16  C   UNL     1       7.466   4.665  13.219  0.00  0.00    +0.000 A 
ATOM     17  C   UNL     1       7.415   4.177  11.914  0.00  0.00    +0.000 A 
ATOM     18  C   UNL     1       6.311   3.445  11.477  0.00  0.00    +0.000 A 
ATOM     19  C   UNL     1       5.255   3.192  12.350  0.00  0.00    +0.000 A 
ATOM     20  C   UNL     1       5.300   3.664  13.659  0.00  0.00    +0.000 A 
ENDBRANCH   3  15
BRANCH   5  21
ATOM     21  C   UNL     1       5.328   5.410  18.827  0.00  0.00    +0.000 C 
ATOM     22  O   UNL     1       5.868   4.939  19.815  0.00  0.00    +0.000 OA
ATOM     23  N   UNL     1       4.059   5.967  18.876  0.00  0.00    +0.000 N 
ATOM     24  H   UNL     1       3.572   6.110  18.000  0.00  0.00    +0.000 HD
BRANCH  23  25
ATOM     25  C   UNL     1       3.258   5.789  20.078  0.00  0.00    +0.000 C 
BRANCH  25  26
ATOM     26  C   UNL     1       1.880   5.123  19.828  0.00  0.00    +0.000 C 
BRANCH  26  27
ATOM     27  N   UNL     1       1.677   3.850  20.544  0.00  0.00    +0.000 NA
ATOM     28  C   UNL     1       2.947   3.083  20.633  0.00  0.00    +0.000 C 
ATOM     29  C   UNL     1       3.359   2.341  19.345  0.00  0.00    +0.000 C 
ATOM     30  O   UNL     1       2.305   1.499  18.861  0.00  0.00    +0.000 OA
ATOM     31  C   UNL     1       1.123   2.271  18.627  0.00  0.00    +0.000 C 
ATOM     32  C   UNL     1       0.664   2.971  19.917  0.00  0.00    +0.000 C 
ENDBRANCH  26  27
ENDBRANCH  25  26
ENDBRANCH  23  25
ENDBRANCH   5  21
TORSDOF 7
ENDMDL
MODEL 2
REMARK VINA RESULT:      -7.6      0.394      1.123
REMARK  Name = 
REMARK  9 active torsions:
REMARK  status: ('A' for Active; 'I' for Inactive)
REMARK    1  A    between atoms: C_1  and  C_2
REMARK    2  A    between atoms: C_2  and  C_3
REMARK    3  A    between atoms: C_2  and  C_4
REMARK    4  A    between atoms: C_7  and  C_8
REMARK    5  A    between atoms: N_10  and  C_11
REMARK    6  A    between atoms: C_18  and  C_19
REMARK    7  A    between atoms: N_21  and  C_22
REMARK    8  A    between atoms: C_22  and  C_23
REMARK    9  A    between atoms: C_23  and  N_24
REMARK                            x       y       z     vdW  Elec       q    Type
REMARK                         _______ _______ _______ _____ _____    ______ ____
ROOT
ATOM      1  C   UNL     1       7.008   6.473  16.997  0.00  0.00    +0.000 A 
ATOM      2  N   UNL     1       7.316   6.180  15.724  0.00  0.00    +0.000 NA
ATOM      3  N   UNL     1       6.591   5.085  15.412  0.00  0.00    +0.000 N 
ATOM      4  C   UNL     1       5.892   4.619  16.497  0.00  0.00    +0.000 A 
ATOM      5  C   UNL     1       6.117   5.495  17.536  0.00  0.00    +0.000 A 
ENDROOT
BRANCH   1   9
ATOM      6  C   UNL     1       8.763   9.939  18.853  0.00  0.00    +0.000 A 
ATOM      7  C   UNL     1       7.877  10.073  17.773  0.00  0.00    +0.000 A 
ATOM      8  C   UNL     1       7.291   8.943  17.183  0.00  0.00    +0.000 A 
ATOM      9  C   UNL     1       7.589   7.656  17.649  0.00  0.00    +0.000 A 
ATOM     10  C   UNL     1       8.467   7.531  18.730  0.00  0.00    +0.000 A 
ATOM     11  C   UNL     1       9.028   8.654  19.337  0.00  0.00    +0.000 A 
BRANCH   6  13
ATOM     12  C   UNL     1       9.416  11.106  20.992  0.00  0.00    +0.000 C 
ATOM     13  C   UNL     1       9.442  11.151  19.462  0.00  0.00    +0.000 C 
ATOM     14  C   UNL     1      10.886  11.289  18.965  0.00  0.00    +0.000 C 
ENDBRANCH   6  13
ENDBRANCH   1   9
BRANCH   3  15
ATOM     15  C   UNL     1       6.573   4.564  14.091  0.00  0.00    +0.000 A 
ATOM     16  C   UNL     1       5.589   3.636  13.719  0.00  0.00    +0.000 A 
ATOM     17  C   UNL     1       5.597   3.093  12.434  0.00  0.00    +0.000 A 
ATOM     18  C   UNL     1       6.584   3.461  11.520  0.00  0.00    +0.000 A 
ATOM     19  C   UNL     1       7.562   4.383  11.886  0.00  0.00    +0.000 A 
ATOM     20  C   UNL     1       7.556   4.941  13.162  0.00  0.00    +0.000 A 
ENDBRANCH   3  15
BRANCH   5  21
ATOM     21  C   UNL     1       5.505   5.452  18.841  0.00  0.00    +0.000 C 
ATOM     22  O   UNL     1       6.126   5.126  19.839  0.00  0.00    +0.000 OA
ATOM     23  N   UNL     1       4.160   5.785  18.885  0.00  0.00    +0.000 N 
ATOM     24  H   UNL     1       3.649   5.804  18.011  0.00  0.00    +0.000 HD
BRANCH  23  25
ATOM     25  C   UNL     1       3.411   5.528  20.106  0.00  0.00    +0.000 C 
BRANCH  25  26
ATOM     26  C   UNL     1       1.965   5.023  19.867  0.00  0.00    +0.000 C 
BRANCH  26  27
ATOM     27  N   UNL     1       1.688   3.679  20.404  0.00  0.00    +0.000 NA
ATOM     28  C   UNL     1       2.952   2.966  20.727  0.00  0.00    +0.000 C 
ATOM     29  C   UNL     1       3.703   2.375  19.516  0.00  0.00    +0.000 C 
ATOM     30  O   UNL     1       2.850   1.536  18.727  0.00  0.00    +0.000 OA
ATOM     31  C   UNL     1       1.704   2.271  18.285  0.00  0.00    +0.000 C 
ATOM     32  C   UNL     1       0.911   2.819  19.483  0.00  0.00    +0.000 C 
ENDBRANCH  26  27
ENDBRANCH  25  26
ENDBRANCH  23  25
ENDBRANCH   5  21
TORSDOF 7
ENDMDL
MODEL 3
REMARK VINA RESULT:      -7.4      0.117      1.230
REMARK  Name = 
REMARK  9 active torsions:
REMARK  status: ('A' for Active; 'I' for Inactive)
REMARK    1  A    between atoms: C_1  and  C_2
REMARK    2  A    between atoms: C_2  and  C_3
REMARK    3  A    between atoms: C_2  and  C_4
REMARK    4  A    between atoms: C_7  and  C_8
REMARK    5  A    between atoms: N_10  and  C_11
REMARK    6  A    between atoms: C_18  and  C_19
REMARK    7  A    between atoms: N_21  and  C_22
REMARK    8  A    between atoms: C_22  and  C_23
REMARK    9  A    between atoms: C_23  and  N_24
REMARK                            x       y       z     vdW  Elec       q    Type
REMARK                         _______ _______ _______ _____ _____    ______ ____
ROOT
ATOM      1  C   UNL     1       6.944   6.336  16.974  0.00  0.00    +0.000 A 
ATOM      2  N   UNL     1       7.235   6.011  15.705  0.00  0.00    +0.000 NA
ATOM      3  N   UNL     1       6.415   4.984  15.391  0.00  0.00    +0.000 N 
ATOM      4  C   UNL     1       5.669   4.588  16.473  0.00  0.00    +0.000 A 
ATOM      5  C   UNL     1       5.964   5.445  17.510  0.00  0.00    +0.000 A 
ENDROOT
BRANCH   1   9
ATOM      6  C   UNL     1       8.877   9.645  18.935  0.00  0.00    +0.000 A 
ATOM      7  C   UNL     1       9.007   8.340  19.432  0.00  0.00    +0.000 A 
ATOM      8  C   UNL     1       8.393   7.261  18.781  0.00  0.00    +0.000 A 
ATOM      9  C   UNL     1       7.624   7.464  17.627  0.00  0.00    +0.000 A 
ATOM     10  C   UNL     1       7.505   8.768  17.133  0.00  0.00    +0.000 A 
ATOM     11  C   UNL     1       8.140   9.838  17.762  0.00  0.00    +0.000 A 
BRANCH   6  13
ATOM     12  C   UNL     1       9.201  12.148  18.951  0.00  0.00    +0.000 C 
ATOM     13  C   UNL     1       9.495  10.825  19.663  0.00  0.00    +0.000 C 
ATOM     14  C   UNL     1       9.014  10.894  21.118  0.00  0.00    +0.000 C 
ENDBRANCH   6  13
ENDBRANCH   1   9
BRANCH   3  15
ATOM     15  C   UNL     1       6.361   4.461  14.072  0.00  0.00    +0.000 A 
ATOM     16  C   UNL     1       5.263   3.683  13.673  0.00  0.00    +0.000 A 
ATOM     17  C   UNL     1       5.230   3.135  12.392  0.00  0.00    +0.000 A 
ATOM     18  C   UNL     1       6.287   3.349  11.507  0.00  0.00    +0.000 A 
ATOM     19  C   UNL     1       7.378   4.121  11.899  0.00  0.00    +0.000 A 
ATOM     20  C   UNL     1       7.416   4.683  13.172  0.00  0.00    +0.000 A 
ENDBRANCH   3  15
BRANCH   5  21
ATOM     21  C   UNL     1       5.340   5.463  18.810  0.00  0.00    +0.000 C 
ATOM     22  O   UNL     1       5.897   5.025  19.804  0.00  0.00    +0.000 OA
ATOM     23  N   UNL     1       4.059   5.992  18.855  0.00  0.00    +0.000 N 
ATOM     24  H   UNL     1       3.565   6.107  17.979  0.00  0.00    +0.000 HD
BRANCH  23  25
ATOM     25  C   UNL     1       3.270   5.821  20.065  0.00  0.00    +0.000 C 
BRANCH  25  26
ATOM     26  C   UNL     1       1.892   5.148  19.831  0.00  0.00    +0.000 C 
BRANCH  26  27
ATOM     27  N   UNL     1       1.706   3.872  20.545  0.00  0.00    +0.000 NA
ATOM     28  C   UNL     1       2.979   3.108  20.609  0.00  0.00    +0.000 C 
ATOM     29  C   UNL     1       3.373   2.374  19.312  0.00  0.00    +0.000 C 
ATOM     30  O   UNL     1       2.314   1.530  18.842  0.00  0.00    +0.000 OA
ATOM     31  C   UNL     1       1.125   2.298  18.631  0.00  0.00    +0.000 C 
ATOM     32  C   UNL     1       0.685   2.992  19.932  0.00  0.00    +0.000 C 
ENDBRANCH  26  27
ENDBRANCH  25  26
ENDBRANCH  23  25
ENDBRANCH   5  21
TORSDOF 7
ENDMDL
MODEL 4
REMARK VINA RESULT:      -7.3      0.730      1.225
REMARK  Name = 
REMARK  9 active torsions:
REMARK  status: ('A' for Active; 'I' for Inactive)
REMARK    1  A    between atoms: C_1  and  C_2
REMARK    2  A    between atoms: C_2  and  C_3
REMARK    3  A    between atoms: C_2  and  C_4
REMARK    4  A    between atoms: C_7  and  C_8
REMARK    5  A    between atoms: N_10  and  C_11
REMARK    6  A    between atoms: C_18  and  C_19
REMARK    7  A    between atoms: N_21  and  C_22
REMARK    8  A    between atoms: C_22  and  C_23
REMARK    9  A    between atoms: C_23  and  N_24
REMARK                            x       y       z     vdW  Elec       q    Type
REMARK                         _______ _______ _______ _____ _____    ______ ____
ROOT
ATOM      1  C   UNL     1       6.828   6.442  16.938  0.00  0.00    +0.000 A 
ATOM      2  N   UNL     1       7.223   6.015  15.728  0.00  0.00    +0.000 NA
ATOM      3  N   UNL     1       6.338   5.061  15.368  0.00  0.00    +0.000 N 
ATOM      4  C   UNL     1       5.437   4.807  16.372  0.00  0.00    +0.000 A 
ATOM      5  C   UNL     1       5.705   5.688  17.396  0.00  0.00    +0.000 A 
ENDROOT
BRANCH   1   9
ATOM      6  C   UNL     1       8.883   9.637  18.964  0.00  0.00    +0.000 A 
ATOM      7  C   UNL     1       9.007   8.311  19.404  0.00  0.00    +0.000 A 
ATOM      8  C   UNL     1       8.353   7.270  18.730  0.00  0.00    +0.000 A 
ATOM      9  C   UNL     1       7.549   7.532  17.612  0.00  0.00    +0.000 A 
ATOM     10  C   UNL     1       7.437   8.857  17.176  0.00  0.00    +0.000 A 
ATOM     11  C   UNL     1       8.110   9.890  17.827  0.00  0.00    +0.000 A 
BRANCH   6  13
ATOM     12  C   UNL     1       9.381  12.111  18.988  0.00  0.00    +0.000 C 
ATOM     13  C   UNL     1       9.544  10.776  19.719  0.00  0.00    +0.000 C 
ATOM     14  C   UNL     1       8.997  10.889  21.147  0.00  0.00    +0.000 C 
ENDBRANCH   6  13
ENDBRANCH   1   9
BRANCH   3  15
ATOM     15  C   UNL     1       6.375   4.469  14.078  0.00  0.00    +0.000 A 
ATOM     16  C   UNL     1       7.436   4.761  13.206  0.00  0.00    +0.000 A 
ATOM     17  C   UNL     1       7.451   4.213  11.924  0.00  0.00    +0.000 A 
ATOM     18  C   UNL     1       6.413   3.383  11.500  0.00  0.00    +0.000 A 
ATOM     19  C   UNL     1       5.358   3.092  12.363  0.00  0.00    +0.000 A 
ATOM     20  C   UNL     1       5.339   3.624  13.650  0.00  0.00    +0.000 A 
ENDBRANCH   3  15
BRANCH   5  21
ATOM     21  C   UNL     1       4.946   5.847  18.611  0.00  0.00    +0.000 C 
ATOM     22  O   UNL     1       5.371   5.481  19.695  0.00  0.00    +0.000 OA
ATOM     23  N   UNL     1       3.692   6.422  18.467  0.00  0.00    +0.000 N 
ATOM     24  H   UNL     1       3.302   6.475  17.534  0.00  0.00    +0.000 HD
BRANCH  23  25
ATOM     25  C   UNL     1       2.769   6.389  19.591  0.00  0.00    +0.000 C 
BRANCH  25  26
ATOM     26  C   UNL     1       2.401   4.959  20.065  0.00  0.00    +0.000 C 
BRANCH  26  27
ATOM     27  N   UNL     1       1.280   4.342  19.333  0.00  0.00    +0.000 NA
ATOM     28  C   UNL     1       1.000   2.975  19.845  0.00  0.00    +0.000 C 
ATOM     29  C   UNL     1       1.974   1.879  19.364  0.00  0.00    +0.000 C 
ATOM     30  O   UNL     1       2.080   1.859  17.936  0.00  0.00    +0.000 OA
ATOM     31  C   UNL     1       2.502   3.139  17.453  0.00  0.00    +0.000 C 
ATOM     32  C   UNL     1       1.510   4.236  17.874  0.00  0.00    +0.000 C 
ENDBRANCH  26  27
ENDBRANCH  25  26
ENDBRANCH  23  25
ENDBRANCH   5  21
TORSDOF 7
ENDMDL
MODEL 5
REMARK VINA RESULT:      -7.2      2.872      7.132
REMARK  Name = 
REMARK  9 active torsions:
REMARK  status: ('A' for Active; 'I' for Inactive)
REMARK    1  A    between atoms: C_1  and  C_2
REMARK    2  A    between atoms: C_2  and  C_3
REMARK    3  A    between atoms: C_2  and  C_4
REMARK    4  A    between atoms: C_7  and  C_8
REMARK    5  A    between atoms: N_10  and  C_11
REMARK    6  A    between atoms: C_18  and  C_19
REMARK    7  A    between atoms: N_21  and  C_22
REMARK    8  A    between atoms: C_22  and  C_23
REMARK    9  A    between atoms: C_23  and  N_24
REMARK                            x       y       z     vdW  Elec       q    Type
REMARK                         _______ _______ _______ _____ _____    ______ ____
ROOT
ATOM      1  C   UNL     1       5.186   6.161  16.559  0.00  0.00    +0.000 A 
ATOM      2  N   UNL     1       4.853   5.490  15.445  0.00  0.00    +0.000 NA
ATOM      3  N   UNL     1       6.021   5.121  14.876  0.00  0.00    +0.000 N 
ATOM      4  C   UNL     1       7.096   5.627  15.562  0.00  0.00    +0.000 A 
ATOM      5  C   UNL     1       6.604   6.288  16.665  0.00  0.00    +0.000 A 
ENDROOT
BRANCH   1   9
ATOM      6  C   UNL     1       2.178   7.691  19.233  0.00  0.00    +0.000 A 
ATOM      7  C   UNL     1       2.549   8.406  18.085  0.00  0.00    +0.000 A 
ATOM      8  C   UNL     1       3.514   7.896  17.205  0.00  0.00    +0.000 A 
ATOM      9  C   UNL     1       4.140   6.669  17.460  0.00  0.00    +0.000 A 
ATOM     10  C   UNL     1       3.759   5.959  18.604  0.00  0.00    +0.000 A 
ATOM     11  C   UNL     1       2.778   6.449  19.464  0.00  0.00    +0.000 A 
BRANCH   6  13
ATOM     12  C   UNL     1       1.733   8.295  21.642  0.00  0.00    +0.000 C 
ATOM     13  C   UNL     1       1.173   8.260  20.217  0.00  0.00    +0.000 C 
ATOM     14  C   UNL     1       0.715   9.662  19.798  0.00  0.00    +0.000 C 
ENDBRANCH   6  13
ENDBRANCH   1   9
BRANCH   3  15
ATOM     15  C   UNL     1       6.050   4.278  13.733  0.00  0.00    +0.000 A 
ATOM     16  C   UNL     1       7.260   4.060  13.057  0.00  0.00    +0.000 A 
ATOM     17  C   UNL     1       7.281   3.266  11.911  0.00  0.00    +0.000 A 
ATOM     18  C   UNL     1       6.104   2.695  11.428  0.00  0.00    +0.000 A 
ATOM     19  C   UNL     1       4.900   2.910  12.097  0.00  0.00    +0.000 A 
ATOM     20  C   UNL     1       4.870   3.690  13.250  0.00  0.00    +0.000 A 
ENDBRANCH   3  15
BRANCH   5  21
ATOM     21  C   UNL     1       7.381   6.891  17.720  0.00  0.00    +0.000 C 
ATOM     22  O   UNL     1       7.571   6.332  18.788  0.00  0.00    +0.000 OA
ATOM     23  N   UNL     1       7.879   8.157  17.452  0.00  0.00    +0.000 N 
ATOM     24  H   UNL     1       7.489   8.661  16.666  0.00  0.00    +0.000 HD
BRANCH  23  25
ATOM     25  C   UNL     1       8.453   8.932  18.541  0.00  0.00    +0.000 C 
BRANCH  25  26
ATOM     26  C   UNL     1       8.886  10.366  18.138  0.00  0.00    +0.000 C 
BRANCH  26  27
ATOM     27  N   UNL     1      10.082  10.865  18.841  0.00  0.00    +0.000 NA
ATOM     28  C   UNL     1       9.702  11.629  20.057  0.00  0.00    +0.000 C 
ATOM     29  C   UNL     1       9.199  13.065  19.803  0.00  0.00    +0.000 C 
ATOM     30  O   UNL     1      10.132  13.818  19.018  0.00  0.00    +0.000 OA
ATOM     31  C   UNL     1      10.380  13.156  17.774  0.00  0.00    +0.000 C 
ATOM     32  C   UNL     1      10.937  11.741  18.009  0.00  0.00    +0.000 C 
ENDBRANCH  26  27
ENDBRANCH  25  26
ENDBRANCH  23  25
ENDBRANCH   5  21
TORSDOF 7
ENDMDL
MODEL 6
REMARK VINA RESULT:      -7.2      8.312     11.170
REMARK  Name = 
REMARK  9 active torsions:
REMARK  status: ('A' for Active; 'I' for Inactive)
REMARK    1  A    between atoms: C_1  and  C_2
REMARK    2  A    between atoms: C_2  and  C_3
REMARK    3  A    between atoms: C_2  and  C_4
REMARK    4  A    between atoms: C_7  and  C_8
REMARK    5  A    between atoms: N_10  and  C_11
REMARK    6  A    between atoms: C_18  and  C_19
REMARK    7  A    between atoms: N_21  and  C_22
REMARK    8  A    between atoms: C_22  and  C_23
REMARK    9  A    between atoms: C_23  and  N_24
REMARK                            x       y       z     vdW  Elec       q    Type
REMARK                         _______ _______ _______ _____ _____    ______ ____
ROOT
ATOM      1  C   UNL     1       0.599  11.408  18.736  0.00  0.00    +0.000 A 
ATOM      2  N   UNL     1       1.370  12.488  18.939  0.00  0.00    +0.000 NA
ATOM      3  N   UNL     1       0.576  13.556  18.711  0.00  0.00    +0.000 N 
ATOM      4  C   UNL     1      -0.668  13.172  18.275  0.00  0.00    +0.000 A 
ATOM      5  C   UNL     1      -0.703  11.796  18.295  0.00  0.00    +0.000 A 
ENDROOT
BRANCH   1   9
ATOM      6  C   UNL     1       2.121   7.425  19.333  0.00  0.00    +0.000 A 
ATOM      7  C   UNL     1       2.272   8.075  18.099  0.00  0.00    +0.000 A 
ATOM      8  C   UNL     1       1.794   9.380  17.913  0.00  0.00    +0.000 A 
ATOM      9  C   UNL     1       1.141  10.058  18.951  0.00  0.00    +0.000 A 
ATOM     10  C   UNL     1       1.000   9.406  20.180  0.00  0.00    +0.000 A 
ATOM     11  C   UNL     1       1.502   8.120  20.377  0.00  0.00    +0.000 A 
BRANCH   6  13
ATOM     12  C   UNL     1       1.816   5.291  20.645  0.00  0.00    +0.000 C 
ATOM     13  C   UNL     1       2.589   5.995  19.526  0.00  0.00    +0.000 C 
ATOM     14  C   UNL     1       2.475   5.191  18.225  0.00  0.00    +0.000 C 
ENDBRANCH   6  13
ENDBRANCH   1   9
BRANCH   3  15
ATOM     15  C   UNL     1       1.031  14.879  18.954  0.00  0.00    +0.000 A 
ATOM     16  C   UNL     1       2.406  15.135  19.066  0.00  0.00    +0.000 A 
ATOM     17  C   UNL     1       2.850  16.427  19.347  0.00  0.00    +0.000 A 
ATOM     18  C   UNL     1       1.934  17.464  19.524  0.00  0.00    +0.000 A 
ATOM     19  C   UNL     1       0.568  17.212  19.414  0.00  0.00    +0.000 A 
ATOM     20  C   UNL     1       0.114  15.929  19.122  0.00  0.00    +0.000 A 
ENDBRANCH   3  15
BRANCH   5  21
ATOM     21  C   UNL     1      -1.845  10.963  18.009  0.00  0.00    +0.000 C 
ATOM     22  O   UNL     1      -1.738   9.884  17.448  0.00  0.00    +0.000 OA
ATOM     23  N   UNL     1      -3.074  11.475  18.394  0.00  0.00    +0.000 N 
ATOM     24  H   UNL     1      -3.124  12.460  18.623  0.00  0.00    +0.000 HD
BRANCH  23  25
ATOM     25  C   UNL     1      -4.287  10.823  17.924  0.00  0.00    +0.000 C 
BRANCH  25  26
ATOM     26  C   UNL     1      -5.403  11.805  17.482  0.00  0.00    +0.000 C 
BRANCH  26  27
ATOM     27  N   UNL     1      -6.741  11.491  18.016  0.00  0.00    +0.000 NA
ATOM     28  C   UNL     1      -7.573  12.718  18.116  0.00  0.00    +0.000 C 
ATOM     29  C   UNL     1      -7.260  13.630  19.321  0.00  0.00    +0.000 C 
ATOM     30  O   UNL     1      -7.299  12.903  20.555  0.00  0.00    +0.000 OA
ATOM     31  C   UNL     1      -6.378  11.808  20.515  0.00  0.00    +0.000 C 
ATOM     32  C   UNL     1      -6.712  10.857  19.353  0.00  0.00    +0.000 C 
ENDBRANCH  26  27
ENDBRANCH  25  26
ENDBRANCH  23  25
ENDBRANCH   5  21
TORSDOF 7
ENDMDL
MODEL 7
REMARK VINA RESULT:      -7.2      8.053     11.019
REMARK  Name = 
REMARK  9 active torsions:
REMARK  status: ('A' for Active; 'I' for Inactive)
REMARK    1  A    between atoms: C_1  and  C_2
REMARK    2  A    between atoms: C_2  and  C_3
REMARK    3  A    between atoms: C_2  and  C_4
REMARK    4  A    between atoms: C_7  and  C_8
REMARK    5  A    between atoms: N_10  and  C_11
REMARK    6  A    between atoms: C_18  and  C_19
REMARK    7  A    between atoms: N_21  and  C_22
REMARK    8  A    between atoms: C_22  and  C_23
REMARK    9  A    between atoms: C_23  and  N_24
REMARK                            x       y       z     vdW  Elec       q    Type
REMARK                         _______ _______ _______ _____ _____    ______ ____
ROOT
ATOM      1  C   UNL     1       0.933  11.454  18.780  0.00  0.00    +0.000 A 
ATOM      2  N   UNL     1       1.818  12.441  18.990  0.00  0.00    +0.000 NA
ATOM      3  N   UNL     1       1.126  13.592  18.849  0.00  0.00    +0.000 N 
ATOM      4  C   UNL     1      -0.169  13.355  18.461  0.00  0.00    +0.000 A 
ATOM      5  C   UNL     1      -0.342  11.989  18.423  0.00  0.00    +0.000 A 
ENDROOT
BRANCH   1   9
ATOM      6  C   UNL     1       2.202   7.360  19.187  0.00  0.00    +0.000 A 
ATOM      7  C   UNL     1       1.602   8.036  20.260  0.00  0.00    +0.000 A 
ATOM      8  C   UNL     1       1.171   9.363  20.118  0.00  0.00    +0.000 A 
ATOM      9  C   UNL     1       1.344  10.048  18.908  0.00  0.00    +0.000 A 
ATOM     10  C   UNL     1       1.938   9.365  17.842  0.00  0.00    +0.000 A 
ATOM     11  C   UNL     1       2.340   8.036  17.971  0.00  0.00    +0.000 A 
BRANCH   6  13
ATOM     12  C   UNL     1       2.075   5.237  20.545  0.00  0.00    +0.000 C 
ATOM     13  C   UNL     1       2.719   5.942  19.348  0.00  0.00    +0.000 C 
ATOM     14  C   UNL     1       2.497   5.121  18.073  0.00  0.00    +0.000 C 
ENDBRANCH   6  13
ENDBRANCH   1   9
BRANCH   3  15
ATOM     15  C   UNL     1       1.723  14.850  19.126  0.00  0.00    +0.000 A 
ATOM     16  C   UNL     1       3.055  15.089  18.752  0.00  0.00    +0.000 A 
ATOM     17  C   UNL     1       3.654  16.309  19.062  0.00  0.00    +0.000 A 
ATOM     18  C   UNL     1       2.940  17.291  19.748  0.00  0.00    +0.000 A 
ATOM     19  C   UNL     1       1.617  17.057  20.120  0.00  0.00    +0.000 A 
ATOM     20  C   UNL     1       1.005  15.847  19.805  0.00  0.00    +0.000 A 
ENDBRANCH   3  15
BRANCH   5  21
ATOM     21  C   UNL     1      -1.575  11.288  18.160  0.00  0.00    +0.000 C 
ATOM     22  O   UNL     1      -1.846  10.228  18.699  0.00  0.00    +0.000 OA
ATOM     23  N   UNL     1      -2.422  11.886  17.240  0.00  0.00    +0.000 N 
ATOM     24  H   UNL     1      -2.041  12.618  16.653  0.00  0.00    +0.000 HD
BRANCH  23  25
ATOM     25  C   UNL     1      -3.557  11.129  16.733  0.00  0.00    +0.000 C 
BRANCH  25  26
ATOM     26  C   UNL     1      -4.933  11.782  17.026  0.00  0.00    +0.000 C 
BRANCH  26  27
ATOM     27  N   UNL     1      -5.564  11.342  18.283  0.00  0.00    +0.000 NA
ATOM     28  C   UNL     1      -7.042  11.478  18.211  0.00  0.00    +0.000 C 
ATOM     29  C   UNL     1      -7.582  12.911  18.391  0.00  0.00    +0.000 C 
ATOM     30  O   UNL     1      -7.089  13.512  19.595  0.00  0.00    +0.000 OA
ATOM     31  C   UNL     1      -5.658  13.522  19.593  0.00  0.00    +0.000 C 
ATOM     32  C   UNL     1      -5.102  12.093  19.473  0.00  0.00    +0.000 C 
ENDBRANCH  26  27
ENDBRANCH  25  26
ENDBRANCH  23  25
ENDBRANCH   5  21
TORSDOF 7
ENDMDL
MODEL 8
REMARK VINA RESULT:      -7.2      8.174     11.107
REMARK  Name = 
REMARK  9 active torsions:
REMARK  status: ('A' for Active; 'I' for Inactive)
REMARK    1  A    between atoms: C_1  and  C_2
REMARK    2  A    between atoms: C_2  and  C_3
REMARK    3  A    between atoms: C_2  and  C_4
REMARK    4  A    between atoms: C_7  and  C_8
REMARK    5  A    between atoms: N_10  and  C_11
REMARK    6  A    between atoms: C_18  and  C_19
REMARK    7  A    between atoms: N_21  and  C_22
REMARK    8  A    between atoms: C_22  and  C_23
REMARK    9  A    between atoms: C_23  and  N_24
REMARK                            x       y       z     vdW  Elec       q    Type
REMARK                         _______ _______ _______ _____ _____    ______ ____
ROOT
ATOM      1  C   UNL     1       0.745  11.499  18.803  0.00  0.00    +0.000 A 
ATOM      2  N   UNL     1       1.590  12.517  19.032  0.00  0.00    +0.000 NA
ATOM      3  N   UNL     1       0.865  13.643  18.857  0.00  0.00    +0.000 N 
ATOM      4  C   UNL     1      -0.408  13.360  18.429  0.00  0.00    +0.000 A 
ATOM      5  C   UNL     1      -0.534  11.989  18.399  0.00  0.00    +0.000 A 
ENDROOT
BRANCH   1   9
ATOM      6  C   UNL     1       2.137   7.454  19.286  0.00  0.00    +0.000 A 
ATOM      7  C   UNL     1       1.549   8.144  20.357  0.00  0.00    +0.000 A 
ATOM      8  C   UNL     1       1.079   9.455  20.191  0.00  0.00    +0.000 A 
ATOM      9  C   UNL     1       1.198  10.109  18.958  0.00  0.00    +0.000 A 
ATOM     10  C   UNL     1       1.779   9.411  17.894  0.00  0.00    +0.000 A 
ATOM     11  C   UNL     1       2.220   8.098  18.047  0.00  0.00    +0.000 A 
BRANCH   6  13
ATOM     12  C   UNL     1       1.945   5.283  20.559  0.00  0.00    +0.000 C 
ATOM     13  C   UNL     1       2.697   6.055  19.471  0.00  0.00    +0.000 C 
ATOM     14  C   UNL     1       2.671   5.267  18.156  0.00  0.00    +0.000 C 
ENDBRANCH   6  13
ENDBRANCH   1   9
BRANCH   3  15
ATOM     15  C   UNL     1       1.411  14.923  19.141  0.00  0.00    +0.000 A 
ATOM     16  C   UNL     1       0.702  16.080  18.784  0.00  0.00    +0.000 A 
ATOM     17  C   UNL     1       1.257  17.336  19.025  0.00  0.00    +0.000 A 
ATOM     18  C   UNL     1       2.517  17.448  19.613  0.00  0.00    +0.000 A 
ATOM     19  C   UNL     1       3.223  16.301  19.969  0.00  0.00    +0.000 A 
ATOM     20  C   UNL     1       2.673  15.042  19.744  0.00  0.00    +0.000 A 
ENDBRANCH   3  15
BRANCH   5  21
ATOM     21  C   UNL     1      -1.734  11.245  18.102  0.00  0.00    +0.000 C 
ATOM     22  O   UNL     1      -1.915  10.112  18.518  0.00  0.00    +0.000 OA
ATOM     23  N   UNL     1      -2.659  11.891  17.297  0.00  0.00    +0.000 N 
ATOM     24  H   UNL     1      -2.352  12.712  16.790  0.00  0.00    +0.000 HD
BRANCH  23  25
ATOM     25  C   UNL     1      -3.770  11.128  16.749  0.00  0.00    +0.000 C 
BRANCH  25  26
ATOM     26  C   UNL     1      -5.078  11.232  17.574  0.00  0.00    +0.000 C 
BRANCH  26  27
ATOM     27  N   UNL     1      -5.184  12.446  18.403  0.00  0.00    +0.000 NA
ATOM     28  C   UNL     1      -5.353  12.097  19.838  0.00  0.00    +0.000 C 
ATOM     29  C   UNL     1      -6.771  11.645  20.243  0.00  0.00    +0.000 C 
ATOM     30  O   UNL     1      -7.762  12.601  19.847  0.00  0.00    +0.000 OA
ATOM     31  C   UNL     1      -7.701  12.822  18.435  0.00  0.00    +0.000 C 
ATOM     32  C   UNL     1      -6.309  13.330  18.021  0.00  0.00    +0.000 C 
ENDBRANCH  26  27
ENDBRANCH  25  26
ENDBRANCH  23  25
ENDBRANCH   5  21
TORSDOF 7
ENDMDL
MODEL 9
REMARK VINA RESULT:      -7.1      7.983     10.968
REMARK  Name = 
REMARK  9 active torsions:
REMARK  status: ('A' for Active; 'I' for Inactive)
REMARK    1  A    between atoms: C_1  and  C_2
REMARK    2  A    between atoms: C_2  and  C_3
REMARK    3  A    between atoms: C_2  and  C_4
REMARK    4  A    between atoms: C_7  and  C_8
REMARK    5  A    between atoms: N_10  and  C_11
REMARK    6  A    between atoms: C_18  and  C_19
REMARK    7  A    between atoms: N_21  and  C_22
REMARK    8  A    between atoms: C_22  and  C_23
REMARK    9  A    between atoms: C_23  and  N_24
REMARK                            x       y       z     vdW  Elec       q    Type
REMARK                         _______ _______ _______ _____ _____    ______ ____
ROOT
ATOM      1  C   UNL     1       0.862  11.490  18.842  0.00  0.00    +0.000 A 
ATOM      2  N   UNL     1       1.713  12.483  19.143  0.00  0.00    +0.000 NA
ATOM      3  N   UNL     1       1.021  13.628  18.965  0.00  0.00    +0.000 N 
ATOM      4  C   UNL     1      -0.234  13.384  18.465  0.00  0.00    +0.000 A 
ATOM      5  C   UNL     1      -0.385  12.017  18.388  0.00  0.00    +0.000 A 
ENDROOT
BRANCH   1   9
ATOM      6  C   UNL     1       2.147   7.404  19.278  0.00  0.00    +0.000 A 
ATOM      7  C   UNL     1       1.501   8.070  20.330  0.00  0.00    +0.000 A 
ATOM      8  C   UNL     1       1.065   9.394  20.178  0.00  0.00    +0.000 A 
ATOM      9  C   UNL     1       1.279  10.086  18.979  0.00  0.00    +0.000 A 
ATOM     10  C   UNL     1       1.918   9.413  17.933  0.00  0.00    +0.000 A 
ATOM     11  C   UNL     1       2.325   8.087  18.070  0.00  0.00    +0.000 A 
BRANCH   6  13
ATOM     12  C   UNL     1       2.009   5.284  20.640  0.00  0.00    +0.000 C 
ATOM     13  C   UNL     1       2.669   5.989  19.452  0.00  0.00    +0.000 C 
ATOM     14  C   UNL     1       2.472   5.163  18.175  0.00  0.00    +0.000 C 
ENDBRANCH   6  13
ENDBRANCH   1   9
BRANCH   3  15
ATOM     15  C   UNL     1       1.576  14.888  19.314  0.00  0.00    +0.000 A 
ATOM     16  C   UNL     1       2.571  14.963  20.301  0.00  0.00    +0.000 A 
ATOM     17  C   UNL     1       3.086  16.204  20.672  0.00  0.00    +0.000 A 
ATOM     18  C   UNL     1       2.613  17.372  20.074  0.00  0.00    +0.000 A 
ATOM     19  C   UNL     1       1.625  17.300  19.094  0.00  0.00    +0.000 A 
ATOM     20  C   UNL     1       1.112  16.065  18.706  0.00  0.00    +0.000 A 
ENDBRANCH   3  15
BRANCH   5  21
ATOM     21  C   UNL     1      -1.583  11.307  18.010  0.00  0.00    +0.000 C 
ATOM     22  O   UNL     1      -1.598  10.097  17.854  0.00  0.00    +0.000 OA
ATOM     23  N   UNL     1      -2.710  12.091  17.813  0.00  0.00    +0.000 N 
ATOM     24  H   UNL     1      -2.579  13.090  17.715  0.00  0.00    +0.000 HD
BRANCH  23  25
ATOM     25  C   UNL     1      -3.882  11.493  17.193  0.00  0.00    +0.000 C 
BRANCH  25  26
ATOM     26  C   UNL     1      -4.954  11.007  18.202  0.00  0.00    +0.000 C 
BRANCH  26  27
ATOM     27  N   UNL     1      -5.961  12.021  18.561  0.00  0.00    +0.000 NA
ATOM     28  C   UNL     1      -5.446  12.929  19.619  0.00  0.00    +0.000 C 
ATOM     29  C   UNL     1      -5.458  12.350  21.048  0.00  0.00    +0.000 C 
ATOM     30  O   UNL     1      -6.756  11.859  21.407  0.00  0.00    +0.000 OA
ATOM     31  C   UNL     1      -7.187  10.867  20.470  0.00  0.00    +0.000 C 
ATOM     32  C   UNL     1      -7.237  11.446  19.046  0.00  0.00    +0.000 C 
ENDBRANCH  26  27
ENDBRANCH  25  26
ENDBRANCH  23  25
ENDBRANCH   5  21
TORSDOF 7
ENDMDL
