MODEL 1
REMARK VINA RESULT:      -7.2      0.000      0.000
REMARK  Name = 
REMARK  8 active torsions:
REMARK  status: ('A' for Active; 'I' for Inactive)
REMARK    1  A    between atoms: C_1  and  O_2
REMARK    2  A    between atoms: O_2  and  C_3
REMARK    3  A    between atoms: C_7  and  C_8
REMARK    4  A    between atoms: N_13  and  C_14
REMARK    5  A    between atoms: C_14  and  C_15
REMARK    6  A    between atoms: C_15  and  O_16
REMARK    7  A    between atoms: C_15  and  O_17
REMARK    8  A    between atoms: C_15  and  C_18
REMARK                            x       y       z     vdW  Elec       q    Type
REMARK                         _______ _______ _______ _____ _____    ______ ____
ROOT
ATOM      1  C   UNL     1       3.582   5.525  18.870  0.00  0.00    +0.000 C 
ATOM      2  C   UNL     1       2.824   6.629  18.922  0.00  0.00    +0.000 C 
ATOM      3  S   UNL     1       2.853   7.947  17.818  0.00  0.00    +0.000 S 
ATOM      4  C   UNL     1       1.779   8.899  18.802  0.00  0.00    +0.000 C 
ATOM      5  O   UNL     1       1.508  10.053  18.530  0.00  0.00    +0.000 OA
ATOM      6  N   UNL     1       1.378   8.196  19.908  0.00  0.00    +0.000 N 
ATOM      7  C   UNL     1       1.867   6.912  20.021  0.00  0.00    +0.000 C 
ATOM      8  O   UNL     1       1.587   6.112  20.901  0.00  0.00    +0.000 OA
ENDROOT
BRANCH   1  13
ATOM      9  C   UNL     1       6.630   6.143  16.777  0.00  0.00    +0.000 A 
ATOM     10  C   UNL     1       6.414   5.246  15.728  0.00  0.00    +0.000 A 
ATOM     11  C   UNL     1       5.310   4.387  15.737  0.00  0.00    +0.000 A 
ATOM     12  C   UNL     1       4.402   4.436  16.793  0.00  0.00    +0.000 A 
ATOM     13  C   UNL     1       4.606   5.334  17.846  0.00  0.00    +0.000 A 
ATOM     14  C   UNL     1       5.735   6.169  17.847  0.00  0.00    +0.000 A 
BRANCH   9  16
ATOM     15  C   UNL     1       7.898   7.996  17.574  0.00  0.00    +0.000 C 
ATOM     16  O   UNL     1       7.719   6.956  16.620  0.00  0.00    +0.000 OA
ENDBRANCH   9  16
ENDBRANCH   1  13
BRANCH   6  17
ATOM     17  C   UNL     1       0.418   8.694  20.895  0.00  0.00    +0.000 C 
BRANCH  17  18
ATOM     18  C   UNL     1       0.906   9.610  22.047  0.00  0.00    +0.000 C 
BRANCH  18  19
ATOM     19  C   UNL     1      -0.169   9.681  23.193  0.00  0.00    +0.000 C 
ATOM     20  F   UNL     1       0.362   9.386  24.405  0.00  0.00    +0.000 F 
ATOM     21  F   UNL     1      -0.727  10.907  23.297  0.00  0.00    +0.000 F 
ATOM     22  F   UNL     1      -1.169   8.789  22.988  0.00  0.00    +0.000 F 
ENDBRANCH  18  19
BRANCH  18  23
ATOM     23  O   UNL     1       2.202   9.200  22.494  0.00  0.00    +0.000 OA
ATOM     24  H   UNL     1       2.092   8.716  23.342  0.00  0.00    +0.000 HD
ENDBRANCH  18  23
BRANCH  18  25
ATOM     25  O   UNL     1       1.146  10.907  21.457  0.00  0.00    +0.000 OA
ATOM     26  H   UNL     1       1.050  10.836  20.494  0.00  0.00    +0.000 HD
ENDBRANCH  18  25
ENDBRANCH  17  18
ENDBRANCH   6  17
TORSDOF 7
ENDMDL
MODEL 2
REMARK VINA RESULT:      -6.9      1.170      1.935
REMARK  Name = 
REMARK  8 active torsions:
REMARK  status: ('A' for Active; 'I' for Inactive)
REMARK    1  A    between atoms: C_1  and  O_2
REMARK    2  A    between atoms: O_2  and  C_3
REMARK    3  A    between atoms: C_7  and  C_8
REMARK    4  A    between atoms: N_13  and  C_14
REMARK    5  A    between atoms: C_14  and  C_15
REMARK    6  A    between atoms: C_15  and  O_16
REMARK    7  A    between atoms: C_15  and  O_17
REMARK    8  A    between atoms: C_15  and  C_18
REMARK                            x       y       z     vdW  Elec       q    Type
REMARK                         _______ _______ _______ _____ _____    ______ ____
ROOT
ATOM      1  C   UNL     1       3.883   5.489  18.966  0.00  0.00    +0.000 C 
ATOM      2  C   UNL     1       3.083   6.565  18.986  0.00  0.00    +0.000 C 
ATOM      3  S   UNL     1       3.091   7.870  17.868  0.00  0.00    +0.000 S 
ATOM      4  C   UNL     1       1.957   8.791  18.814  0.00  0.00    +0.000 C 
ATOM      5  O   UNL     1       1.649   9.931  18.522  0.00  0.00    +0.000 OA
ATOM      6  N   UNL     1       1.554   8.085  19.917  0.00  0.00    +0.000 N 
ATOM      7  C   UNL     1       2.089   6.822  20.058  0.00  0.00    +0.000 C 
ATOM      8  O   UNL     1       1.817   6.021  20.939  0.00  0.00    +0.000 OA
ENDROOT
BRANCH   1  13
ATOM      9  C   UNL     1       5.555   4.784  15.685  0.00  0.00    +0.000 A 
ATOM     10  C   UNL     1       6.887   4.671  16.089  0.00  0.00    +0.000 A 
ATOM     11  C   UNL     1       7.253   4.895  17.420  0.00  0.00    +0.000 A 
ATOM     12  C   UNL     1       6.278   5.216  18.362  0.00  0.00    +0.000 A 
ATOM     13  C   UNL     1       4.940   5.326  17.970  0.00  0.00    +0.000 A 
ATOM     14  C   UNL     1       4.585   5.133  16.625  0.00  0.00    +0.000 A 
BRANCH   9  16
ATOM     15  C   UNL     1       6.338   3.766  13.678  0.00  0.00    +0.000 C 
ATOM     16  O   UNL     1       5.329   4.493  14.367  0.00  0.00    +0.000 OA
ENDBRANCH   9  16
ENDBRANCH   1  13
BRANCH   6  17
ATOM     17  C   UNL     1       0.551   8.557  20.874  0.00  0.00    +0.000 C 
BRANCH  17  18
ATOM     18  C   UNL     1       0.970   9.526  22.011  0.00  0.00    +0.000 C 
BRANCH  18  19
ATOM     19  C   UNL     1      -0.133   9.578  23.130  0.00  0.00    +0.000 C 
ATOM     20  F   UNL     1      -1.162   8.735  22.866  0.00  0.00    +0.000 F 
ATOM     21  F   UNL     1       0.352   9.237  24.345  0.00  0.00    +0.000 F 
ATOM     22  F   UNL     1      -0.673  10.817  23.235  0.00  0.00    +0.000 F 
ENDBRANCH  18  19
BRANCH  18  23
ATOM     23  O   UNL     1       2.273   9.190  22.496  0.00  0.00    +0.000 OA
ATOM     24  H   UNL     1       2.188   8.396  23.068  0.00  0.00    +0.000 HD
ENDBRANCH  18  23
BRANCH  18  25
ATOM     25  O   UNL     1       1.163  10.816  21.388  0.00  0.00    +0.000 OA
ATOM     26  H   UNL     1       0.495  10.934  20.694  0.00  0.00    +0.000 HD
ENDBRANCH  18  25
ENDBRANCH  17  18
ENDBRANCH   6  17
TORSDOF 7
ENDMDL
MODEL 3
REMARK VINA RESULT:      -6.9      4.581      8.125
REMARK  Name = 
REMARK  8 active torsions:
REMARK  status: ('A' for Active; 'I' for Inactive)
REMARK    1  A    between atoms: C_1  and  O_2
REMARK    2  A    between atoms: O_2  and  C_3
REMARK    3  A    between atoms: C_7  and  C_8
REMARK    4  A    between atoms: N_13  and  C_14
REMARK    5  A    between atoms: C_14  and  C_15
REMARK    6  A    between atoms: C_15  and  O_16
REMARK    7  A    between atoms: C_15  and  O_17
REMARK    8  A    between atoms: C_15  and  C_18
REMARK                            x       y       z     vdW  Elec       q    Type
REMARK                         _______ _______ _______ _____ _____    ______ ____
ROOT
ATOM      1  C   UNL     1       1.706   8.762  19.448  0.00  0.00    +0.000 C 
ATOM      2  C   UNL     1       2.151   7.498  19.403  0.00  0.00    +0.000 C 
ATOM      3  S   UNL     1       1.766   6.235  20.504  0.00  0.00    +0.000 S 
ATOM      4  C   UNL     1       2.929   5.153  19.792  0.00  0.00    +0.000 C 
ATOM      5  O   UNL     1       3.170   4.061  20.270  0.00  0.00    +0.000 OA
ATOM      6  N   UNL     1       3.544   5.736  18.715  0.00  0.00    +0.000 N 
ATOM      7  C   UNL     1       3.131   7.013  18.399  0.00  0.00    +0.000 C 
ATOM      8  O   UNL     1       3.517   7.678  17.450  0.00  0.00    +0.000 OA
ENDROOT
BRANCH   1  13
ATOM      9  C   UNL     1      -0.814  10.850  21.278  0.00  0.00    +0.000 A 
ATOM     10  C   UNL     1      -0.590  10.437  22.593  0.00  0.00    +0.000 A 
ATOM     11  C   UNL     1       0.333   9.426  22.879  0.00  0.00    +0.000 A 
ATOM     12  C   UNL     1       1.053   8.833  21.845  0.00  0.00    +0.000 A 
ATOM     13  C   UNL     1       0.842   9.243  20.524  0.00  0.00    +0.000 A 
ATOM     14  C   UNL     1      -0.110  10.235  20.241  0.00  0.00    +0.000 A 
BRANCH   9  16
ATOM     15  C   UNL     1      -2.175  12.167  19.832  0.00  0.00    +0.000 C 
ATOM     16  O   UNL     1      -1.706  11.879  21.144  0.00  0.00    +0.000 OA
ENDBRANCH   9  16
ENDBRANCH   1  13
BRANCH   6  17
ATOM     17  C   UNL     1       4.520   5.058  17.860  0.00  0.00    +0.000 C 
BRANCH  17  18
ATOM     18  C   UNL     1       5.886   4.621  18.451  0.00  0.00    +0.000 C 
BRANCH  18  19
ATOM     19  C   UNL     1       7.010   4.681  17.354  0.00  0.00    +0.000 C 
ATOM     20  F   UNL     1       8.195   4.209  17.815  0.00  0.00    +0.000 F 
ATOM     21  F   UNL     1       6.697   3.952  16.259  0.00  0.00    +0.000 F 
ATOM     22  F   UNL     1       7.239   5.954  16.950  0.00  0.00    +0.000 F 
ENDBRANCH  18  19
BRANCH  18  23
ATOM     23  O   UNL     1       6.184   5.378  19.628  0.00  0.00    +0.000 OA
ATOM     24  H   UNL     1       5.849   6.292  19.494  0.00  0.00    +0.000 HD
ENDBRANCH  18  23
BRANCH  18  25
ATOM     25  O   UNL     1       5.696   3.278  18.951  0.00  0.00    +0.000 OA
ATOM     26  H   UNL     1       4.745   3.106  19.036  0.00  0.00    +0.000 HD
ENDBRANCH  18  25
ENDBRANCH  17  18
ENDBRANCH   6  17
TORSDOF 7
ENDMDL
MODEL 4
REMARK VINA RESULT:      -6.8      4.017      7.671
REMARK  Name = 
REMARK  8 active torsions:
REMARK  status: ('A' for Active; 'I' for Inactive)
REMARK    1  A    between atoms: C_1  and  O_2
REMARK    2  A    between atoms: O_2  and  C_3
REMARK    3  A    between atoms: C_7  and  C_8
REMARK    4  A    between atoms: N_13  and  C_14
REMARK    5  A    between atoms: C_14  and  C_15
REMARK    6  A    between atoms: C_15  and  O_16
REMARK    7  A    between atoms: C_15  and  O_17
REMARK    8  A    between atoms: C_15  and  C_18
REMARK                            x       y       z     vdW  Elec       q    Type
REMARK                         _______ _______ _______ _____ _____    ______ ____
ROOT
ATOM      1  C   UNL     1       2.673   8.207  17.821  0.00  0.00    +0.000 C 
ATOM      2  C   UNL     1       3.139   6.964  18.008  0.00  0.00    +0.000 C 
ATOM      3  S   UNL     1       2.567   5.814  19.150  0.00  0.00    +0.000 S 
ATOM      4  C   UNL     1       3.866   4.707  18.805  0.00  0.00    +0.000 C 
ATOM      5  O   UNL     1       4.027   3.684  19.443  0.00  0.00    +0.000 OA
ATOM      6  N   UNL     1       4.670   5.193  17.809  0.00  0.00    +0.000 N 
ATOM      7  C   UNL     1       4.306   6.411  17.275  0.00  0.00    +0.000 C 
ATOM      8  O   UNL     1       4.860   6.984  16.349  0.00  0.00    +0.000 OA
ENDROOT
BRANCH   1  13
ATOM      9  C   UNL     1      -0.262  10.306  18.840  0.00  0.00    +0.000 A 
ATOM     10  C   UNL     1      -0.239  10.133  20.226  0.00  0.00    +0.000 A 
ATOM     11  C   UNL     1       0.688   9.274  20.824  0.00  0.00    +0.000 A 
ATOM     12  C   UNL     1       1.615   8.596  20.036  0.00  0.00    +0.000 A 
ATOM     13  C   UNL     1       1.606   8.767  18.647  0.00  0.00    +0.000 A 
ATOM     14  C   UNL     1       0.650   9.605  18.050  0.00  0.00    +0.000 A 
BRANCH   9  16
ATOM     15  C   UNL     1      -1.813  12.038  19.361  0.00  0.00    +0.000 C 
ATOM     16  O   UNL     1      -1.186  11.209  18.390  0.00  0.00    +0.000 OA
ENDBRANCH   9  16
ENDBRANCH   1  13
BRANCH   6  17
ATOM     17  C   UNL     1       5.807   4.465  17.242  0.00  0.00    +0.000 C 
BRANCH  17  18
ATOM     18  C   UNL     1       7.236   5.057  17.366  0.00  0.00    +0.000 C 
BRANCH  18  19
ATOM     19  C   UNL     1       7.379   5.888  18.693  0.00  0.00    +0.000 C 
ATOM     20  F   UNL     1       7.195   7.215  18.482  0.00  0.00    +0.000 F 
ATOM     21  F   UNL     1       6.483   5.512  19.633  0.00  0.00    +0.000 F 
ATOM     22  F   UNL     1       8.618   5.756  19.228  0.00  0.00    +0.000 F 
ENDBRANCH  18  19
BRANCH  18  23
ATOM     23  O   UNL     1       8.216   4.024  17.220  0.00  0.00    +0.000 OA
ATOM     24  H   UNL     1       7.882   3.381  16.556  0.00  0.00    +0.000 HD
ENDBRANCH  18  23
BRANCH  18  25
ATOM     25  O   UNL     1       7.434   5.879  16.194  0.00  0.00    +0.000 OA
ATOM     26  H   UNL     1       8.371   6.125  16.137  0.00  0.00    +0.000 HD
ENDBRANCH  18  25
ENDBRANCH  17  18
ENDBRANCH   6  17
TORSDOF 7
ENDMDL
MODEL 5
REMARK VINA RESULT:      -6.8      4.765      6.078
REMARK  Name = 
REMARK  8 active torsions:
REMARK  status: ('A' for Active; 'I' for Inactive)
REMARK    1  A    between atoms: C_1  and  O_2
REMARK    2  A    between atoms: O_2  and  C_3
REMARK    3  A    between atoms: C_7  and  C_8
REMARK    4  A    between atoms: N_13  and  C_14
REMARK    5  A    between atoms: C_14  and  C_15
REMARK    6  A    between atoms: C_15  and  O_16
REMARK    7  A    between atoms: C_15  and  O_17
REMARK    8  A    between atoms: C_15  and  C_18
REMARK                            x       y       z     vdW  Elec       q    Type
REMARK                         _______ _______ _______ _____ _____    ______ ____
ROOT
ATOM      1  C   UNL     1       6.597   4.374  16.090  0.00  0.00    +0.000 C 
ATOM      2  C   UNL     1       5.413   4.140  16.675  0.00  0.00    +0.000 C 
ATOM      3  S   UNL     1       3.916   3.852  15.880  0.00  0.00    +0.000 S 
ATOM      4  C   UNL     1       3.023   3.904  17.374  0.00  0.00    +0.000 C 
ATOM      5  O   UNL     1       1.808   3.851  17.400  0.00  0.00    +0.000 OA
ATOM      6  N   UNL     1       3.864   4.082  18.440  0.00  0.00    +0.000 N 
ATOM      7  C   UNL     1       5.209   4.166  18.145  0.00  0.00    +0.000 C 
ATOM      8  O   UNL     1       6.116   4.272  18.955  0.00  0.00    +0.000 OA
ENDROOT
BRANCH   1  13
ATOM      9  C   UNL     1       6.358   3.471  12.460  0.00  0.00    +0.000 A 
ATOM     10  C   UNL     1       7.253   4.388  11.902  0.00  0.00    +0.000 A 
ATOM     11  C   UNL     1       7.881   5.350  12.700  0.00  0.00    +0.000 A 
ATOM     12  C   UNL     1       7.630   5.386  14.070  0.00  0.00    +0.000 A 
ATOM     13  C   UNL     1       6.741   4.468  14.640  0.00  0.00    +0.000 A 
ATOM     14  C   UNL     1       6.088   3.527  13.827  0.00  0.00    +0.000 A 
BRANCH   9  16
ATOM     15  C   UNL     1       6.738   1.551  11.101  0.00  0.00    +0.000 C 
ATOM     16  O   UNL     1       5.851   2.556  11.578  0.00  0.00    +0.000 OA
ENDBRANCH   9  16
ENDBRANCH   1  13
BRANCH   6  17
ATOM     17  C   UNL     1       3.428   4.097  19.838  0.00  0.00    +0.000 C 
BRANCH  17  18
ATOM     18  C   UNL     1       2.700   2.861  20.428  0.00  0.00    +0.000 C 
BRANCH  18  19
ATOM     19  C   UNL     1       1.228   3.229  20.840  0.00  0.00    +0.000 C 
ATOM     20  F   UNL     1       0.323   2.795  19.928  0.00  0.00    +0.000 F 
ATOM     21  F   UNL     1       0.878   2.689  22.029  0.00  0.00    +0.000 F 
ATOM     22  F   UNL     1       1.061   4.571  20.932  0.00  0.00    +0.000 F 
ENDBRANCH  18  19
BRANCH  18  23
ATOM     23  O   UNL     1       2.790   1.752  19.528  0.00  0.00    +0.000 OA
ATOM     24  H   UNL     1       3.545   1.917  18.920  0.00  0.00    +0.000 HD
ENDBRANCH  18  23
BRANCH  18  25
ATOM     25  O   UNL     1       3.485   2.437  21.566  0.00  0.00    +0.000 OA
ATOM     26  H   UNL     1       4.104   1.747  21.281  0.00  0.00    +0.000 HD
ENDBRANCH  18  25
ENDBRANCH  17  18
ENDBRANCH   6  17
TORSDOF 7
ENDMDL
MODEL 6
REMARK VINA RESULT:      -6.7      2.656      3.728
REMARK  Name = 
REMARK  8 active torsions:
REMARK  status: ('A' for Active; 'I' for Inactive)
REMARK    1  A    between atoms: C_1  and  O_2
REMARK    2  A    between atoms: O_2  and  C_3
REMARK    3  A    between atoms: C_7  and  C_8
REMARK    4  A    between atoms: N_13  and  C_14
REMARK    5  A    between atoms: C_14  and  C_15
REMARK    6  A    between atoms: C_15  and  O_16
REMARK    7  A    between atoms: C_15  and  O_17
REMARK    8  A    between atoms: C_15  and  C_18
REMARK                            x       y       z     vdW  Elec       q    Type
REMARK                         _______ _______ _______ _____ _____    ______ ____
ROOT
ATOM      1  C   UNL     1       2.794   7.447  17.825  0.00  0.00    +0.000 C 
ATOM      2  C   UNL     1       2.162   8.160  18.769  0.00  0.00    +0.000 C 
ATOM      3  S   UNL     1       1.788   7.645  20.365  0.00  0.00    +0.000 S 
ATOM      4  C   UNL     1       0.836   9.067  20.686  0.00  0.00    +0.000 C 
ATOM      5  O   UNL     1       0.202   9.199  21.716  0.00  0.00    +0.000 OA
ATOM      6  N   UNL     1       0.860   9.922  19.617  0.00  0.00    +0.000 N 
ATOM      7  C   UNL     1       1.616   9.521  18.535  0.00  0.00    +0.000 C 
ATOM      8  O   UNL     1       1.805  10.163  17.513  0.00  0.00    +0.000 OA
ENDROOT
BRANCH   1  13
ATOM      9  C   UNL     1       5.016   4.477  18.363  0.00  0.00    +0.000 A 
ATOM     10  C   UNL     1       4.117   3.432  18.133  0.00  0.00    +0.000 A 
ATOM     11  C   UNL     1       2.768   3.693  17.872  0.00  0.00    +0.000 A 
ATOM     12  C   UNL     1       2.314   5.009  17.822  0.00  0.00    +0.000 A 
ATOM     13  C   UNL     1       3.207   6.063  18.044  0.00  0.00    +0.000 A 
ATOM     14  C   UNL     1       4.553   5.793  18.339  0.00  0.00    +0.000 A 
BRANCH   9  16
ATOM     15  C   UNL     1       7.329   4.880  17.961  0.00  0.00    +0.000 C 
ATOM     16  O   UNL     1       6.312   4.085  18.558  0.00  0.00    +0.000 OA
ENDBRANCH   9  16
ENDBRANCH   1  13
BRANCH   6  17
ATOM     17  C   UNL     1       0.215  11.236  19.601  0.00  0.00    +0.000 C 
BRANCH  17  18
ATOM     18  C   UNL     1      -1.132  11.422  18.854  0.00  0.00    +0.000 C 
BRANCH  18  19
ATOM     19  C   UNL     1      -2.103  12.341  19.682  0.00  0.00    +0.000 C 
ATOM     20  F   UNL     1      -1.696  13.635  19.687  0.00  0.00    +0.000 F 
ATOM     21  F   UNL     1      -3.363  12.327  19.194  0.00  0.00    +0.000 F 
ATOM     22  F   UNL     1      -2.160  11.956  20.980  0.00  0.00    +0.000 F 
ENDBRANCH  18  19
BRANCH  18  23
ATOM     23  O   UNL     1      -0.901  11.879  17.518  0.00  0.00    +0.000 OA
ATOM     24  H   UNL     1       0.069  11.871  17.358  0.00  0.00    +0.000 HD
ENDBRANCH  18  23
BRANCH  18  25
ATOM     25  O   UNL     1      -1.676  10.096  18.669  0.00  0.00    +0.000 OA
ATOM     26  H   UNL     1      -1.167   9.641  17.980  0.00  0.00    +0.000 HD
ENDBRANCH  18  25
ENDBRANCH  17  18
ENDBRANCH   6  17
TORSDOF 7
ENDMDL
MODEL 7
REMARK VINA RESULT:      -6.7      1.142      1.403
REMARK  Name = 
REMARK  8 active torsions:
REMARK  status: ('A' for Active; 'I' for Inactive)
REMARK    1  A    between atoms: C_1  and  O_2
REMARK    2  A    between atoms: O_2  and  C_3
REMARK    3  A    between atoms: C_7  and  C_8
REMARK    4  A    between atoms: N_13  and  C_14
REMARK    5  A    between atoms: C_14  and  C_15
REMARK    6  A    between atoms: C_15  and  O_16
REMARK    7  A    between atoms: C_15  and  O_17
REMARK    8  A    between atoms: C_15  and  C_18
REMARK                            x       y       z     vdW  Elec       q    Type
REMARK                         _______ _______ _______ _____ _____    ______ ____
ROOT
ATOM      1  C   UNL     1       2.963   5.637  19.547  0.00  0.00    +0.000 C 
ATOM      2  C   UNL     1       2.423   6.836  19.287  0.00  0.00    +0.000 C 
ATOM      3  S   UNL     1       2.778   7.852  17.946  0.00  0.00    +0.000 S 
ATOM      4  C   UNL     1       1.831   9.164  18.589  0.00  0.00    +0.000 C 
ATOM      5  O   UNL     1       1.801  10.258  18.057  0.00  0.00    +0.000 OA
ATOM      6  N   UNL     1       1.228   8.801  19.764  0.00  0.00    +0.000 N 
ATOM      7  C   UNL     1       1.459   7.511  20.192  0.00  0.00    +0.000 C 
ATOM      8  O   UNL     1       0.972   6.985  21.181  0.00  0.00    +0.000 OA
ENDROOT
BRANCH   1  13
ATOM      9  C   UNL     1       6.372   4.800  18.231  0.00  0.00    +0.000 A 
ATOM     10  C   UNL     1       6.047   4.275  16.977  0.00  0.00    +0.000 A 
ATOM     11  C   UNL     1       4.712   4.127  16.588  0.00  0.00    +0.000 A 
ATOM     12  C   UNL     1       3.691   4.523  17.449  0.00  0.00    +0.000 A 
ATOM     13  C   UNL     1       4.005   5.056  18.704  0.00  0.00    +0.000 A 
ATOM     14  C   UNL     1       5.347   5.170  19.101  0.00  0.00    +0.000 A 
BRANCH   9  16
ATOM     15  C   UNL     1       8.155   6.163  19.029  0.00  0.00    +0.000 C 
ATOM     16  O   UNL     1       7.713   4.934  18.465  0.00  0.00    +0.000 OA
ENDBRANCH   9  16
ENDBRANCH   1  13
BRANCH   6  17
ATOM     17  C   UNL     1       0.309   9.659  20.515  0.00  0.00    +0.000 C 
BRANCH  17  18
ATOM     18  C   UNL     1       0.696  10.139  21.938  0.00  0.00    +0.000 C 
BRANCH  18  19
ATOM     19  C   UNL     1      -0.370   9.665  22.992  0.00  0.00    +0.000 C 
ATOM     20  F   UNL     1      -1.265  10.643  23.282  0.00  0.00    +0.000 F 
ATOM     21  F   UNL     1      -1.080   8.599  22.560  0.00  0.00    +0.000 F 
ATOM     22  F   UNL     1       0.213   9.323  24.167  0.00  0.00    +0.000 F 
ENDBRANCH  18  19
BRANCH  18  23
ATOM     23  O   UNL     1       2.035   9.741  22.250  0.00  0.00    +0.000 OA
ATOM     24  H   UNL     1       2.579   9.848  21.439  0.00  0.00    +0.000 HD
ENDBRANCH  18  23
BRANCH  18  25
ATOM     25  O   UNL     1       0.778  11.580  21.869  0.00  0.00    +0.000 OA
ATOM     26  H   UNL     1       0.190  11.961  22.540  0.00  0.00    +0.000 HD
ENDBRANCH  18  25
ENDBRANCH  17  18
ENDBRANCH   6  17
TORSDOF 7
ENDMDL
MODEL 8
REMARK VINA RESULT:      -6.7      3.730      7.110
REMARK  Name = 
REMARK  8 active torsions:
REMARK  status: ('A' for Active; 'I' for Inactive)
REMARK    1  A    between atoms: C_1  and  O_2
REMARK    2  A    between atoms: O_2  and  C_3
REMARK    3  A    between atoms: C_7  and  C_8
REMARK    4  A    between atoms: N_13  and  C_14
REMARK    5  A    between atoms: C_14  and  C_15
REMARK    6  A    between atoms: C_15  and  O_16
REMARK    7  A    between atoms: C_15  and  O_17
REMARK    8  A    between atoms: C_15  and  C_18
REMARK                            x       y       z     vdW  Elec       q    Type
REMARK                         _______ _______ _______ _____ _____    ______ ____
ROOT
ATOM      1  C   UNL     1       0.484   9.480  20.181  0.00  0.00    +0.000 C 
ATOM      2  C   UNL     1       1.411   8.707  19.598  0.00  0.00    +0.000 C 
ATOM      3  S   UNL     1       2.153   8.970  18.070  0.00  0.00    +0.000 S 
ATOM      4  C   UNL     1       2.953   7.424  18.104  0.00  0.00    +0.000 C 
ATOM      5  O   UNL     1       3.590   7.007  17.155  0.00  0.00    +0.000 OA
ATOM      6  N   UNL     1       2.692   6.765  19.276  0.00  0.00    +0.000 N 
ATOM      7  C   UNL     1       1.892   7.429  20.181  0.00  0.00    +0.000 C 
ATOM      8  O   UNL     1       1.590   7.035  21.297  0.00  0.00    +0.000 OA
ENDROOT
BRANCH   1  13
ATOM      9  C   UNL     1      -1.683  11.604  17.979  0.00  0.00    +0.000 A 
ATOM     10  C   UNL     1      -0.961  12.799  17.974  0.00  0.00    +0.000 A 
ATOM     11  C   UNL     1       0.197  12.938  18.747  0.00  0.00    +0.000 A 
ATOM     12  C   UNL     1       0.649  11.869  19.517  0.00  0.00    +0.000 A 
ATOM     13  C   UNL     1      -0.063  10.665  19.524  0.00  0.00    +0.000 A 
ATOM     14  C   UNL     1      -1.243  10.544  18.773  0.00  0.00    +0.000 A 
BRANCH   9  16
ATOM     15  C   UNL     1      -2.650  10.837  15.941  0.00  0.00    +0.000 C 
ATOM     16  O   UNL     1      -2.767  11.586  17.144  0.00  0.00    +0.000 OA
ENDBRANCH   9  16
ENDBRANCH   1  13
BRANCH   6  17
ATOM     17  C   UNL     1       3.275   5.471  19.638  0.00  0.00    +0.000 C 
BRANCH  17  18
ATOM     18  C   UNL     1       2.559   4.161  19.217  0.00  0.00    +0.000 C 
BRANCH  18  19
ATOM     19  C   UNL     1       1.609   3.655  20.364  0.00  0.00    +0.000 C 
ATOM     20  F   UNL     1       2.129   3.892  21.594  0.00  0.00    +0.000 F 
ATOM     21  F   UNL     1       0.398   4.253  20.328  0.00  0.00    +0.000 F 
ATOM     22  F   UNL     1       1.411   2.316  20.287  0.00  0.00    +0.000 F 
ENDBRANCH  18  19
BRANCH  18  23
ATOM     23  O   UNL     1       1.904   4.335  17.957  0.00  0.00    +0.000 OA
ATOM     24  H   UNL     1       2.487   4.882  17.386  0.00  0.00    +0.000 HD
ENDBRANCH  18  23
BRANCH  18  25
ATOM     25  O   UNL     1       3.604   3.207  18.927  0.00  0.00    +0.000 OA
ATOM     26  H   UNL     1       3.555   2.962  17.989  0.00  0.00    +0.000 HD
ENDBRANCH  18  25
ENDBRANCH  17  18
ENDBRANCH   6  17
TORSDOF 7
ENDMDL
MODEL 9
REMARK VINA RESULT:      -6.7      3.919      7.285
REMARK  Name = 
REMARK  8 active torsions:
REMARK  status: ('A' for Active; 'I' for Inactive)
REMARK    1  A    between atoms: C_1  and  O_2
REMARK    2  A    between atoms: O_2  and  C_3
REMARK    3  A    between atoms: C_7  and  C_8
REMARK    4  A    between atoms: N_13  and  C_14
REMARK    5  A    between atoms: C_14  and  C_15
REMARK    6  A    between atoms: C_15  and  O_16
REMARK    7  A    between atoms: C_15  and  O_17
REMARK    8  A    between atoms: C_15  and  C_18
REMARK                            x       y       z     vdW  Elec       q    Type
REMARK                         _______ _______ _______ _____ _____    ______ ____
ROOT
ATOM      1  C   UNL     1       0.569   9.205  20.095  0.00  0.00    +0.000 C 
ATOM      2  C   UNL     1       1.540   8.527  19.466  0.00  0.00    +0.000 C 
ATOM      3  S   UNL     1       2.298   8.958  17.985  0.00  0.00    +0.000 S 
ATOM      4  C   UNL     1       3.165   7.450  17.899  0.00  0.00    +0.000 C 
ATOM      5  O   UNL     1       3.838   7.148  16.932  0.00  0.00    +0.000 OA
ATOM      6  N   UNL     1       2.912   6.678  19.002  0.00  0.00    +0.000 N 
ATOM      7  C   UNL     1       2.067   7.224  19.945  0.00  0.00    +0.000 C 
ATOM      8  O   UNL     1       1.762   6.719  21.014  0.00  0.00    +0.000 OA
ENDROOT
BRANCH   1  13
ATOM      9  C   UNL     1      -1.513  11.426  17.907  0.00  0.00    +0.000 A 
ATOM     10  C   UNL     1      -0.940  12.671  18.176  0.00  0.00    +0.000 A 
ATOM     11  C   UNL     1       0.079  12.799  19.126  0.00  0.00    +0.000 A 
ATOM     12  C   UNL     1       0.544  11.672  19.800  0.00  0.00    +0.000 A 
ATOM     13  C   UNL     1      -0.018  10.419  19.533  0.00  0.00    +0.000 A 
ATOM     14  C   UNL     1      -1.064  10.303  18.603  0.00  0.00    +0.000 A 
BRANCH   9  16
ATOM     15  C   UNL     1      -2.626  10.243  16.164  0.00  0.00    +0.000 C 
ATOM     16  O   UNL     1      -2.465  11.434  16.924  0.00  0.00    +0.000 OA
ENDBRANCH   9  16
ENDBRANCH   1  13
BRANCH   6  17
ATOM     17  C   UNL     1       3.545   5.384  19.261  0.00  0.00    +0.000 C 
BRANCH  17  18
ATOM     18  C   UNL     1       3.224   4.174  18.345  0.00  0.00    +0.000 C 
BRANCH  18  19
ATOM     19  C   UNL     1       1.672   3.934  18.268  0.00  0.00    +0.000 C 
ATOM     20  F   UNL     1       1.058   4.203  19.447  0.00  0.00    +0.000 F 
ATOM     21  F   UNL     1       1.078   4.708  17.332  0.00  0.00    +0.000 F 
ATOM     22  F   UNL     1       1.385   2.642  17.977  0.00  0.00    +0.000 F 
ENDBRANCH  18  19
BRANCH  18  23
ATOM     23  O   UNL     1       3.849   4.337  17.068  0.00  0.00    +0.000 OA
ATOM     24  H   UNL     1       4.817   4.419  17.214  0.00  0.00    +0.000 HD
ENDBRANCH  18  23
BRANCH  18  25
ATOM     25  O   UNL     1       3.913   3.041  18.918  0.00  0.00    +0.000 OA
ATOM     26  H   UNL     1       3.428   2.741  19.703  0.00  0.00    +0.000 HD
ENDBRANCH  18  25
ENDBRANCH  17  18
ENDBRANCH   6  17
TORSDOF 7
ENDMDL
