MODEL 1
REMARK VINA RESULT:      -8.5      0.000      0.000
REMARK  Name = 
REMARK  6 active torsions:
REMARK  status: ('A' for Active; 'I' for Inactive)
REMARK    1  A    between atoms: C_2  and  C_3
REMARK    2  A    between atoms: C_2  and  C_23
REMARK    3  A    between atoms: C_4  and  C_5
REMARK    4  A    between atoms: C_8  and  C_9
REMARK    5  A    between atoms: N_10  and  N_11
REMARK    6  A    between atoms: C_12  and  C_14
REMARK                            x       y       z     vdW  Elec       q    Type
REMARK                         _______ _______ _______ _____ _____    ______ ____
ROOT
ATOM      1  C   UNL     1       2.375   7.462  18.615  0.00  0.00    +0.000 A 
ATOM      2  C   UNL     1       2.049   7.479  19.979  0.00  0.00    +0.000 A 
ATOM      3  C   UNL     1       1.400   8.579  20.546  0.00  0.00    +0.000 A 
ATOM      4  C   UNL     1       1.081   9.689  19.760  0.00  0.00    +0.000 A 
ATOM      5  C   UNL     1       1.421   9.699  18.405  0.00  0.00    +0.000 A 
ATOM      6  C   UNL     1       2.070   8.589  17.838  0.00  0.00    +0.000 A 
ENDROOT
BRANCH   1   8
ATOM      7  C   UNL     1       2.676   5.045  18.206  0.00  0.00    +0.000 C 
ATOM      8  C   UNL     1       3.070   6.313  18.010  0.00  0.00    +0.000 C 
BRANCH   7  10
ATOM      9  O   UNL     1       2.903   2.803  17.433  0.00  0.00    +0.000 OA
ATOM     10  C   UNL     1       3.419   3.897  17.618  0.00  0.00    +0.000 C 
BRANCH  10  11
ATOM     11  C   UNL     1       4.822   4.160  17.197  0.00  0.00    +0.000 A 
ATOM     12  C   UNL     1       5.835   4.380  18.142  0.00  0.00    +0.000 A 
ATOM     13  C   UNL     1       7.140   4.645  17.722  0.00  0.00    +0.000 A 
ATOM     14  C   UNL     1       7.437   4.686  16.360  0.00  0.00    +0.000 A 
ATOM     15  C   UNL     1       6.431   4.446  15.422  0.00  0.00    +0.000 A 
ATOM     16 CL   UNL     1       6.811   4.496  13.744  0.00  0.00    +0.000 Cl
ATOM     17  C   UNL     1       5.126   4.176  15.832  0.00  0.00    +0.000 A 
ENDBRANCH  10  11
ENDBRANCH   7  10
ENDBRANCH   1   8
BRANCH   4  18
ATOM     18  C   UNL     1       0.389  10.849  20.366  0.00  0.00    +0.000 C 
ATOM     19  N   UNL     1      -0.858  10.768  20.688  0.00  0.00    +0.000 NA
BRANCH  19  20
ATOM     20  N   UNL     1      -1.450  11.867  21.236  0.00  0.00    +0.000 N 
ATOM     21  C   UNL     1      -1.471  11.974  22.621  0.00  0.00    +0.000 C 
ATOM     22  O   UNL     1      -0.950  11.174  23.396  0.00  0.00    +0.000 OA
ATOM     23  H   UNL     1      -1.789  12.605  20.632  0.00  0.00    +0.000 HD
BRANCH  21  24
ATOM     24  C   UNL     1      -2.159  13.162  23.195  0.00  0.00    +0.000 A 
ATOM     25  C   UNL     1      -1.371  14.127  23.843  0.00  0.00    +0.000 A 
ATOM     26  C   UNL     1      -1.962  15.231  24.460  0.00  0.00    +0.000 A 
ATOM     27  C   UNL     1      -3.349  15.372  24.441  0.00  0.00    +0.000 A 
ATOM     28  C   UNL     1      -4.134  14.410  23.804  0.00  0.00    +0.000 A 
ATOM     29 CL   UNL     1      -5.847  14.578  23.808  0.00  0.00    +0.000 Cl
ATOM     30  C   UNL     1      -3.551  13.304  23.180  0.00  0.00    +0.000 A 
ENDBRANCH  21  24
ENDBRANCH  19  20
ENDBRANCH   4  18
TORSDOF 6
ENDMDL
MODEL 2
REMARK VINA RESULT:      -8.4      1.020      1.355
REMARK  Name = 
REMARK  6 active torsions:
REMARK  status: ('A' for Active; 'I' for Inactive)
REMARK    1  A    between atoms: C_2  and  C_3
REMARK    2  A    between atoms: C_2  and  C_23
REMARK    3  A    between atoms: C_4  and  C_5
REMARK    4  A    between atoms: C_8  and  C_9
REMARK    5  A    between atoms: N_10  and  N_11
REMARK    6  A    between atoms: C_12  and  C_14
REMARK                            x       y       z     vdW  Elec       q    Type
REMARK                         _______ _______ _______ _____ _____    ______ ____
ROOT
ATOM      1  C   UNL     1       2.304   7.558  18.587  0.00  0.00    +0.000 A 
ATOM      2  C   UNL     1       1.978   7.570  19.951  0.00  0.00    +0.000 A 
ATOM      3  C   UNL     1       1.334   8.670  20.523  0.00  0.00    +0.000 A 
ATOM      4  C   UNL     1       1.022   9.786  19.744  0.00  0.00    +0.000 A 
ATOM      5  C   UNL     1       1.363   9.801  18.389  0.00  0.00    +0.000 A 
ATOM      6  C   UNL     1       2.006   8.691  17.816  0.00  0.00    +0.000 A 
ENDROOT
BRANCH   1   8
ATOM      7  C   UNL     1       2.499   5.161  18.026  0.00  0.00    +0.000 C 
ATOM      8  C   UNL     1       2.992   6.409  17.976  0.00  0.00    +0.000 C 
BRANCH   7  10
ATOM      9  O   UNL     1       2.699   2.931  17.211  0.00  0.00    +0.000 OA
ATOM     10  C   UNL     1       3.235   4.008  17.438  0.00  0.00    +0.000 C 
BRANCH  10  11
ATOM     11  C   UNL     1       4.657   4.245  17.069  0.00  0.00    +0.000 A 
ATOM     12  C   UNL     1       5.103   4.082  15.749  0.00  0.00    +0.000 A 
ATOM     13  C   UNL     1       6.446   4.289  15.433  0.00  0.00    +0.000 A 
ATOM     14  C   UNL     1       7.345   4.665  16.430  0.00  0.00    +0.000 A 
ATOM     15  C   UNL     1       6.896   4.847  17.738  0.00  0.00    +0.000 A 
ATOM     16 CL   UNL     1       8.014   5.314  18.960  0.00  0.00    +0.000 Cl
ATOM     17  C   UNL     1       5.554   4.647  18.064  0.00  0.00    +0.000 A 
ENDBRANCH  10  11
ENDBRANCH   7  10
ENDBRANCH   1   8
BRANCH   4  18
ATOM     18  C   UNL     1       0.336  10.947  20.356  0.00  0.00    +0.000 C 
ATOM     19  N   UNL     1      -0.900  10.857  20.717  0.00  0.00    +0.000 NA
BRANCH  19  20
ATOM     20  N   UNL     1      -1.487  11.956  21.269  0.00  0.00    +0.000 N 
ATOM     21  C   UNL     1      -1.521  12.052  22.655  0.00  0.00    +0.000 C 
ATOM     22  O   UNL     1      -1.017  11.239  23.427  0.00  0.00    +0.000 OA
ATOM     23  H   UNL     1      -1.812  12.703  20.667  0.00  0.00    +0.000 HD
BRANCH  21  24
ATOM     24  C   UNL     1      -2.204  13.241  23.232  0.00  0.00    +0.000 A 
ATOM     25  C   UNL     1      -1.415  14.183  23.913  0.00  0.00    +0.000 A 
ATOM     26  C   UNL     1      -2.003  15.286  24.534  0.00  0.00    +0.000 A 
ATOM     27  C   UNL     1      -3.387  15.449  24.486  0.00  0.00    +0.000 A 
ATOM     28  C   UNL     1      -4.172  14.510  23.816  0.00  0.00    +0.000 A 
ATOM     29 CL   UNL     1      -5.882  14.706  23.785  0.00  0.00    +0.000 Cl
ATOM     30  C   UNL     1      -3.592  13.405  23.188  0.00  0.00    +0.000 A 
ENDBRANCH  21  24
ENDBRANCH  19  20
ENDBRANCH   4  18
TORSDOF 6
ENDMDL
MODEL 3
REMARK VINA RESULT:      -8.2      1.136      1.702
REMARK  Name = 
REMARK  6 active torsions:
REMARK  status: ('A' for Active; 'I' for Inactive)
REMARK    1  A    between atoms: C_2  and  C_3
REMARK    2  A    between atoms: C_2  and  C_23
REMARK    3  A    between atoms: C_4  and  C_5
REMARK    4  A    between atoms: C_8  and  C_9
REMARK    5  A    between atoms: N_10  and  N_11
REMARK    6  A    between atoms: C_12  and  C_14
REMARK                            x       y       z     vdW  Elec       q    Type
REMARK                         _______ _______ _______ _____ _____    ______ ____
ROOT
ATOM      1  C   UNL     1       2.544   7.085  18.982  0.00  0.00    +0.000 A 
ATOM      2  C   UNL     1       2.251   8.170  18.143  0.00  0.00    +0.000 A 
ATOM      3  C   UNL     1       1.490   9.246  18.605  0.00  0.00    +0.000 A 
ATOM      4  C   UNL     1       0.992   9.247  19.910  0.00  0.00    +0.000 A 
ATOM      5  C   UNL     1       1.252   8.162  20.750  0.00  0.00    +0.000 A 
ATOM      6  C   UNL     1       2.023   7.083  20.283  0.00  0.00    +0.000 A 
ENDROOT
BRANCH   1   8
ATOM      7  C   UNL     1       2.792   4.922  17.817  0.00  0.00    +0.000 C 
ATOM      8  C   UNL     1       3.336   5.939  18.502  0.00  0.00    +0.000 C 
BRANCH   7  10
ATOM      9  O   UNL     1       3.219   2.598  17.501  0.00  0.00    +0.000 OA
ATOM     10  C   UNL     1       3.605   3.754  17.379  0.00  0.00    +0.000 C 
BRANCH  10  11
ATOM     11  C   UNL     1       4.902   4.058  16.716  0.00  0.00    +0.000 A 
ATOM     12  C   UNL     1       6.003   4.521  17.451  0.00  0.00    +0.000 A 
ATOM     13  C   UNL     1       7.203   4.820  16.803  0.00  0.00    +0.000 A 
ATOM     14  C   UNL     1       7.308   4.651  15.422  0.00  0.00    +0.000 A 
ATOM     15  C   UNL     1       6.217   4.171  14.696  0.00  0.00    +0.000 A 
ATOM     16 CL   UNL     1       6.360   3.965  12.993  0.00  0.00    +0.000 Cl
ATOM     17  C   UNL     1       5.016   3.865  15.335  0.00  0.00    +0.000 A 
ENDBRANCH  10  11
ENDBRANCH   7  10
ENDBRANCH   1   8
BRANCH   4  18
ATOM     18  C   UNL     1       0.189  10.393  20.394  0.00  0.00    +0.000 C 
ATOM     19  N   UNL     1       0.651  11.169  21.316  0.00  0.00    +0.000 NA
BRANCH  19  20
ATOM     20  N   UNL     1      -0.130  12.205  21.732  0.00  0.00    +0.000 N 
ATOM     21  C   UNL     1      -0.979  11.990  22.811  0.00  0.00    +0.000 C 
ATOM     22  O   UNL     1      -1.045  10.946  23.455  0.00  0.00    +0.000 OA
ATOM     23  H   UNL     1      -0.023  13.115  21.301  0.00  0.00    +0.000 HD
BRANCH  21  24
ATOM     24  C   UNL     1      -1.852  13.125  23.218  0.00  0.00    +0.000 A 
ATOM     25  C   UNL     1      -3.219  13.045  22.906  0.00  0.00    +0.000 A 
ATOM     26  C   UNL     1      -4.079  14.104  23.201  0.00  0.00    +0.000 A 
ATOM     27  C   UNL     1      -3.574  15.256  23.803  0.00  0.00    +0.000 A 
ATOM     28  C   UNL     1      -2.214  15.340  24.105  0.00  0.00    +0.000 A 
ATOM     29 CL   UNL     1      -1.595  16.777  24.823  0.00  0.00    +0.000 Cl
ATOM     30  C   UNL     1      -1.347  14.283  23.818  0.00  0.00    +0.000 A 
ENDBRANCH  21  24
ENDBRANCH  19  20
ENDBRANCH   4  18
TORSDOF 6
ENDMDL
MODEL 4
REMARK VINA RESULT:      -8.2      1.603      2.204
REMARK  Name = 
REMARK  6 active torsions:
REMARK  status: ('A' for Active; 'I' for Inactive)
REMARK    1  A    between atoms: C_2  and  C_3
REMARK    2  A    between atoms: C_2  and  C_23
REMARK    3  A    between atoms: C_4  and  C_5
REMARK    4  A    between atoms: C_8  and  C_9
REMARK    5  A    between atoms: N_10  and  N_11
REMARK    6  A    between atoms: C_12  and  C_14
REMARK                            x       y       z     vdW  Elec       q    Type
REMARK                         _______ _______ _______ _____ _____    ______ ____
ROOT
ATOM      1  C   UNL     1       2.257   7.575  18.648  0.00  0.00    +0.000 A 
ATOM      2  C   UNL     1       1.820   8.667  17.884  0.00  0.00    +0.000 A 
ATOM      3  C   UNL     1       1.126   9.724  18.478  0.00  0.00    +0.000 A 
ATOM      4  C   UNL     1       0.839   9.698  19.845  0.00  0.00    +0.000 A 
ATOM      5  C   UNL     1       1.244   8.605  20.616  0.00  0.00    +0.000 A 
ATOM      6  C   UNL     1       1.947   7.546  20.015  0.00  0.00    +0.000 A 
ENDROOT
BRANCH   1   8
ATOM      7  C   UNL     1       2.598   5.174  18.186  0.00  0.00    +0.000 C 
ATOM      8  C   UNL     1       2.980   6.451  18.030  0.00  0.00    +0.000 C 
BRANCH   7  10
ATOM      9  O   UNL     1       2.848   2.990  17.264  0.00  0.00    +0.000 OA
ATOM     10  C   UNL     1       3.369   4.050  17.587  0.00  0.00    +0.000 C 
BRANCH  10  11
ATOM     11  C   UNL     1       4.815   4.297  17.333  0.00  0.00    +0.000 A 
ATOM     12  C   UNL     1       5.382   4.060  16.073  0.00  0.00    +0.000 A 
ATOM     13  C   UNL     1       6.745   4.279  15.865  0.00  0.00    +0.000 A 
ATOM     14  C   UNL     1       7.542   4.742  16.912  0.00  0.00    +0.000 A 
ATOM     15  C   UNL     1       6.971   4.997  18.160  0.00  0.00    +0.000 A 
ATOM     16 CL   UNL     1       7.964   5.571  19.443  0.00  0.00    +0.000 Cl
ATOM     17  C   UNL     1       5.610   4.786  18.376  0.00  0.00    +0.000 A 
ENDBRANCH  10  11
ENDBRANCH   7  10
ENDBRANCH   1   8
BRANCH   4  18
ATOM     18  C   UNL     1       0.106  10.822  20.468  0.00  0.00    +0.000 C 
ATOM     19  N   UNL     1       0.727  11.666  21.224  0.00  0.00    +0.000 NA
BRANCH  19  20
ATOM     20  N   UNL     1       0.005  12.679  21.779  0.00  0.00    +0.000 N 
ATOM     21  C   UNL     1      -0.855  12.370  22.826  0.00  0.00    +0.000 C 
ATOM     22  O   UNL     1      -0.981  11.254  23.325  0.00  0.00    +0.000 OA
ATOM     23  H   UNL     1       0.164  13.631  21.474  0.00  0.00    +0.000 HD
BRANCH  21  24
ATOM     24  C   UNL     1      -1.663  13.487  23.387  0.00  0.00    +0.000 A 
ATOM     25  C   UNL     1      -3.003  13.225  23.718  0.00  0.00    +0.000 A 
ATOM     26  C   UNL     1      -3.831  14.245  24.187  0.00  0.00    +0.000 A 
ATOM     27  C   UNL     1      -3.328  15.538  24.318  0.00  0.00    +0.000 A 
ATOM     28  C   UNL     1      -1.999  15.802  23.981  0.00  0.00    +0.000 A 
ATOM     29 CL   UNL     1      -1.393  17.407  24.121  0.00  0.00    +0.000 Cl
ATOM     30  C   UNL     1      -1.160  14.785  23.516  0.00  0.00    +0.000 A 
ENDBRANCH  21  24
ENDBRANCH  19  20
ENDBRANCH   4  18
TORSDOF 6
ENDMDL
MODEL 5
REMARK VINA RESULT:      -8.2      1.011      1.332
REMARK  Name = 
REMARK  6 active torsions:
REMARK  status: ('A' for Active; 'I' for Inactive)
REMARK    1  A    between atoms: C_2  and  C_3
REMARK    2  A    between atoms: C_2  and  C_23
REMARK    3  A    between atoms: C_4  and  C_5
REMARK    4  A    between atoms: C_8  and  C_9
REMARK    5  A    between atoms: N_10  and  N_11
REMARK    6  A    between atoms: C_12  and  C_14
REMARK                            x       y       z     vdW  Elec       q    Type
REMARK                         _______ _______ _______ _____ _____    ______ ____
ROOT
ATOM      1  C   UNL     1       2.436   7.358  18.809  0.00  0.00    +0.000 A 
ATOM      2  C   UNL     1       1.978   7.556  20.119  0.00  0.00    +0.000 A 
ATOM      3  C   UNL     1       1.188   8.662  20.442  0.00  0.00    +0.000 A 
ATOM      4  C   UNL     1       0.858   9.601  19.461  0.00  0.00    +0.000 A 
ATOM      5  C   UNL     1       1.328   9.433  18.157  0.00  0.00    +0.000 A 
ATOM      6  C   UNL     1       2.118   8.316  17.835  0.00  0.00    +0.000 A 
ENDROOT
BRANCH   1   8
ATOM      7  C   UNL     1       2.859   4.935  18.598  0.00  0.00    +0.000 C 
ATOM      8  C   UNL     1       3.279   6.202  18.460  0.00  0.00    +0.000 C 
BRANCH   7  10
ATOM      9  O   UNL     1       3.481   2.634  18.618  0.00  0.00    +0.000 OA
ATOM     10  C   UNL     1       3.744   3.781  18.279  0.00  0.00    +0.000 C 
BRANCH  10  11
ATOM     11  C   UNL     1       4.952   4.076  17.461  0.00  0.00    +0.000 A 
ATOM     12  C   UNL     1       6.134   4.545  18.053  0.00  0.00    +0.000 A 
ATOM     13  C   UNL     1       7.247   4.835  17.262  0.00  0.00    +0.000 A 
ATOM     14  C   UNL     1       7.185   4.652  15.881  0.00  0.00    +0.000 A 
ATOM     15  C   UNL     1       6.014   4.165  15.296  0.00  0.00    +0.000 A 
ATOM     16 CL   UNL     1       5.951   3.941  13.592  0.00  0.00    +0.000 Cl
ATOM     17  C   UNL     1       4.899   3.868  16.079  0.00  0.00    +0.000 A 
ENDBRANCH  10  11
ENDBRANCH   7  10
ENDBRANCH   1   8
BRANCH   4  18
ATOM     18  C   UNL     1       0.018  10.769  19.810  0.00  0.00    +0.000 C 
ATOM     19  N   UNL     1      -0.515  10.862  20.982  0.00  0.00    +0.000 NA
BRANCH  19  20
ATOM     20  N   UNL     1      -1.286  11.953  21.250  0.00  0.00    +0.000 N 
ATOM     21  C   UNL     1      -1.961  11.993  22.464  0.00  0.00    +0.000 C 
ATOM     22  O   UNL     1      -1.877  11.138  23.343  0.00  0.00    +0.000 OA
ATOM     23  H   UNL     1      -1.291  12.731  20.603  0.00  0.00    +0.000 HD
BRANCH  21  24
ATOM     24  C   UNL     1      -2.828  13.176  22.714  0.00  0.00    +0.000 A 
ATOM     25  C   UNL     1      -3.848  13.448  21.787  0.00  0.00    +0.000 A 
ATOM     26  C   UNL     1      -4.654  14.579  21.928  0.00  0.00    +0.000 A 
ATOM     27  C   UNL     1      -4.438  15.452  22.994  0.00  0.00    +0.000 A 
ATOM     28  C   UNL     1      -3.420  15.186  23.911  0.00  0.00    +0.000 A 
ATOM     29 CL   UNL     1      -3.143  16.283  25.209  0.00  0.00    +0.000 Cl
ATOM     30  C   UNL     1      -2.611  14.054  23.781  0.00  0.00    +0.000 A 
ENDBRANCH  21  24
ENDBRANCH  19  20
ENDBRANCH   4  18
TORSDOF 6
ENDMDL
MODEL 6
REMARK VINA RESULT:      -8.1      1.758      2.267
REMARK  Name = 
REMARK  6 active torsions:
REMARK  status: ('A' for Active; 'I' for Inactive)
REMARK    1  A    between atoms: C_2  and  C_3
REMARK    2  A    between atoms: C_2  and  C_23
REMARK    3  A    between atoms: C_4  and  C_5
REMARK    4  A    between atoms: C_8  and  C_9
REMARK    5  A    between atoms: N_10  and  N_11
REMARK    6  A    between atoms: C_12  and  C_14
REMARK                            x       y       z     vdW  Elec       q    Type
REMARK                         _______ _______ _______ _____ _____    ______ ____
ROOT
ATOM      1  C   UNL     1       1.699   7.853  20.020  0.00  0.00    +0.000 A 
ATOM      2  C   UNL     1       1.171   7.921  21.317  0.00  0.00    +0.000 A 
ATOM      3  C   UNL     1       0.525   9.076  21.767  0.00  0.00    +0.000 A 
ATOM      4  C   UNL     1       0.413  10.190  20.931  0.00  0.00    +0.000 A 
ATOM      5  C   UNL     1       0.956  10.147  19.645  0.00  0.00    +0.000 A 
ATOM      6  C   UNL     1       1.601   8.982  19.195  0.00  0.00    +0.000 A 
ENDROOT
BRANCH   1   8
ATOM      7  C   UNL     1       2.474   6.329  18.238  0.00  0.00    +0.000 C 
ATOM      8  C   UNL     1       2.392   6.645  19.540  0.00  0.00    +0.000 C 
BRANCH   7  10
ATOM      9  O   UNL     1       2.604   3.983  17.844  0.00  0.00    +0.000 OA
ATOM     10  C   UNL     1       3.142   5.081  17.779  0.00  0.00    +0.000 C 
BRANCH  10  11
ATOM     11  C   UNL     1       4.490   5.235  17.168  0.00  0.00    +0.000 A 
ATOM     12  C   UNL     1       4.948   4.346  16.184  0.00  0.00    +0.000 A 
ATOM     13  C   UNL     1       6.224   4.499  15.641  0.00  0.00    +0.000 A 
ATOM     14  C   UNL     1       7.044   5.541  16.073  0.00  0.00    +0.000 A 
ATOM     15  C   UNL     1       6.578   6.437  17.037  0.00  0.00    +0.000 A 
ATOM     16 CL   UNL     1       7.598   7.721  17.561  0.00  0.00    +0.000 Cl
ATOM     17  C   UNL     1       5.303   6.295  17.582  0.00  0.00    +0.000 A 
ENDBRANCH  10  11
ENDBRANCH   7  10
ENDBRANCH   1   8
BRANCH   4  18
ATOM     18  C   UNL     1      -0.276  11.408  21.414  0.00  0.00    +0.000 C 
ATOM     19  N   UNL     1      -0.419  11.618  22.679  0.00  0.00    +0.000 NA
BRANCH  19  20
ATOM     20  N   UNL     1      -1.067  12.751  23.071  0.00  0.00    +0.000 N 
ATOM     21  C   UNL     1      -2.390  12.638  23.480  0.00  0.00    +0.000 C 
ATOM     22  O   UNL     1      -3.011  11.580  23.563  0.00  0.00    +0.000 OA
ATOM     23  H   UNL     1      -0.557  13.624  23.127  0.00  0.00    +0.000 HD
BRANCH  21  24
ATOM     24  C   UNL     1      -3.088  13.895  23.863  0.00  0.00    +0.000 A 
ATOM     25  C   UNL     1      -4.415  14.066  23.433  0.00  0.00    +0.000 A 
ATOM     26  C   UNL     1      -5.102  15.250  23.702  0.00  0.00    +0.000 A 
ATOM     27  C   UNL     1      -4.463  16.277  24.395  0.00  0.00    +0.000 A 
ATOM     28  C   UNL     1      -3.142  16.112  24.815  0.00  0.00    +0.000 A 
ATOM     29 CL   UNL     1      -2.352  17.396  25.647  0.00  0.00    +0.000 Cl
ATOM     30  C   UNL     1      -2.447  14.928  24.555  0.00  0.00    +0.000 A 
ENDBRANCH  21  24
ENDBRANCH  19  20
ENDBRANCH   4  18
TORSDOF 6
ENDMDL
MODEL 7
REMARK VINA RESULT:      -8.1      1.558      1.990
REMARK  Name = 
REMARK  6 active torsions:
REMARK  status: ('A' for Active; 'I' for Inactive)
REMARK    1  A    between atoms: C_2  and  C_3
REMARK    2  A    between atoms: C_2  and  C_23
REMARK    3  A    between atoms: C_4  and  C_5
REMARK    4  A    between atoms: C_8  and  C_9
REMARK    5  A    between atoms: N_10  and  N_11
REMARK    6  A    between atoms: C_12  and  C_14
REMARK                            x       y       z     vdW  Elec       q    Type
REMARK                         _______ _______ _______ _____ _____    ______ ____
ROOT
ATOM      1  C   UNL     1       1.965   7.866  18.571  0.00  0.00    +0.000 A 
ATOM      2  C   UNL     1       1.699   7.832  19.947  0.00  0.00    +0.000 A 
ATOM      3  C   UNL     1       1.153   8.940  20.600  0.00  0.00    +0.000 A 
ATOM      4  C   UNL     1       0.879  10.111  19.888  0.00  0.00    +0.000 A 
ATOM      5  C   UNL     1       1.162  10.171  18.521  0.00  0.00    +0.000 A 
ATOM      6  C   UNL     1       1.707   9.052  17.868  0.00  0.00    +0.000 A 
ENDROOT
BRANCH   1   8
ATOM      7  C   UNL     1       2.586   5.481  18.419  0.00  0.00    +0.000 C 
ATOM      8  C   UNL     1       2.551   6.708  17.876  0.00  0.00    +0.000 C 
BRANCH   7  10
ATOM      9  O   UNL     1       2.591   3.350  17.354  0.00  0.00    +0.000 OA
ATOM     10  C   UNL     1       3.222   4.335  17.715  0.00  0.00    +0.000 C 
BRANCH  10  11
ATOM     11  C   UNL     1       4.672   4.466  17.406  0.00  0.00    +0.000 A 
ATOM     12  C   UNL     1       5.182   4.111  16.149  0.00  0.00    +0.000 A 
ATOM     13  C   UNL     1       6.549   4.223  15.889  0.00  0.00    +0.000 A 
ATOM     14  C   UNL     1       7.408   4.696  16.881  0.00  0.00    +0.000 A 
ATOM     15  C   UNL     1       6.895   5.068  18.124  0.00  0.00    +0.000 A 
ATOM     16 CL   UNL     1       7.965   5.653  19.339  0.00  0.00    +0.000 Cl
ATOM     17  C   UNL     1       5.530   4.964  18.391  0.00  0.00    +0.000 A 
ENDBRANCH  10  11
ENDBRANCH   7  10
ENDBRANCH   1   8
BRANCH   4  18
ATOM     18  C   UNL     1       0.297  11.280  20.584  0.00  0.00    +0.000 C 
ATOM     19  N   UNL     1      -0.965  11.316  20.853  0.00  0.00    +0.000 NA
BRANCH  19  20
ATOM     20  N   UNL     1      -1.453  12.418  21.488  0.00  0.00    +0.000 N 
ATOM     21  C   UNL     1      -1.976  12.257  22.765  0.00  0.00    +0.000 C 
ATOM     22  O   UNL     1      -1.989  11.199  23.391  0.00  0.00    +0.000 OA
ATOM     23  H   UNL     1      -1.356  13.328  21.055  0.00  0.00    +0.000 HD
BRANCH  21  24
ATOM     24  C   UNL     1      -2.540  13.469  23.420  0.00  0.00    +0.000 A 
ATOM     25  C   UNL     1      -3.826  13.883  23.037  0.00  0.00    +0.000 A 
ATOM     26  C   UNL     1      -4.385  15.048  23.565  0.00  0.00    +0.000 A 
ATOM     27  C   UNL     1      -3.655  15.813  24.474  0.00  0.00    +0.000 A 
ATOM     28  C   UNL     1      -2.374  15.407  24.849  0.00  0.00    +0.000 A 
ATOM     29 CL   UNL     1      -1.470  16.372  25.951  0.00  0.00    +0.000 Cl
ATOM     30  C   UNL     1      -1.808  14.240  24.329  0.00  0.00    +0.000 A 
ENDBRANCH  21  24
ENDBRANCH  19  20
ENDBRANCH   4  18
TORSDOF 6
ENDMDL
MODEL 8
REMARK VINA RESULT:      -8.0      1.225      1.431
REMARK  Name = 
REMARK  6 active torsions:
REMARK  status: ('A' for Active; 'I' for Inactive)
REMARK    1  A    between atoms: C_2  and  C_3
REMARK    2  A    between atoms: C_2  and  C_23
REMARK    3  A    between atoms: C_4  and  C_5
REMARK    4  A    between atoms: C_8  and  C_9
REMARK    5  A    between atoms: N_10  and  N_11
REMARK    6  A    between atoms: C_12  and  C_14
REMARK                            x       y       z     vdW  Elec       q    Type
REMARK                         _______ _______ _______ _____ _____    ______ ____
ROOT
ATOM      1  C   UNL     1       2.205   7.158  19.542  0.00  0.00    +0.000 A 
ATOM      2  C   UNL     1       1.675   7.316  20.830  0.00  0.00    +0.000 A 
ATOM      3  C   UNL     1       0.991   8.481  21.185  0.00  0.00    +0.000 A 
ATOM      4  C   UNL     1       0.840   9.518  20.260  0.00  0.00    +0.000 A 
ATOM      5  C   UNL     1       1.384   9.387  18.980  0.00  0.00    +0.000 A 
ATOM      6  C   UNL     1       2.068   8.211  18.626  0.00  0.00    +0.000 A 
ENDROOT
BRANCH   1   8
ATOM      7  C   UNL     1       2.737   5.311  17.992  0.00  0.00    +0.000 C 
ATOM      8  C   UNL     1       2.938   5.939  19.161  0.00  0.00    +0.000 C 
BRANCH   7  10
ATOM      9  O   UNL     1       2.968   2.946  17.809  0.00  0.00    +0.000 OA
ATOM     10  C   UNL     1       3.460   4.056  17.647  0.00  0.00    +0.000 C 
BRANCH  10  11
ATOM     11  C   UNL     1       4.803   4.212  17.025  0.00  0.00    +0.000 A 
ATOM     12  C   UNL     1       5.924   4.556  17.794  0.00  0.00    +0.000 A 
ATOM     13  C   UNL     1       7.169   4.717  17.185  0.00  0.00    +0.000 A 
ATOM     14  C   UNL     1       7.300   4.528  15.809  0.00  0.00    +0.000 A 
ATOM     15  C   UNL     1       6.187   4.166  15.049  0.00  0.00    +0.000 A 
ATOM     16 CL   UNL     1       6.361   3.933  13.353  0.00  0.00    +0.000 Cl
ATOM     17  C   UNL     1       4.939   3.998  15.650  0.00  0.00    +0.000 A 
ENDBRANCH  10  11
ENDBRANCH   7  10
ENDBRANCH   1   8
BRANCH   4  18
ATOM     18  C   UNL     1       0.110  10.747  20.642  0.00  0.00    +0.000 C 
ATOM     19  N   UNL     1       0.322  11.302  21.788  0.00  0.00    +0.000 NA
BRANCH  19  20
ATOM     20  N   UNL     1      -0.381  12.428  22.094  0.00  0.00    +0.000 N 
ATOM     21  C   UNL     1      -1.522  12.293  22.875  0.00  0.00    +0.000 C 
ATOM     22  O   UNL     1      -1.923  11.235  23.356  0.00  0.00    +0.000 OA
ATOM     23  H   UNL     1      -0.022  13.332  21.814  0.00  0.00    +0.000 HD
BRANCH  21  24
ATOM     24  C   UNL     1      -2.295  13.532  23.161  0.00  0.00    +0.000 A 
ATOM     25  C   UNL     1      -3.480  13.410  23.905  0.00  0.00    +0.000 A 
ATOM     26  C   UNL     1      -4.284  14.524  24.150  0.00  0.00    +0.000 A 
ATOM     27  C   UNL     1      -3.913  15.768  23.643  0.00  0.00    +0.000 A 
ATOM     28  C   UNL     1      -2.741  15.890  22.896  0.00  0.00    +0.000 A 
ATOM     29 CL   UNL     1      -2.305  17.425  22.250  0.00  0.00    +0.000 Cl
ATOM     30  C   UNL     1      -1.927  14.781  22.649  0.00  0.00    +0.000 A 
ENDBRANCH  21  24
ENDBRANCH  19  20
ENDBRANCH   4  18
TORSDOF 6
ENDMDL
MODEL 9
REMARK VINA RESULT:      -8.0      1.505      2.093
REMARK  Name = 
REMARK  6 active torsions:
REMARK  status: ('A' for Active; 'I' for Inactive)
REMARK    1  A    between atoms: C_2  and  C_3
REMARK    2  A    between atoms: C_2  and  C_23
REMARK    3  A    between atoms: C_4  and  C_5
REMARK    4  A    between atoms: C_8  and  C_9
REMARK    5  A    between atoms: N_10  and  N_11
REMARK    6  A    between atoms: C_12  and  C_14
REMARK                            x       y       z     vdW  Elec       q    Type
REMARK                         _______ _______ _______ _____ _____    ______ ____
ROOT
ATOM      1  C   UNL     1       1.801   7.998  19.993  0.00  0.00    +0.000 A 
ATOM      2  C   UNL     1       1.604   9.098  19.147  0.00  0.00    +0.000 A 
ATOM      3  C   UNL     1       1.001  10.266  19.619  0.00  0.00    +0.000 A 
ATOM      4  C   UNL     1       0.567  10.347  20.945  0.00  0.00    +0.000 A 
ATOM      5  C   UNL     1       0.732   9.250  21.795  0.00  0.00    +0.000 A 
ATOM      6  C   UNL     1       1.343   8.079  21.316  0.00  0.00    +0.000 A 
ENDROOT
BRANCH   1   8
ATOM      7  C   UNL     1       2.492   6.450  18.197  0.00  0.00    +0.000 C 
ATOM      8  C   UNL     1       2.425   6.758  19.502  0.00  0.00    +0.000 C 
BRANCH   7  10
ATOM      9  O   UNL     1       2.476   4.111  17.742  0.00  0.00    +0.000 OA
ATOM     10  C   UNL     1       3.090   5.170  17.728  0.00  0.00    +0.000 C 
BRANCH  10  11
ATOM     11  C   UNL     1       4.467   5.246  17.169  0.00  0.00    +0.000 A 
ATOM     12  C   UNL     1       4.949   4.267  16.288  0.00  0.00    +0.000 A 
ATOM     13  C   UNL     1       6.251   4.348  15.794  0.00  0.00    +0.000 A 
ATOM     14  C   UNL     1       7.074   5.409  16.173  0.00  0.00    +0.000 A 
ATOM     15  C   UNL     1       6.585   6.393  17.034  0.00  0.00    +0.000 A 
ATOM     16 CL   UNL     1       7.608   7.699  17.492  0.00  0.00    +0.000 Cl
ATOM     17  C   UNL     1       5.283   6.323  17.529  0.00  0.00    +0.000 A 
ENDBRANCH  10  11
ENDBRANCH   7  10
ENDBRANCH   1   8
BRANCH   4  18
ATOM     18  C   UNL     1      -0.068  11.589  21.441  0.00  0.00    +0.000 C 
ATOM     19  N   UNL     1      -1.315  11.594  21.776  0.00  0.00    +0.000 NA
BRANCH  19  20
ATOM     20  N   UNL     1      -1.853  12.765  22.218  0.00  0.00    +0.000 N 
ATOM     21  C   UNL     1      -2.814  12.704  23.220  0.00  0.00    +0.000 C 
ATOM     22  O   UNL     1      -3.184  11.673  23.777  0.00  0.00    +0.000 OA
ATOM     23  H   UNL     1      -1.494  13.644  21.867  0.00  0.00    +0.000 HD
BRANCH  21  24
ATOM     24  C   UNL     1      -3.416  13.993  23.656  0.00  0.00    +0.000 A 
ATOM     25  C   UNL     1      -2.636  14.843  24.458  0.00  0.00    +0.000 A 
ATOM     26  C   UNL     1      -3.165  16.035  24.954  0.00  0.00    +0.000 A 
ATOM     27  C   UNL     1      -4.483  16.381  24.660  0.00  0.00    +0.000 A 
ATOM     28  C   UNL     1      -5.262  15.534  23.870  0.00  0.00    +0.000 A 
ATOM     29 CL   UNL     1      -6.896  15.957  23.534  0.00  0.00    +0.000 Cl
ATOM     30  C   UNL     1      -4.739  14.341  23.365  0.00  0.00    +0.000 A 
ENDBRANCH  21  24
ENDBRANCH  19  20
ENDBRANCH   4  18
TORSDOF 6
ENDMDL
