MODEL 1
REMARK VINA RESULT:      -8.0      0.000      0.000
REMARK  Name = 
REMARK  8 active torsions:
REMARK  status: ('A' for Active; 'I' for Inactive)
REMARK    1  A    between atoms: C_1  and  C_2
REMARK    2  A    between atoms: N_4  and  C_5
REMARK    3  A    between atoms: C_8  and  S_9
REMARK    4  A    between atoms: S_9  and  N_12
REMARK    5  A    between atoms: N_12  and  C_13
REMARK    6  A    between atoms: C_13  and  C_14
REMARK    7  A    between atoms: C_21  and  C_22
REMARK    8  A    between atoms: C_23  and  C_24
REMARK                            x       y       z     vdW  Elec       q    Type
REMARK                         _______ _______ _______ _____ _____    ______ ____
ROOT
ATOM      1  N   UNL     1       4.302   6.505  17.964  0.00  0.00    +0.000 NA
ATOM      2  H   UNL     1       4.591   7.382  18.415  0.00  0.00    +0.000 HD
ENDROOT
BRANCH   1   3
ATOM      3  C   UNL     1       5.477   5.605  17.632  0.00  0.00    +0.000 C 
ATOM      4  C   UNL     1       6.364   6.487  16.732  0.00  0.00    +0.000 C 
ATOM      5  O   UNL     1       6.894   7.541  17.047  0.00  0.00    +0.000 OA
ATOM      6  N   UNL     1       6.379   5.942  15.455  0.00  0.00    +0.000 N 
ATOM      7  C   UNL     1       5.618   4.816  15.384  0.00  0.00    +0.000 C 
ATOM      8  C   UNL     1       5.464   4.046  14.122  0.00  0.00    +0.000 C 
ATOM      9  C   UNL     1       5.095   4.585  16.591  0.00  0.00    +0.000 C 
ATOM     10  H   UNL     1       6.890   6.365  14.690  0.00  0.00    +0.000 HD
BRANCH   3  11
ATOM     11  C   UNL     1       6.386   5.086  18.765  0.00  0.00    +0.000 C 
ATOM     12  F   UNL     1       6.561   5.994  19.750  0.00  0.00    +0.000 F 
ATOM     13  F   UNL     1       5.897   3.952  19.323  0.00  0.00    +0.000 F 
ATOM     14  F   UNL     1       7.626   4.757  18.318  0.00  0.00    +0.000 F 
ENDBRANCH   3  11
BRANCH   9  15
ATOM     15  C   UNL     1       4.254   3.373  16.960  0.00  0.00    +0.000 C 
ATOM     16  N   UNL     1       3.558   2.368  17.266  0.00  0.00    +0.000 NA
ENDBRANCH   9  15
ENDBRANCH   1   3
BRANCH   1  17
ATOM     17  S   UNL     1       2.965   5.888  18.780  0.00  0.00    +0.000 S 
ATOM     18  O   UNL     1       3.503   5.125  19.878  0.00  0.00    +0.000 OA
ATOM     19  O   UNL     1       2.108   5.306  17.775  0.00  0.00    +0.000 OA
BRANCH  17  23
ATOM     20  C   UNL     1       0.630   9.404  20.599  0.00  0.00    +0.000 A 
ATOM     21  C   UNL     1       0.855   8.224  21.303  0.00  0.00    +0.000 A 
ATOM     22  C   UNL     1       1.647   7.204  20.770  0.00  0.00    +0.000 A 
ATOM     23  C   UNL     1       2.149   7.306  19.475  0.00  0.00    +0.000 A 
ATOM     24  C   UNL     1       1.959   8.485  18.753  0.00  0.00    +0.000 A 
ATOM     25  C   UNL     1       1.206   9.534  19.323  0.00  0.00    +0.000 A 
BRANCH  20  29
ATOM     26  C   UNL     1      -1.382  11.840  22.682  0.00  0.00    +0.000 C 
ATOM     27  C   UNL     1      -0.406  10.717  22.456  0.00  0.00    +0.000 C 
ATOM     28  O   UNL     1       0.086  10.142  23.421  0.00  0.00    +0.000 OA
ATOM     29  N   UNL     1      -0.172  10.453  21.112  0.00  0.00    +0.000 N 
ATOM     30  H   UNL     1      -0.576  11.090  20.439  0.00  0.00    +0.000 HD
ENDBRANCH  20  29
ENDBRANCH  17  23
ENDBRANCH   1  17
TORSDOF 6
ENDMDL
MODEL 2
REMARK VINA RESULT:      -7.9      0.989      1.224
REMARK  Name = 
REMARK  8 active torsions:
REMARK  status: ('A' for Active; 'I' for Inactive)
REMARK    1  A    between atoms: C_1  and  C_2
REMARK    2  A    between atoms: N_4  and  C_5
REMARK    3  A    between atoms: C_8  and  S_9
REMARK    4  A    between atoms: S_9  and  N_12
REMARK    5  A    between atoms: N_12  and  C_13
REMARK    6  A    between atoms: C_13  and  C_14
REMARK    7  A    between atoms: C_21  and  C_22
REMARK    8  A    between atoms: C_23  and  C_24
REMARK                            x       y       z     vdW  Elec       q    Type
REMARK                         _______ _______ _______ _____ _____    ______ ____
ROOT
ATOM      1  N   UNL     1       4.401   6.566  17.766  0.00  0.00    +0.000 NA
ATOM      2  H   UNL     1       4.740   7.473  18.115  0.00  0.00    +0.000 HD
ENDROOT
BRANCH   1   3
ATOM      3  C   UNL     1       5.524   5.573  17.534  0.00  0.00    +0.000 C 
ATOM      4  C   UNL     1       6.515   6.351  16.646  0.00  0.00    +0.000 C 
ATOM      5  O   UNL     1       7.103   7.379  16.944  0.00  0.00    +0.000 OA
ATOM      6  N   UNL     1       6.554   5.749  15.395  0.00  0.00    +0.000 N 
ATOM      7  C   UNL     1       5.719   4.676  15.331  0.00  0.00    +0.000 C 
ATOM      8  C   UNL     1       5.572   3.863  14.096  0.00  0.00    +0.000 C 
ATOM      9  C   UNL     1       5.122   4.536  16.518  0.00  0.00    +0.000 C 
ATOM     10  H   UNL     1       7.131   6.100  14.641  0.00  0.00    +0.000 HD
BRANCH   3  11
ATOM     11  C   UNL     1       6.337   5.044  18.734  0.00  0.00    +0.000 C 
ATOM     12  F   UNL     1       5.727   4.018  19.366  0.00  0.00    +0.000 F 
ATOM     13  F   UNL     1       7.572   4.631  18.360  0.00  0.00    +0.000 F 
ATOM     14  F   UNL     1       6.551   6.004  19.671  0.00  0.00    +0.000 F 
ENDBRANCH   3  11
BRANCH   9  15
ATOM     15  C   UNL     1       4.180   3.404  16.892  0.00  0.00    +0.000 C 
ATOM     16  N   UNL     1       3.399   2.464  17.202  0.00  0.00    +0.000 NA
ENDBRANCH   9  15
ENDBRANCH   1   3
BRANCH   1  17
ATOM     17  S   UNL     1       3.041   6.118  18.652  0.00  0.00    +0.000 S 
ATOM     18  O   UNL     1       3.550   5.548  19.874  0.00  0.00    +0.000 OA
ATOM     19  O   UNL     1       2.191   5.384  17.747  0.00  0.00    +0.000 OA
BRANCH  17  23
ATOM     20  C   UNL     1       0.742   9.925  19.812  0.00  0.00    +0.000 A 
ATOM     21  C   UNL     1       0.997   8.908  20.728  0.00  0.00    +0.000 A 
ATOM     22  C   UNL     1       1.778   7.802  20.383  0.00  0.00    +0.000 A 
ATOM     23  C   UNL     1       2.239   7.645  19.078  0.00  0.00    +0.000 A 
ATOM     24  C   UNL     1       2.019   8.658  18.143  0.00  0.00    +0.000 A 
ATOM     25  C   UNL     1       1.277   9.799  18.517  0.00  0.00    +0.000 A 
BRANCH  20  29
ATOM     26  C   UNL     1      -0.735  13.153  21.123  0.00  0.00    +0.000 C 
ATOM     27  C   UNL     1       0.366  12.161  20.863  0.00  0.00    +0.000 C 
ATOM     28  O   UNL     1       1.493  12.383  21.293  0.00  0.00    +0.000 OA
ATOM     29  N   UNL     1      -0.050  11.054  20.132  0.00  0.00    +0.000 N 
ATOM     30  H   UNL     1      -0.990  11.074  19.761  0.00  0.00    +0.000 HD
ENDBRANCH  20  29
ENDBRANCH  17  23
ENDBRANCH   1  17
TORSDOF 6
ENDMDL
MODEL 3
REMARK VINA RESULT:      -7.9      1.373      1.572
REMARK  Name = 
REMARK  8 active torsions:
REMARK  status: ('A' for Active; 'I' for Inactive)
REMARK    1  A    between atoms: C_1  and  C_2
REMARK    2  A    between atoms: N_4  and  C_5
REMARK    3  A    between atoms: C_8  and  S_9
REMARK    4  A    between atoms: S_9  and  N_12
REMARK    5  A    between atoms: N_12  and  C_13
REMARK    6  A    between atoms: C_13  and  C_14
REMARK    7  A    between atoms: C_21  and  C_22
REMARK    8  A    between atoms: C_23  and  C_24
REMARK                            x       y       z     vdW  Elec       q    Type
REMARK                         _______ _______ _______ _____ _____    ______ ____
ROOT
ATOM      1  N   UNL     1       4.420   6.579  17.758  0.00  0.00    +0.000 NA
ATOM      2  H   UNL     1       4.775   7.479  18.108  0.00  0.00    +0.000 HD
ENDROOT
BRANCH   1   3
ATOM      3  C   UNL     1       5.526   5.569  17.519  0.00  0.00    +0.000 C 
ATOM      4  C   UNL     1       6.532   6.337  16.640  0.00  0.00    +0.000 C 
ATOM      5  O   UNL     1       7.137   7.352  16.947  0.00  0.00    +0.000 OA
ATOM      6  N   UNL     1       6.563   5.744  15.384  0.00  0.00    +0.000 N 
ATOM      7  C   UNL     1       5.709   4.687  15.309  0.00  0.00    +0.000 C 
ATOM      8  C   UNL     1       5.551   3.886  14.067  0.00  0.00    +0.000 C 
ATOM      9  C   UNL     1       5.108   4.548  16.494  0.00  0.00    +0.000 C 
ATOM     10  H   UNL     1       7.147   6.092  14.634  0.00  0.00    +0.000 HD
BRANCH   3  11
ATOM     11  C   UNL     1       6.328   5.016  18.716  0.00  0.00    +0.000 C 
ATOM     12  F   UNL     1       5.694   4.004  19.346  0.00  0.00    +0.000 F 
ATOM     13  F   UNL     1       7.552   4.573  18.338  0.00  0.00    +0.000 F 
ATOM     14  F   UNL     1       6.568   5.967  19.656  0.00  0.00    +0.000 F 
ENDBRANCH   3  11
BRANCH   9  15
ATOM     15  C   UNL     1       4.146   3.428  16.858  0.00  0.00    +0.000 C 
ATOM     16  N   UNL     1       3.348   2.500  17.160  0.00  0.00    +0.000 NA
ENDBRANCH   9  15
ENDBRANCH   1   3
BRANCH   1  17
ATOM     17  S   UNL     1       3.057   6.150  18.647  0.00  0.00    +0.000 S 
ATOM     18  O   UNL     1       3.559   5.608  19.885  0.00  0.00    +0.000 OA
ATOM     19  O   UNL     1       2.211   5.394  17.755  0.00  0.00    +0.000 OA
BRANCH  17  23
ATOM     20  C   UNL     1       0.746   9.981  19.700  0.00  0.00    +0.000 A 
ATOM     21  C   UNL     1       0.966   8.971  20.633  0.00  0.00    +0.000 A 
ATOM     22  C   UNL     1       1.750   7.857  20.322  0.00  0.00    +0.000 A 
ATOM     23  C   UNL     1       2.251   7.686  19.034  0.00  0.00    +0.000 A 
ATOM     24  C   UNL     1       2.067   8.692  18.084  0.00  0.00    +0.000 A 
ATOM     25  C   UNL     1       1.321   9.840  18.424  0.00  0.00    +0.000 A 
BRANCH  20  29
ATOM     26  C   UNL     1      -1.842  12.737  19.865  0.00  0.00    +0.000 C 
ATOM     27  C   UNL     1      -1.293  11.402  19.439  0.00  0.00    +0.000 C 
ATOM     28  O   UNL     1      -1.946  10.696  18.677  0.00  0.00    +0.000 OA
ATOM     29  N   UNL     1      -0.048  11.118  19.986  0.00  0.00    +0.000 N 
ATOM     30  H   UNL     1       0.308  11.761  20.682  0.00  0.00    +0.000 HD
ENDBRANCH  20  29
ENDBRANCH  17  23
ENDBRANCH   1  17
TORSDOF 6
ENDMDL
MODEL 4
REMARK VINA RESULT:      -7.8      1.376      1.692
REMARK  Name = 
REMARK  8 active torsions:
REMARK  status: ('A' for Active; 'I' for Inactive)
REMARK    1  A    between atoms: C_1  and  C_2
REMARK    2  A    between atoms: N_4  and  C_5
REMARK    3  A    between atoms: C_8  and  S_9
REMARK    4  A    between atoms: S_9  and  N_12
REMARK    5  A    between atoms: N_12  and  C_13
REMARK    6  A    between atoms: C_13  and  C_14
REMARK    7  A    between atoms: C_21  and  C_22
REMARK    8  A    between atoms: C_23  and  C_24
REMARK                            x       y       z     vdW  Elec       q    Type
REMARK                         _______ _______ _______ _____ _____    ______ ____
ROOT
ATOM      1  N   UNL     1       4.428   6.522  17.744  0.00  0.00    +0.000 NA
ATOM      2  H   UNL     1       4.739   7.446  18.071  0.00  0.00    +0.000 HD
ENDROOT
BRANCH   1   3
ATOM      3  C   UNL     1       5.581   5.561  17.530  0.00  0.00    +0.000 C 
ATOM      4  C   UNL     1       6.562   6.363  16.653  0.00  0.00    +0.000 C 
ATOM      5  O   UNL     1       7.117   7.408  16.955  0.00  0.00    +0.000 OA
ATOM      6  N   UNL     1       6.635   5.758  15.405  0.00  0.00    +0.000 N 
ATOM      7  C   UNL     1       5.832   4.662  15.333  0.00  0.00    +0.000 C 
ATOM      8  C   UNL     1       5.724   3.841  14.099  0.00  0.00    +0.000 C 
ATOM      9  C   UNL     1       5.222   4.509  16.513  0.00  0.00    +0.000 C 
ATOM     10  H   UNL     1       7.212   6.123  14.658  0.00  0.00    +0.000 HD
BRANCH   3  11
ATOM     11  C   UNL     1       6.393   5.059  18.743  0.00  0.00    +0.000 C 
ATOM     12  F   UNL     1       6.573   6.014  19.681  0.00  0.00    +0.000 F 
ATOM     13  F   UNL     1       5.801   3.995  19.338  0.00  0.00    +0.000 F 
ATOM     14  F   UNL     1       7.631   4.627  18.388  0.00  0.00    +0.000 F 
ENDBRANCH   3  11
BRANCH   9  15
ATOM     15  C   UNL     1       4.308   3.352  16.878  0.00  0.00    +0.000 C 
ATOM     16  N   UNL     1       3.549   2.392  17.183  0.00  0.00    +0.000 NA
ENDBRANCH   9  15
ENDBRANCH   1   3
BRANCH   1  17
ATOM     17  S   UNL     1       3.085   6.051  18.642  0.00  0.00    +0.000 S 
ATOM     18  O   UNL     1       3.609   5.586  19.902  0.00  0.00    +0.000 OA
ATOM     19  O   UNL     1       2.289   5.215  17.775  0.00  0.00    +0.000 OA
BRANCH  17  23
ATOM     20  C   UNL     1       0.997  10.071  19.415  0.00  0.00    +0.000 A 
ATOM     21  C   UNL     1       1.478   9.719  18.157  0.00  0.00    +0.000 A 
ATOM     22  C   UNL     1       2.025   8.455  17.920  0.00  0.00    +0.000 A 
ATOM     23  C   UNL     1       2.191   7.552  18.966  0.00  0.00    +0.000 A 
ATOM     24  C   UNL     1       1.698   7.867  20.234  0.00  0.00    +0.000 A 
ATOM     25  C   UNL     1       1.095   9.125  20.451  0.00  0.00    +0.000 A 
BRANCH  20  29
ATOM     26  C   UNL     1      -1.132  13.183  19.746  0.00  0.00    +0.000 C 
ATOM     27  C   UNL     1      -0.871  11.731  19.445  0.00  0.00    +0.000 C 
ATOM     28  O   UNL     1      -1.785  11.028  19.026  0.00  0.00    +0.000 OA
ATOM     29  N   UNL     1       0.442  11.346  19.686  0.00  0.00    +0.000 N 
ATOM     30  H   UNL     1       1.047  12.023  20.132  0.00  0.00    +0.000 HD
ENDBRANCH  20  29
ENDBRANCH  17  23
ENDBRANCH   1  17
TORSDOF 6
ENDMDL
MODEL 5
REMARK VINA RESULT:      -7.7      1.206      1.710
REMARK  Name = 
REMARK  8 active torsions:
REMARK  status: ('A' for Active; 'I' for Inactive)
REMARK    1  A    between atoms: C_1  and  C_2
REMARK    2  A    between atoms: N_4  and  C_5
REMARK    3  A    between atoms: C_8  and  S_9
REMARK    4  A    between atoms: S_9  and  N_12
REMARK    5  A    between atoms: N_12  and  C_13
REMARK    6  A    between atoms: C_13  and  C_14
REMARK    7  A    between atoms: C_21  and  C_22
REMARK    8  A    between atoms: C_23  and  C_24
REMARK                            x       y       z     vdW  Elec       q    Type
REMARK                         _______ _______ _______ _____ _____    ______ ____
ROOT
ATOM      1  N   UNL     1       4.393   6.595  17.802  0.00  0.00    +0.000 NA
ATOM      2  H   UNL     1       4.733   7.503  18.144  0.00  0.00    +0.000 HD
ENDROOT
BRANCH   1   3
ATOM      3  C   UNL     1       5.518   5.612  17.539  0.00  0.00    +0.000 C 
ATOM      4  C   UNL     1       6.497   6.412  16.658  0.00  0.00    +0.000 C 
ATOM      5  O   UNL     1       7.083   7.437  16.972  0.00  0.00    +0.000 OA
ATOM      6  N   UNL     1       6.528   5.836  15.395  0.00  0.00    +0.000 N 
ATOM      7  C   UNL     1       5.697   4.761  15.316  0.00  0.00    +0.000 C 
ATOM      8  C   UNL     1       5.543   3.972  14.066  0.00  0.00    +0.000 C 
ATOM      9  C   UNL     1       5.112   4.594  16.506  0.00  0.00    +0.000 C 
ATOM     10  H   UNL     1       7.096   6.206  14.643  0.00  0.00    +0.000 HD
BRANCH   3  11
ATOM     11  C   UNL     1       6.345   5.063  18.720  0.00  0.00    +0.000 C 
ATOM     12  F   UNL     1       7.549   4.585  18.337  0.00  0.00    +0.000 F 
ATOM     13  F   UNL     1       6.553   6.008  19.670  0.00  0.00    +0.000 F 
ATOM     14  F   UNL     1       5.711   4.047  19.361  0.00  0.00    +0.000 F 
ENDBRANCH   3  11
BRANCH   9  15
ATOM     15  C   UNL     1       4.178   3.450  16.865  0.00  0.00    +0.000 C 
ATOM     16  N   UNL     1       3.404   2.500  17.163  0.00  0.00    +0.000 NA
ENDBRANCH   9  15
ENDBRANCH   1   3
BRANCH   1  17
ATOM     17  S   UNL     1       3.059   6.132  18.719  0.00  0.00    +0.000 S 
ATOM     18  O   UNL     1       3.595   5.697  19.983  0.00  0.00    +0.000 OA
ATOM     19  O   UNL     1       2.264   5.274  17.874  0.00  0.00    +0.000 OA
BRANCH  17  23
ATOM     20  C   UNL     1       0.952  10.153  19.435  0.00  0.00    +0.000 A 
ATOM     21  C   UNL     1       1.470   9.802  18.191  0.00  0.00    +0.000 A 
ATOM     22  C   UNL     1       2.023   8.539  17.969  0.00  0.00    +0.000 A 
ATOM     23  C   UNL     1       2.157   7.634  19.018  0.00  0.00    +0.000 A 
ATOM     24  C   UNL     1       1.627   7.948  20.271  0.00  0.00    +0.000 A 
ATOM     25  C   UNL     1       1.018   9.205  20.472  0.00  0.00    +0.000 A 
BRANCH  20  29
ATOM     26  C   UNL     1       0.037  13.610  20.676  0.00  0.00    +0.000 C 
ATOM     27  C   UNL     1       0.918  12.398  20.535  0.00  0.00    +0.000 C 
ATOM     28  O   UNL     1       1.981  12.350  21.145  0.00  0.00    +0.000 OA
ATOM     29  N   UNL     1       0.390  11.428  19.691  0.00  0.00    +0.000 N 
ATOM     30  H   UNL     1      -0.450  11.668  19.181  0.00  0.00    +0.000 HD
ENDBRANCH  20  29
ENDBRANCH  17  23
ENDBRANCH   1  17
TORSDOF 6
ENDMDL
MODEL 6
REMARK VINA RESULT:      -7.4      2.375      3.477
REMARK  Name = 
REMARK  8 active torsions:
REMARK  status: ('A' for Active; 'I' for Inactive)
REMARK    1  A    between atoms: C_1  and  C_2
REMARK    2  A    between atoms: N_4  and  C_5
REMARK    3  A    between atoms: C_8  and  S_9
REMARK    4  A    between atoms: S_9  and  N_12
REMARK    5  A    between atoms: N_12  and  C_13
REMARK    6  A    between atoms: C_13  and  C_14
REMARK    7  A    between atoms: C_21  and  C_22
REMARK    8  A    between atoms: C_23  and  C_24
REMARK                            x       y       z     vdW  Elec       q    Type
REMARK                         _______ _______ _______ _____ _____    ______ ____
ROOT
ATOM      1  N   UNL     1       4.027   6.032  17.159  0.00  0.00    +0.000 NA
ATOM      2  H   UNL     1       4.044   7.024  16.885  0.00  0.00    +0.000 HD
ENDROOT
BRANCH   1   3
ATOM      3  C   UNL     1       5.348   5.333  16.901  0.00  0.00    +0.000 C 
ATOM      4  C   UNL     1       5.191   3.985  17.630  0.00  0.00    +0.000 C 
ATOM      5  O   UNL     1       4.362   3.122  17.389  0.00  0.00    +0.000 OA
ATOM      6  N   UNL     1       6.087   3.950  18.691  0.00  0.00    +0.000 N 
ATOM      7  C   UNL     1       6.817   5.096  18.767  0.00  0.00    +0.000 C 
ATOM      8  C   UNL     1       7.841   5.311  19.821  0.00  0.00    +0.000 C 
ATOM      9  C   UNL     1       6.437   5.902  17.772  0.00  0.00    +0.000 C 
ATOM     10  H   UNL     1       6.151   3.160  19.321  0.00  0.00    +0.000 HD
BRANCH   3  11
ATOM     11  C   UNL     1       5.765   4.998  15.453  0.00  0.00    +0.000 C 
ATOM     12  F   UNL     1       4.954   4.086  14.874  0.00  0.00    +0.000 F 
ATOM     13  F   UNL     1       5.782   6.103  14.667  0.00  0.00    +0.000 F 
ATOM     14  F   UNL     1       7.025   4.494  15.385  0.00  0.00    +0.000 F 
ENDBRANCH   3  11
BRANCH   9  15
ATOM     15  C   UNL     1       7.070   7.246  17.449  0.00  0.00    +0.000 C 
ATOM     16  N   UNL     1       7.595   8.361  17.181  0.00  0.00    +0.000 NA
ENDBRANCH   9  15
ENDBRANCH   1   3
BRANCH   1  17
ATOM     17  S   UNL     1       3.274   5.895  18.658  0.00  0.00    +0.000 S 
ATOM     18  O   UNL     1       4.343   5.853  19.623  0.00  0.00    +0.000 OA
ATOM     19  O   UNL     1       2.301   4.837  18.529  0.00  0.00    +0.000 OA
BRANCH  17  23
ATOM     20  C   UNL     1       0.832   9.732  19.320  0.00  0.00    +0.000 A 
ATOM     21  C   UNL     1       1.060   8.816  20.343  0.00  0.00    +0.000 A 
ATOM     22  C   UNL     1       1.883   7.704  20.148  0.00  0.00    +0.000 A 
ATOM     23  C   UNL     1       2.416   7.434  18.891  0.00  0.00    +0.000 A 
ATOM     24  C   UNL     1       2.224   8.345  17.851  0.00  0.00    +0.000 A 
ATOM     25  C   UNL     1       1.438   9.497  18.073  0.00  0.00    +0.000 A 
BRANCH  20  29
ATOM     26  C   UNL     1      -1.885  12.367  19.259  0.00  0.00    +0.000 C 
ATOM     27  C   UNL     1      -1.296  11.005  19.004  0.00  0.00    +0.000 C 
ATOM     28  O   UNL     1      -1.962  10.160  18.416  0.00  0.00    +0.000 OA
ATOM     29  N   UNL     1      -0.001  10.866  19.487  0.00  0.00    +0.000 N 
ATOM     30  H   UNL     1       0.369  11.625  20.044  0.00  0.00    +0.000 HD
ENDBRANCH  20  29
ENDBRANCH  17  23
ENDBRANCH   1  17
TORSDOF 6
ENDMDL
MODEL 7
REMARK VINA RESULT:      -7.4      4.320      6.479
REMARK  Name = 
REMARK  8 active torsions:
REMARK  status: ('A' for Active; 'I' for Inactive)
REMARK    1  A    between atoms: C_1  and  C_2
REMARK    2  A    between atoms: N_4  and  C_5
REMARK    3  A    between atoms: C_8  and  S_9
REMARK    4  A    between atoms: S_9  and  N_12
REMARK    5  A    between atoms: N_12  and  C_13
REMARK    6  A    between atoms: C_13  and  C_14
REMARK    7  A    between atoms: C_21  and  C_22
REMARK    8  A    between atoms: C_23  and  C_24
REMARK                            x       y       z     vdW  Elec       q    Type
REMARK                         _______ _______ _______ _____ _____    ______ ____
ROOT
ATOM      1  N   UNL     1       4.305   4.950  18.507  0.00  0.00    +0.000 NA
ATOM      2  H   UNL     1       3.897   5.831  18.168  0.00  0.00    +0.000 HD
ENDROOT
BRANCH   1   3
ATOM      3  C   UNL     1       3.291   3.823  18.567  0.00  0.00    +0.000 C 
ATOM      4  C   UNL     1       1.939   4.557  18.648  0.00  0.00    +0.000 C 
ATOM      5  O   UNL     1       1.473   5.313  17.809  0.00  0.00    +0.000 OA
ATOM      6  N   UNL     1       1.373   4.305  19.890  0.00  0.00    +0.000 N 
ATOM      7  C   UNL     1       2.169   3.502  20.648  0.00  0.00    +0.000 C 
ATOM      8  C   UNL     1       1.792   3.090  22.025  0.00  0.00    +0.000 C 
ATOM      9  C   UNL     1       3.260   3.201  19.938  0.00  0.00    +0.000 C 
ATOM     10  H   UNL     1       0.483   4.699  20.172  0.00  0.00    +0.000 HD
BRANCH   3  11
ATOM     11  C   UNL     1       3.179   2.833  17.388  0.00  0.00    +0.000 C 
ATOM     12  F   UNL     1       3.073   3.454  16.193  0.00  0.00    +0.000 F 
ATOM     13  F   UNL     1       4.243   1.996  17.332  0.00  0.00    +0.000 F 
ATOM     14  F   UNL     1       2.093   2.023  17.500  0.00  0.00    +0.000 F 
ENDBRANCH   3  11
BRANCH   9  15
ATOM     15  C   UNL     1       4.360   2.254  20.389  0.00  0.00    +0.000 C 
ATOM     16  N   UNL     1       5.271   1.468  20.764  0.00  0.00    +0.000 NA
ENDBRANCH   9  15
ENDBRANCH   1   3
BRANCH   1  17
ATOM     17  S   UNL     1       5.792   4.715  17.754  0.00  0.00    +0.000 S 
ATOM     18  O   UNL     1       5.495   4.575  16.351  0.00  0.00    +0.000 OA
ATOM     19  O   UNL     1       6.473   3.691  18.511  0.00  0.00    +0.000 OA
BRANCH  17  23
ATOM     20  C   UNL     1       8.102   8.679  18.013  0.00  0.00    +0.000 A 
ATOM     21  C   UNL     1       6.946   8.547  17.249  0.00  0.00    +0.000 A 
ATOM     22  C   UNL     1       6.205   7.362  17.257  0.00  0.00    +0.000 A 
ATOM     23  C   UNL     1       6.664   6.249  17.957  0.00  0.00    +0.000 A 
ATOM     24  C   UNL     1       7.808   6.358  18.751  0.00  0.00    +0.000 A 
ATOM     25  C   UNL     1       8.518   7.577  18.782  0.00  0.00    +0.000 A 
BRANCH  20  29
ATOM     26  C   UNL     1      10.002  11.849  18.827  0.00  0.00    +0.000 C 
ATOM     27  C   UNL     1       9.275  10.572  19.148  0.00  0.00    +0.000 C 
ATOM     28  O   UNL     1       9.091  10.260  20.320  0.00  0.00    +0.000 OA
ATOM     29  N   UNL     1       8.875   9.866  18.020  0.00  0.00    +0.000 N 
ATOM     30  H   UNL     1       9.198  10.207  17.124  0.00  0.00    +0.000 HD
ENDBRANCH  20  29
ENDBRANCH  17  23
ENDBRANCH   1  17
TORSDOF 6
ENDMDL
MODEL 8
REMARK VINA RESULT:      -7.3      2.116      3.250
REMARK  Name = 
REMARK  8 active torsions:
REMARK  status: ('A' for Active; 'I' for Inactive)
REMARK    1  A    between atoms: C_1  and  C_2
REMARK    2  A    between atoms: N_4  and  C_5
REMARK    3  A    between atoms: C_8  and  S_9
REMARK    4  A    between atoms: S_9  and  N_12
REMARK    5  A    between atoms: N_12  and  C_13
REMARK    6  A    between atoms: C_13  and  C_14
REMARK    7  A    between atoms: C_21  and  C_22
REMARK    8  A    between atoms: C_23  and  C_24
REMARK                            x       y       z     vdW  Elec       q    Type
REMARK                         _______ _______ _______ _____ _____    ______ ____
ROOT
ATOM      1  N   UNL     1       3.976   6.043  17.246  0.00  0.00    +0.000 NA
ATOM      2  H   UNL     1       4.021   7.048  17.031  0.00  0.00    +0.000 HD
ENDROOT
BRANCH   1   3
ATOM      3  C   UNL     1       5.292   5.333  16.988  0.00  0.00    +0.000 C 
ATOM      4  C   UNL     1       5.144   4.010  17.762  0.00  0.00    +0.000 C 
ATOM      5  O   UNL     1       4.309   3.141  17.563  0.00  0.00    +0.000 OA
ATOM      6  N   UNL     1       6.058   4.006  18.809  0.00  0.00    +0.000 N 
ATOM      7  C   UNL     1       6.791   5.152  18.836  0.00  0.00    +0.000 C 
ATOM      8  C   UNL     1       7.833   5.399  19.865  0.00  0.00    +0.000 C 
ATOM      9  C   UNL     1       6.396   5.928  17.822  0.00  0.00    +0.000 C 
ATOM     10  H   UNL     1       6.131   3.237  19.463  0.00  0.00    +0.000 HD
BRANCH   3  11
ATOM     11  C   UNL     1       5.683   4.951  15.545  0.00  0.00    +0.000 C 
ATOM     12  F   UNL     1       6.937   4.454  15.458  0.00  0.00    +0.000 F 
ATOM     13  F   UNL     1       4.833   4.036  15.019  0.00  0.00    +0.000 F 
ATOM     14  F   UNL     1       5.629   6.014  14.700  0.00  0.00    +0.000 F 
ENDBRANCH   3  11
BRANCH   9  15
ATOM     15  C   UNL     1       7.026   7.259  17.445  0.00  0.00    +0.000 C 
ATOM     16  N   UNL     1       7.548   8.363  17.132  0.00  0.00    +0.000 NA
ENDBRANCH   9  15
ENDBRANCH   1   3
BRANCH   1  17
ATOM     17  S   UNL     1       3.172   5.835  18.710  0.00  0.00    +0.000 S 
ATOM     18  O   UNL     1       4.209   5.686  19.700  0.00  0.00    +0.000 OA
ATOM     19  O   UNL     1       2.166   4.826  18.481  0.00  0.00    +0.000 OA
BRANCH  17  23
ATOM     20  C   UNL     1       0.855   9.709  19.570  0.00  0.00    +0.000 A 
ATOM     21  C   UNL     1       1.047   8.732  20.544  0.00  0.00    +0.000 A 
ATOM     22  C   UNL     1       1.833   7.605  20.291  0.00  0.00    +0.000 A 
ATOM     23  C   UNL     1       2.364   7.386  19.023  0.00  0.00    +0.000 A 
ATOM     24  C   UNL     1       2.208   8.359  18.033  0.00  0.00    +0.000 A 
ATOM     25  C   UNL     1       1.460   9.521  18.315  0.00  0.00    +0.000 A 
BRANCH  20  29
ATOM     26  C   UNL     1      -0.701  12.962  20.721  0.00  0.00    +0.000 C 
ATOM     27  C   UNL     1       0.397  11.938  20.604  0.00  0.00    +0.000 C 
ATOM     28  O   UNL     1       1.454  12.115  21.200  0.00  0.00    +0.000 OA
ATOM     29  N   UNL     1       0.059  10.859  19.797  0.00  0.00    +0.000 N 
ATOM     30  H   UNL     1      -0.816  10.916  19.292  0.00  0.00    +0.000 HD
ENDBRANCH  20  29
ENDBRANCH  17  23
ENDBRANCH   1  17
TORSDOF 6
ENDMDL
MODEL 9
REMARK VINA RESULT:      -7.3      2.424      3.613
REMARK  Name = 
REMARK  8 active torsions:
REMARK  status: ('A' for Active; 'I' for Inactive)
REMARK    1  A    between atoms: C_1  and  C_2
REMARK    2  A    between atoms: N_4  and  C_5
REMARK    3  A    between atoms: C_8  and  S_9
REMARK    4  A    between atoms: S_9  and  N_12
REMARK    5  A    between atoms: N_12  and  C_13
REMARK    6  A    between atoms: C_13  and  C_14
REMARK    7  A    between atoms: C_21  and  C_22
REMARK    8  A    between atoms: C_23  and  C_24
REMARK                            x       y       z     vdW  Elec       q    Type
REMARK                         _______ _______ _______ _____ _____    ______ ____
ROOT
ATOM      1  N   UNL     1       3.997   6.014  17.209  0.00  0.00    +0.000 NA
ATOM      2  H   UNL     1       4.009   7.006  16.935  0.00  0.00    +0.000 HD
ENDROOT
BRANCH   1   3
ATOM      3  C   UNL     1       5.318   5.319  16.943  0.00  0.00    +0.000 C 
ATOM      4  C   UNL     1       5.174   3.976  17.684  0.00  0.00    +0.000 C 
ATOM      5  O   UNL     1       4.346   3.107  17.457  0.00  0.00    +0.000 OA
ATOM      6  N   UNL     1       6.080   3.952  18.737  0.00  0.00    +0.000 N 
ATOM      7  C   UNL     1       6.805   5.102  18.798  0.00  0.00    +0.000 C 
ATOM      8  C   UNL     1       7.838   5.330  19.841  0.00  0.00    +0.000 C 
ATOM      9  C   UNL     1       6.413   5.900  17.800  0.00  0.00    +0.000 C 
ATOM     10  H   UNL     1       6.153   3.168  19.373  0.00  0.00    +0.000 HD
BRANCH   3  11
ATOM     11  C   UNL     1       5.723   4.975  15.494  0.00  0.00    +0.000 C 
ATOM     12  F   UNL     1       6.961   4.439  15.412  0.00  0.00    +0.000 F 
ATOM     13  F   UNL     1       4.853   4.108  14.922  0.00  0.00    +0.000 F 
ATOM     14  F   UNL     1       5.720   6.068  14.688  0.00  0.00    +0.000 F 
ENDBRANCH   3  11
BRANCH   9  15
ATOM     15  C   UNL     1       7.037   7.244  17.461  0.00  0.00    +0.000 C 
ATOM     16  N   UNL     1       7.554   8.359  17.180  0.00  0.00    +0.000 NA
ENDBRANCH   9  15
ENDBRANCH   1   3
BRANCH   1  17
ATOM     17  S   UNL     1       3.251   5.875  18.711  0.00  0.00    +0.000 S 
ATOM     18  O   UNL     1       4.323   5.892  19.675  0.00  0.00    +0.000 OA
ATOM     19  O   UNL     1       2.321   4.777  18.603  0.00  0.00    +0.000 OA
BRANCH  17  23
ATOM     20  C   UNL     1       1.105   9.912  19.184  0.00  0.00    +0.000 A 
ATOM     21  C   UNL     1       1.649   9.502  17.969  0.00  0.00    +0.000 A 
ATOM     22  C   UNL     1       2.214   8.233  17.821  0.00  0.00    +0.000 A 
ATOM     23  C   UNL     1       2.334   7.383  18.918  0.00  0.00    +0.000 A 
ATOM     24  C   UNL     1       1.778   7.756  20.143  0.00  0.00    +0.000 A 
ATOM     25  C   UNL     1       1.157   9.017  20.268  0.00  0.00    +0.000 A 
BRANCH  20  29
ATOM     26  C   UNL     1      -0.951  13.088  19.096  0.00  0.00    +0.000 C 
ATOM     27  C   UNL     1      -0.655  11.643  18.795  0.00  0.00    +0.000 C 
ATOM     28  O   UNL     1      -1.435  10.998  18.102  0.00  0.00    +0.000 OA
ATOM     29  N   UNL     1       0.530  11.193  19.364  0.00  0.00    +0.000 N 
ATOM     30  H   UNL     1       1.006  11.823  19.998  0.00  0.00    +0.000 HD
ENDBRANCH  20  29
ENDBRANCH  17  23
ENDBRANCH   1  17
TORSDOF 6
ENDMDL
