MODEL 1
REMARK VINA RESULT:      -2.9      0.000      0.000
REMARK  Name = 
REMARK  0 active torsions:
REMARK  status: ('A' for Active; 'I' for Inactive)
REMARK                            x       y       z     vdW  Elec       q    Type
REMARK                         _______ _______ _______ _____ _____    ______ ____
ROOT
ATOM      1  C   UNL     1       8.514   5.347  28.336  0.00  0.00    +0.000 C 
ATOM      2  C   UNL     1       7.242   4.878  27.632  0.00  0.00    +0.000 C 
ATOM      3  O   UNL     1       7.925   3.709  27.112  0.00  0.00    +0.000 OA
ATOM      4  C   UNL     1       9.204   4.281  27.487  0.00  0.00    +0.000 C 
ENDROOT
TORSDOF 0
ENDMDL
MODEL 2
REMARK VINA RESULT:      -2.8      0.239      1.467
REMARK  Name = 
REMARK  0 active torsions:
REMARK  status: ('A' for Active; 'I' for Inactive)
REMARK                            x       y       z     vdW  Elec       q    Type
REMARK                         _______ _______ _______ _____ _____    ______ ____
ROOT
ATOM      1  C   UNL     1       8.328   5.429  28.195  0.00  0.00    +0.000 C 
ATOM      2  C   UNL     1       9.076   4.267  27.545  0.00  0.00    +0.000 C 
ATOM      3  O   UNL     1       7.847   3.761  26.964  0.00  0.00    +0.000 OA
ATOM      4  C   UNL     1       7.074   4.644  27.815  0.00  0.00    +0.000 C 
ENDROOT
TORSDOF 0
ENDMDL
MODEL 3
REMARK VINA RESULT:      -2.6      8.775      9.319
REMARK  Name = 
REMARK  0 active torsions:
REMARK  status: ('A' for Active; 'I' for Inactive)
REMARK                            x       y       z     vdW  Elec       q    Type
REMARK                         _______ _______ _______ _____ _____    ______ ____
ROOT
ATOM      1  C   UNL     1       1.032   3.812  20.409  0.00  0.00    +0.000 C 
ATOM      2  C   UNL     1       1.366   2.643  21.333  0.00  0.00    +0.000 C 
ATOM      3  O   UNL     1       2.244   3.481  22.127  0.00  0.00    +0.000 OA
ATOM      4  C   UNL     1       2.206   4.504  21.100  0.00  0.00    +0.000 C 
ENDROOT
TORSDOF 0
ENDMDL
MODEL 4
REMARK VINA RESULT:      -2.5      1.412      2.266
REMARK  Name = 
REMARK  0 active torsions:
REMARK  status: ('A' for Active; 'I' for Inactive)
REMARK                            x       y       z     vdW  Elec       q    Type
REMARK                         _______ _______ _______ _____ _____    ______ ____
ROOT
ATOM      1  C   UNL     1      10.736   5.111  28.006  0.00  0.00    +0.000 C 
ATOM      2  C   UNL     1      10.599   3.637  27.630  0.00  0.00    +0.000 C 
ATOM      3  O   UNL     1       9.176   3.795  27.401  0.00  0.00    +0.000 OA
ATOM      4  C   UNL     1       9.209   5.090  28.053  0.00  0.00    +0.000 C 
ENDROOT
TORSDOF 0
ENDMDL
MODEL 5
REMARK VINA RESULT:      -2.5     12.262     12.522
REMARK  Name = 
REMARK  0 active torsions:
REMARK  status: ('A' for Active; 'I' for Inactive)
REMARK                            x       y       z     vdW  Elec       q    Type
REMARK                         _______ _______ _______ _____ _____    ______ ____
ROOT
ATOM      1  C   UNL     1       5.994   3.948  15.406  0.00  0.00    +0.000 C 
ATOM      2  C   UNL     1       7.045   4.567  16.326  0.00  0.00    +0.000 C 
ATOM      3  O   UNL     1       7.493   5.452  15.268  0.00  0.00    +0.000 OA
ATOM      4  C   UNL     1       6.746   4.679  14.295  0.00  0.00    +0.000 C 
ENDROOT
TORSDOF 0
ENDMDL
MODEL 6
REMARK VINA RESULT:      -2.5     10.190     10.378
REMARK  Name = 
REMARK  0 active torsions:
REMARK  status: ('A' for Active; 'I' for Inactive)
REMARK                            x       y       z     vdW  Elec       q    Type
REMARK                         _______ _______ _______ _____ _____    ______ ____
ROOT
ATOM      1  C   UNL     1       7.735   6.342  18.615  0.00  0.00    +0.000 C 
ATOM      2  C   UNL     1       7.326   5.403  17.482  0.00  0.00    +0.000 C 
ATOM      3  O   UNL     1       7.520   6.453  16.501  0.00  0.00    +0.000 OA
ATOM      4  C   UNL     1       7.595   7.439  17.561  0.00  0.00    +0.000 C 
ENDROOT
TORSDOF 0
ENDMDL
MODEL 7
REMARK VINA RESULT:      -2.5      9.630      9.840
REMARK  Name = 
REMARK  0 active torsions:
REMARK  status: ('A' for Active; 'I' for Inactive)
REMARK                            x       y       z     vdW  Elec       q    Type
REMARK                         _______ _______ _______ _____ _____    ______ ____
ROOT
ATOM      1  C   UNL     1       7.288   6.268  17.439  0.00  0.00    +0.000 C 
ATOM      2  C   UNL     1       7.690   5.828  18.846  0.00  0.00    +0.000 C 
ATOM      3  O   UNL     1       7.929   4.473  18.386  0.00  0.00    +0.000 OA
ATOM      4  C   UNL     1       7.255   4.771  17.137  0.00  0.00    +0.000 C 
ENDROOT
TORSDOF 0
ENDMDL
MODEL 8
REMARK VINA RESULT:      -2.5      8.775      9.289
REMARK  Name = 
REMARK  0 active torsions:
REMARK  status: ('A' for Active; 'I' for Inactive)
REMARK                            x       y       z     vdW  Elec       q    Type
REMARK                         _______ _______ _______ _____ _____    ______ ____
ROOT
ATOM      1  C   UNL     1       1.711   2.609  20.114  0.00  0.00    +0.000 C 
ATOM      2  C   UNL     1       3.163   2.722  20.575  0.00  0.00    +0.000 C 
ATOM      3  O   UNL     1       2.770   2.540  21.959  0.00  0.00    +0.000 OA
ATOM      4  C   UNL     1       1.381   2.751  21.599  0.00  0.00    +0.000 C 
ENDROOT
TORSDOF 0
ENDMDL
MODEL 9
REMARK VINA RESULT:      -2.4     12.398     12.653
REMARK  Name = 
REMARK  0 active torsions:
REMARK  status: ('A' for Active; 'I' for Inactive)
REMARK                            x       y       z     vdW  Elec       q    Type
REMARK                         _______ _______ _______ _____ _____    ______ ____
ROOT
ATOM      1  C   UNL     1       6.079   3.863  15.458  0.00  0.00    +0.000 C 
ATOM      2  C   UNL     1       6.582   4.528  14.178  0.00  0.00    +0.000 C 
ATOM      3  O   UNL     1       7.589   5.263  14.919  0.00  0.00    +0.000 OA
ATOM      4  C   UNL     1       6.938   4.910  16.166  0.00  0.00    +0.000 C 
ENDROOT
TORSDOF 0
ENDMDL
