MODEL 1
REMARK VINA RESULT:      -6.9      0.000      0.000
REMARK  Name = 
REMARK  9 active torsions:
REMARK  status: ('A' for Active; 'I' for Inactive)
REMARK    1  A    between atoms: C_1  and  C_2
REMARK    2  A    between atoms: C_2  and  C_3
REMARK    3  A    between atoms: C_2  and  N_4
REMARK    4  A    between atoms: N_4  and  C_5
REMARK    5  A    between atoms: C_5  and  C_6
REMARK    6  A    between atoms: N_10  and  C_11
REMARK    7  A    between atoms: C_12  and  C_14
REMARK    8  A    between atoms: N_16  and  C_17
REMARK    9  A    between atoms: C_17  and  C_18
REMARK                            x       y       z     vdW  Elec       q    Type
REMARK                         _______ _______ _______ _____ _____    ______ ____
ROOT
ATOM      1  N   UNL     1       3.353   5.610  17.725  0.00  0.00    +0.000 N 
ATOM      2  C   UNL     1       3.606   7.002  17.830  0.00  0.00    +0.000 C 
ATOM      3  O   UNL     1       4.747   7.451  17.675  0.00  0.00    +0.000 OA
ENDROOT
BRANCH   2   4
ATOM      4  C   UNL     1       2.553   7.985  18.149  0.00  0.00    +0.000 A 
ATOM      5  C   UNL     1       1.941   8.061  19.387  0.00  0.00    +0.000 A 
ATOM      6  N   UNL     1       1.018   9.048  19.266  0.00  0.00    +0.000 N 
ATOM      7  N   UNL     1       1.071   9.607  18.042  0.00  0.00    +0.000 NA
ATOM      8  N   UNL     1       2.004   8.955  17.341  0.00  0.00    +0.000 NA
BRANCH   6   9
ATOM      9  C   UNL     1       0.148   9.555  20.314  0.00  0.00    +0.000 C 
BRANCH   9  10
ATOM     10  C   UNL     1       0.858  10.268  21.485  0.00  0.00    +0.000 C 
ATOM     11  C   UNL     1       0.928  11.797  21.335  0.00  0.00    +0.000 C 
ATOM     12  C   UNL     1      -0.421  12.492  21.516  0.00  0.00    +0.000 C 
ATOM     13  C   UNL     1      -1.127  12.095  22.811  0.00  0.00    +0.000 C 
ATOM     14  C   UNL     1      -1.164  10.588  23.042  0.00  0.00    +0.000 C 
ATOM     15  C   UNL     1       0.198   9.923  22.835  0.00  0.00    +0.000 C 
ENDBRANCH   9  10
ENDBRANCH   6   9
ENDBRANCH   2   4
BRANCH   1  17
ATOM     16  C   UNL     1       5.342   4.386  18.789  0.00  0.00    +0.000 C 
ATOM     17  C   UNL     1       4.535   4.728  17.519  0.00  0.00    +0.000 C 
ATOM     18  C   UNL     1       4.146   3.448  16.773  0.00  0.00    +0.000 C 
ENDBRANCH   1  17
BRANCH   1  19
ATOM     19  C   UNL     1       2.083   5.059  18.260  0.00  0.00    +0.000 C 
BRANCH  19  20
ATOM     20  C   UNL     1       2.073   4.321  19.584  0.00  0.00    +0.000 A 
ATOM     21  N   UNL     1       2.405   4.772  20.783  0.00  0.00    +0.000 NA
ATOM     22  C   UNL     1       2.246   3.735  21.660  0.00  0.00    +0.000 A 
ATOM     23  C   UNL     1       1.759   2.632  21.012  0.00  0.00    +0.000 A 
ATOM     24  N   UNL     1       1.573   3.036  19.716  0.00  0.00    +0.000 N 
ATOM     25  C   UNL     1       0.871   2.266  18.718  0.00  0.00    +0.000 C 
ENDBRANCH  19  20
ENDBRANCH   1  19
TORSDOF 6
ENDMDL
MODEL 2
REMARK VINA RESULT:      -6.7      0.800      1.557
REMARK  Name = 
REMARK  9 active torsions:
REMARK  status: ('A' for Active; 'I' for Inactive)
REMARK    1  A    between atoms: C_1  and  C_2
REMARK    2  A    between atoms: C_2  and  C_3
REMARK    3  A    between atoms: C_2  and  N_4
REMARK    4  A    between atoms: N_4  and  C_5
REMARK    5  A    between atoms: C_5  and  C_6
REMARK    6  A    between atoms: N_10  and  C_11
REMARK    7  A    between atoms: C_12  and  C_14
REMARK    8  A    between atoms: N_16  and  C_17
REMARK    9  A    between atoms: C_17  and  C_18
REMARK                            x       y       z     vdW  Elec       q    Type
REMARK                         _______ _______ _______ _____ _____    ______ ____
ROOT
ATOM      1  N   UNL     1       3.358   5.400  17.513  0.00  0.00    +0.000 N 
ATOM      2  C   UNL     1       3.799   6.731  17.730  0.00  0.00    +0.000 C 
ATOM      3  O   UNL     1       5.005   7.000  17.767  0.00  0.00    +0.000 OA
ENDROOT
BRANCH   2   4
ATOM      4  C   UNL     1       2.869   7.856  17.945  0.00  0.00    +0.000 A 
ATOM      5  C   UNL     1       2.073   7.973  19.070  0.00  0.00    +0.000 A 
ATOM      6  N   UNL     1       1.347   9.102  18.875  0.00  0.00    +0.000 N 
ATOM      7  N   UNL     1       1.694   9.701  17.719  0.00  0.00    +0.000 NA
ATOM      8  N   UNL     1       2.622   8.940  17.133  0.00  0.00    +0.000 NA
BRANCH   6   9
ATOM      9  C   UNL     1       0.397   9.694  19.802  0.00  0.00    +0.000 C 
BRANCH   9  10
ATOM     10  C   UNL     1       1.013  10.412  21.022  0.00  0.00    +0.000 C 
ATOM     11  C   UNL     1       0.362  11.767  21.344  0.00  0.00    +0.000 C 
ATOM     12  C   UNL     1      -1.047  11.647  21.923  0.00  0.00    +0.000 C 
ATOM     13  C   UNL     1      -1.121  10.699  23.118  0.00  0.00    +0.000 C 
ATOM     14  C   UNL     1      -0.428   9.362  22.874  0.00  0.00    +0.000 C 
ATOM     15  C   UNL     1       0.971   9.520  22.279  0.00  0.00    +0.000 C 
ENDBRANCH   9  10
ENDBRANCH   6   9
ENDBRANCH   2   4
BRANCH   1  17
ATOM     16  C   UNL     1       5.302   4.390  16.174  0.00  0.00    +0.000 C 
ATOM     17  C   UNL     1       4.412   4.350  17.434  0.00  0.00    +0.000 C 
ATOM     18  C   UNL     1       5.276   4.339  18.698  0.00  0.00    +0.000 C 
ENDBRANCH   1  17
BRANCH   1  19
ATOM     19  C   UNL     1       1.954   5.038  17.826  0.00  0.00    +0.000 C 
BRANCH  19  20
ATOM     20  C   UNL     1       1.653   3.804  18.653  0.00  0.00    +0.000 A 
ATOM     21  N   UNL     1       1.379   2.578  18.236  0.00  0.00    +0.000 NA
ATOM     22  C   UNL     1       1.167   1.813  19.349  0.00  0.00    +0.000 A 
ATOM     23  C   UNL     1       1.360   2.556  20.483  0.00  0.00    +0.000 A 
ATOM     24  N   UNL     1       1.749   3.791  20.035  0.00  0.00    +0.000 N 
ATOM     25  C   UNL     1       2.270   4.836  20.882  0.00  0.00    +0.000 C 
ENDBRANCH  19  20
ENDBRANCH   1  19
TORSDOF 6
ENDMDL
MODEL 3
REMARK VINA RESULT:      -6.7      2.009      2.584
REMARK  Name = 
REMARK  9 active torsions:
REMARK  status: ('A' for Active; 'I' for Inactive)
REMARK    1  A    between atoms: C_1  and  C_2
REMARK    2  A    between atoms: C_2  and  C_3
REMARK    3  A    between atoms: C_2  and  N_4
REMARK    4  A    between atoms: N_4  and  C_5
REMARK    5  A    between atoms: C_5  and  C_6
REMARK    6  A    between atoms: N_10  and  C_11
REMARK    7  A    between atoms: C_12  and  C_14
REMARK    8  A    between atoms: N_16  and  C_17
REMARK    9  A    between atoms: C_17  and  C_18
REMARK                            x       y       z     vdW  Elec       q    Type
REMARK                         _______ _______ _______ _____ _____    ______ ____
ROOT
ATOM      1  N   UNL     1       5.086   5.353  16.672  0.00  0.00    +0.000 N 
ATOM      2  C   UNL     1       5.043   6.623  17.303  0.00  0.00    +0.000 C 
ATOM      3  O   UNL     1       6.057   7.326  17.378  0.00  0.00    +0.000 OA
ENDROOT
BRANCH   2   4
ATOM      4  C   UNL     1       3.819   7.169  17.919  0.00  0.00    +0.000 A 
ATOM      5  C   UNL     1       3.103   8.220  17.375  0.00  0.00    +0.000 A 
ATOM      6  N   UNL     1       2.088   8.445  18.245  0.00  0.00    +0.000 N 
ATOM      7  N   UNL     1       2.119   7.559  19.259  0.00  0.00    +0.000 NA
ATOM      8  N   UNL     1       3.186   6.775  19.076  0.00  0.00    +0.000 NA
BRANCH   6   9
ATOM      9  C   UNL     1       1.017   9.417  18.096  0.00  0.00    +0.000 C 
BRANCH   9  10
ATOM     10  C   UNL     1       0.579  10.133  19.391  0.00  0.00    +0.000 C 
ATOM     11  C   UNL     1       1.220  11.518  19.586  0.00  0.00    +0.000 C 
ATOM     12  C   UNL     1       0.686  12.580  18.626  0.00  0.00    +0.000 C 
ATOM     13  C   UNL     1      -0.839  12.671  18.625  0.00  0.00    +0.000 C 
ATOM     14  C   UNL     1      -1.525  11.314  18.503  0.00  0.00    +0.000 C 
ATOM     15  C   UNL     1      -0.954  10.272  19.465  0.00  0.00    +0.000 C 
ENDBRANCH   9  10
ENDBRANCH   6   9
ENDBRANCH   2   4
BRANCH   1  17
ATOM     16  C   UNL     1       7.424   4.511  17.313  0.00  0.00    +0.000 C 
ATOM     17  C   UNL     1       6.419   4.882  16.204  0.00  0.00    +0.000 C 
ATOM     18  C   UNL     1       6.278   3.730  15.205  0.00  0.00    +0.000 C 
ENDBRANCH   1  17
BRANCH   1  19
ATOM     19  C   UNL     1       3.982   4.388  16.904  0.00  0.00    +0.000 C 
BRANCH  19  20
ATOM     20  C   UNL     1       3.906   3.620  18.208  0.00  0.00    +0.000 A 
ATOM     21  N   UNL     1       4.888   3.295  19.034  0.00  0.00    +0.000 NA
ATOM     22  C   UNL     1       4.331   2.593  20.066  0.00  0.00    +0.000 A 
ATOM     23  C   UNL     1       2.972   2.519  19.912  0.00  0.00    +0.000 A 
ATOM     24  N   UNL     1       2.703   3.241  18.781  0.00  0.00    +0.000 N 
ATOM     25  C   UNL     1       1.377   3.619  18.353  0.00  0.00    +0.000 C 
ENDBRANCH  19  20
ENDBRANCH   1  19
TORSDOF 6
ENDMDL
MODEL 4
REMARK VINA RESULT:      -6.7      2.183      3.768
REMARK  Name = 
REMARK  9 active torsions:
REMARK  status: ('A' for Active; 'I' for Inactive)
REMARK    1  A    between atoms: C_1  and  C_2
REMARK    2  A    between atoms: C_2  and  C_3
REMARK    3  A    between atoms: C_2  and  N_4
REMARK    4  A    between atoms: N_4  and  C_5
REMARK    5  A    between atoms: C_5  and  C_6
REMARK    6  A    between atoms: N_10  and  C_11
REMARK    7  A    between atoms: C_12  and  C_14
REMARK    8  A    between atoms: N_16  and  C_17
REMARK    9  A    between atoms: C_17  and  C_18
REMARK                            x       y       z     vdW  Elec       q    Type
REMARK                         _______ _______ _______ _____ _____    ______ ____
ROOT
ATOM      1  N   UNL     1       3.424   3.994  19.302  0.00  0.00    +0.000 N 
ATOM      2  C   UNL     1       2.410   4.765  19.927  0.00  0.00    +0.000 C 
ATOM      3  O   UNL     1       1.614   4.243  20.715  0.00  0.00    +0.000 OA
ENDROOT
BRANCH   2   4
ATOM      4  C   UNL     1       2.225   6.205  19.666  0.00  0.00    +0.000 A 
ATOM      5  C   UNL     1       1.706   7.081  20.601  0.00  0.00    +0.000 A 
ATOM      6  N   UNL     1       1.661   8.283  19.974  0.00  0.00    +0.000 N 
ATOM      7  N   UNL     1       2.170   8.194  18.730  0.00  0.00    +0.000 NA
ATOM      8  N   UNL     1       2.511   6.919  18.524  0.00  0.00    +0.000 NA
BRANCH   6   9
ATOM      9  C   UNL     1       1.242   9.549  20.553  0.00  0.00    +0.000 C 
BRANCH   9  10
ATOM     10  C   UNL     1      -0.274   9.703  20.797  0.00  0.00    +0.000 C 
ATOM     11  C   UNL     1      -0.626  10.476  22.079  0.00  0.00    +0.000 C 
ATOM     12  C   UNL     1      -0.324  11.972  21.994  0.00  0.00    +0.000 C 
ATOM     13  C   UNL     1      -0.936  12.635  20.762  0.00  0.00    +0.000 C 
ATOM     14  C   UNL     1      -0.674  11.868  19.470  0.00  0.00    +0.000 C 
ATOM     15  C   UNL     1      -0.970  10.374  19.596  0.00  0.00    +0.000 C 
ENDBRANCH   9  10
ENDBRANCH   6   9
ENDBRANCH   2   4
BRANCH   1  17
ATOM     16  C   UNL     1       3.452   1.622  18.321  0.00  0.00    +0.000 C 
ATOM     17  C   UNL     1       3.411   2.528  19.569  0.00  0.00    +0.000 C 
ATOM     18  C   UNL     1       4.519   2.136  20.551  0.00  0.00    +0.000 C 
ENDBRANCH   1  17
BRANCH   1  19
ATOM     19  C   UNL     1       4.124   4.539  18.112  0.00  0.00    +0.000 C 
BRANCH  19  20
ATOM     20  C   UNL     1       5.527   5.097  18.245  0.00  0.00    +0.000 A 
ATOM     21  N   UNL     1       6.491   4.718  19.069  0.00  0.00    +0.000 NA
ATOM     22  C   UNL     1       7.568   5.526  18.827  0.00  0.00    +0.000 A 
ATOM     23  C   UNL     1       7.293   6.390  17.801  0.00  0.00    +0.000 A 
ATOM     24  N   UNL     1       6.032   6.056  17.384  0.00  0.00    +0.000 N 
ATOM     25  C   UNL     1       5.413   6.559  16.181  0.00  0.00    +0.000 C 
ENDBRANCH  19  20
ENDBRANCH   1  19
TORSDOF 6
ENDMDL
MODEL 5
REMARK VINA RESULT:      -6.6      2.288      4.123
REMARK  Name = 
REMARK  9 active torsions:
REMARK  status: ('A' for Active; 'I' for Inactive)
REMARK    1  A    between atoms: C_1  and  C_2
REMARK    2  A    between atoms: C_2  and  C_3
REMARK    3  A    between atoms: C_2  and  N_4
REMARK    4  A    between atoms: N_4  and  C_5
REMARK    5  A    between atoms: C_5  and  C_6
REMARK    6  A    between atoms: N_10  and  C_11
REMARK    7  A    between atoms: C_12  and  C_14
REMARK    8  A    between atoms: N_16  and  C_17
REMARK    9  A    between atoms: C_17  and  C_18
REMARK                            x       y       z     vdW  Elec       q    Type
REMARK                         _______ _______ _______ _____ _____    ______ ____
ROOT
ATOM      1  N   UNL     1       3.656   3.873  19.555  0.00  0.00    +0.000 N 
ATOM      2  C   UNL     1       2.460   4.547  19.196  0.00  0.00    +0.000 C 
ATOM      3  O   UNL     1       1.397   3.928  19.077  0.00  0.00    +0.000 OA
ENDROOT
BRANCH   2   4
ATOM      4  C   UNL     1       2.410   5.995  18.923  0.00  0.00    +0.000 A 
ATOM      5  C   UNL     1       1.822   6.906  19.781  0.00  0.00    +0.000 A 
ATOM      6  N   UNL     1       1.946   8.107  19.163  0.00  0.00    +0.000 N 
ATOM      7  N   UNL     1       2.620   7.983  18.004  0.00  0.00    +0.000 NA
ATOM      8  N   UNL     1       2.903   6.687  17.839  0.00  0.00    +0.000 NA
BRANCH   6   9
ATOM      9  C   UNL     1       1.533   9.399  19.687  0.00  0.00    +0.000 C 
BRANCH   9  10
ATOM     10  C   UNL     1       1.095  10.438  18.633  0.00  0.00    +0.000 C 
ATOM     11  C   UNL     1      -0.274  10.144  17.997  0.00  0.00    +0.000 C 
ATOM     12  C   UNL     1      -1.451  10.370  18.945  0.00  0.00    +0.000 C 
ATOM     13  C   UNL     1      -1.431  11.749  19.602  0.00  0.00    +0.000 C 
ATOM     14  C   UNL     1      -0.073  12.118  20.189  0.00  0.00    +0.000 C 
ATOM     15  C   UNL     1       1.082  11.863  19.221  0.00  0.00    +0.000 C 
ENDBRANCH   9  10
ENDBRANCH   6   9
ENDBRANCH   2   4
BRANCH   1  17
ATOM     16  C   UNL     1       3.452   1.614  18.354  0.00  0.00    +0.000 C 
ATOM     17  C   UNL     1       3.578   2.391  19.680  0.00  0.00    +0.000 C 
ATOM     18  C   UNL     1       4.743   1.844  20.511  0.00  0.00    +0.000 C 
ENDBRANCH   1  17
BRANCH   1  19
ATOM     19  C   UNL     1       4.962   4.545  19.344  0.00  0.00    +0.000 C 
BRANCH  19  20
ATOM     20  C   UNL     1       5.657   4.450  18.000  0.00  0.00    +0.000 A 
ATOM     21  N   UNL     1       5.153   4.078  16.834  0.00  0.00    +0.000 NA
ATOM     22  C   UNL     1       6.166   4.141  15.919  0.00  0.00    +0.000 A 
ATOM     23  C   UNL     1       7.311   4.608  16.507  0.00  0.00    +0.000 A 
ATOM     24  N   UNL     1       6.958   4.881  17.802  0.00  0.00    +0.000 N 
ATOM     25  C   UNL     1       7.791   5.598  18.738  0.00  0.00    +0.000 C 
ENDBRANCH  19  20
ENDBRANCH   1  19
TORSDOF 6
ENDMDL
MODEL 6
REMARK VINA RESULT:      -6.6      2.266      3.793
REMARK  Name = 
REMARK  9 active torsions:
REMARK  status: ('A' for Active; 'I' for Inactive)
REMARK    1  A    between atoms: C_1  and  C_2
REMARK    2  A    between atoms: C_2  and  C_3
REMARK    3  A    between atoms: C_2  and  N_4
REMARK    4  A    between atoms: N_4  and  C_5
REMARK    5  A    between atoms: C_5  and  C_6
REMARK    6  A    between atoms: N_10  and  C_11
REMARK    7  A    between atoms: C_12  and  C_14
REMARK    8  A    between atoms: N_16  and  C_17
REMARK    9  A    between atoms: C_17  and  C_18
REMARK                            x       y       z     vdW  Elec       q    Type
REMARK                         _______ _______ _______ _____ _____    ______ ____
ROOT
ATOM      1  N   UNL     1       3.412   3.966  19.342  0.00  0.00    +0.000 N 
ATOM      2  C   UNL     1       2.439   4.738  20.028  0.00  0.00    +0.000 C 
ATOM      3  O   UNL     1       1.689   4.216  20.860  0.00  0.00    +0.000 OA
ENDROOT
BRANCH   2   4
ATOM      4  C   UNL     1       2.243   6.180  19.781  0.00  0.00    +0.000 A 
ATOM      5  C   UNL     1       1.537   7.003  20.639  0.00  0.00    +0.000 A 
ATOM      6  N   UNL     1       1.551   8.225  20.049  0.00  0.00    +0.000 N 
ATOM      7  N   UNL     1       2.268   8.198  18.909  0.00  0.00    +0.000 NA
ATOM      8  N   UNL     1       2.691   6.944  18.728  0.00  0.00    +0.000 NA
BRANCH   6   9
ATOM      9  C   UNL     1       0.988   9.453  20.585  0.00  0.00    +0.000 C 
BRANCH   9  10
ATOM     10  C   UNL     1       0.942  10.648  19.609  0.00  0.00    +0.000 C 
ATOM     11  C   UNL     1      -0.109  10.506  18.496  0.00  0.00    +0.000 C 
ATOM     12  C   UNL     1      -1.548  10.647  18.992  0.00  0.00    +0.000 C 
ATOM     13  C   UNL     1      -1.775  11.917  19.809  0.00  0.00    +0.000 C 
ATOM     14  C   UNL     1      -0.718  12.141  20.885  0.00  0.00    +0.000 C 
ATOM     15  C   UNL     1       0.708  11.975  20.358  0.00  0.00    +0.000 C 
ENDBRANCH   9  10
ENDBRANCH   6   9
ENDBRANCH   2   4
BRANCH   1  17
ATOM     16  C   UNL     1       3.408   1.597  18.355  0.00  0.00    +0.000 C 
ATOM     17  C   UNL     1       3.411   2.500  19.605  0.00  0.00    +0.000 C 
ATOM     18  C   UNL     1       4.554   2.107  20.546  0.00  0.00    +0.000 C 
ENDBRANCH   1  17
BRANCH   1  19
ATOM     19  C   UNL     1       4.042   4.512  18.115  0.00  0.00    +0.000 C 
BRANCH  19  20
ATOM     20  C   UNL     1       5.549   4.659  18.034  0.00  0.00    +0.000 A 
ATOM     21  N   UNL     1       6.405   4.929  19.006  0.00  0.00    +0.000 NA
ATOM     22  C   UNL     1       7.651   4.974  18.445  0.00  0.00    +0.000 A 
ATOM     23  C   UNL     1       7.582   4.675  17.110  0.00  0.00    +0.000 A 
ATOM     24  N   UNL     1       6.262   4.396  16.876  0.00  0.00    +0.000 N 
ATOM     25  C   UNL     1       5.757   3.820  15.653  0.00  0.00    +0.000 C 
ENDBRANCH  19  20
ENDBRANCH   1  19
TORSDOF 6
ENDMDL
MODEL 7
REMARK VINA RESULT:      -6.6      2.863      8.220
REMARK  Name = 
REMARK  9 active torsions:
REMARK  status: ('A' for Active; 'I' for Inactive)
REMARK    1  A    between atoms: C_1  and  C_2
REMARK    2  A    between atoms: C_2  and  C_3
REMARK    3  A    between atoms: C_2  and  N_4
REMARK    4  A    between atoms: N_4  and  C_5
REMARK    5  A    between atoms: C_5  and  C_6
REMARK    6  A    between atoms: N_10  and  C_11
REMARK    7  A    between atoms: C_12  and  C_14
REMARK    8  A    between atoms: N_16  and  C_17
REMARK    9  A    between atoms: C_17  and  C_18
REMARK                            x       y       z     vdW  Elec       q    Type
REMARK                         _______ _______ _______ _____ _____    ______ ____
ROOT
ATOM      1  N   UNL     1      -0.752  11.348  21.764  0.00  0.00    +0.000 N 
ATOM      2  C   UNL     1       0.184  10.318  22.039  0.00  0.00    +0.000 C 
ATOM      3  O   UNL     1       0.535  10.075  23.199  0.00  0.00    +0.000 OA
ENDROOT
BRANCH   2   4
ATOM      4  C   UNL     1       0.807   9.501  20.980  0.00  0.00    +0.000 A 
ATOM      5  C   UNL     1       1.253   8.208  21.188  0.00  0.00    +0.000 A 
ATOM      6  N   UNL     1       1.789   7.823  20.003  0.00  0.00    +0.000 N 
ATOM      7  N   UNL     1       1.647   8.790  19.076  0.00  0.00    +0.000 NA
ATOM      8  N   UNL     1       1.054   9.831  19.667  0.00  0.00    +0.000 NA
BRANCH   6   9
ATOM      9  C   UNL     1       2.345   6.518  19.686  0.00  0.00    +0.000 C 
BRANCH   9  10
ATOM     10  C   UNL     1       2.475   6.194  18.182  0.00  0.00    +0.000 C 
ATOM     11  C   UNL     1       3.909   6.312  17.640  0.00  0.00    +0.000 C 
ATOM     12  C   UNL     1       4.840   5.201  18.124  0.00  0.00    +0.000 C 
ATOM     13  C   UNL     1       4.272   3.803  17.889  0.00  0.00    +0.000 C 
ATOM     14  C   UNL     1       2.825   3.653  18.349  0.00  0.00    +0.000 C 
ATOM     15  C   UNL     1       1.927   4.790  17.861  0.00  0.00    +0.000 C 
ENDBRANCH   9  10
ENDBRANCH   6   9
ENDBRANCH   2   4
BRANCH   1  17
ATOM     16  C   UNL     1      -1.046  13.695  22.759  0.00  0.00    +0.000 C 
ATOM     17  C   UNL     1      -1.203  12.170  22.922  0.00  0.00    +0.000 C 
ATOM     18  C   UNL     1      -2.640  11.820  23.321  0.00  0.00    +0.000 C 
ENDBRANCH   1  17
BRANCH   1  19
ATOM     19  C   UNL     1      -0.885  11.860  20.377  0.00  0.00    +0.000 C 
BRANCH  19  20
ATOM     20  C   UNL     1      -2.244  11.890  19.705  0.00  0.00    +0.000 A 
ATOM     21  N   UNL     1      -3.304  12.618  20.019  0.00  0.00    +0.000 NA
ATOM     22  C   UNL     1      -4.293  12.290  19.135  0.00  0.00    +0.000 A 
ATOM     23  C   UNL     1      -3.833  11.380  18.221  0.00  0.00    +0.000 A 
ATOM     24  N   UNL     1      -2.513  11.196  18.538  0.00  0.00    +0.000 N 
ATOM     25  C   UNL     1      -1.570  10.485  17.709  0.00  0.00    +0.000 C 
ENDBRANCH  19  20
ENDBRANCH   1  19
TORSDOF 6
ENDMDL
MODEL 8
REMARK VINA RESULT:      -6.6      2.235      3.860
REMARK  Name = 
REMARK  9 active torsions:
REMARK  status: ('A' for Active; 'I' for Inactive)
REMARK    1  A    between atoms: C_1  and  C_2
REMARK    2  A    between atoms: C_2  and  C_3
REMARK    3  A    between atoms: C_2  and  N_4
REMARK    4  A    between atoms: N_4  and  C_5
REMARK    5  A    between atoms: C_5  and  C_6
REMARK    6  A    between atoms: N_10  and  C_11
REMARK    7  A    between atoms: C_12  and  C_14
REMARK    8  A    between atoms: N_16  and  C_17
REMARK    9  A    between atoms: C_17  and  C_18
REMARK                            x       y       z     vdW  Elec       q    Type
REMARK                         _______ _______ _______ _____ _____    ______ ____
ROOT
ATOM      1  N   UNL     1       3.374   4.269  19.409  0.00  0.00    +0.000 N 
ATOM      2  C   UNL     1       2.627   5.413  19.791  0.00  0.00    +0.000 C 
ATOM      3  O   UNL     1       1.895   5.386  20.787  0.00  0.00    +0.000 OA
ENDROOT
BRANCH   2   4
ATOM      4  C   UNL     1       2.653   6.676  19.030  0.00  0.00    +0.000 A 
ATOM      5  C   UNL     1       1.888   7.777  19.368  0.00  0.00    +0.000 A 
ATOM      6  N   UNL     1       2.162   8.705  18.416  0.00  0.00    +0.000 N 
ATOM      7  N   UNL     1       3.087   8.246  17.551  0.00  0.00    +0.000 NA
ATOM      8  N   UNL     1       3.390   6.995  17.912  0.00  0.00    +0.000 NA
BRANCH   6   9
ATOM      9  C   UNL     1       1.648  10.063  18.356  0.00  0.00    +0.000 C 
BRANCH   9  10
ATOM     10  C   UNL     1       0.726  10.482  19.522  0.00  0.00    +0.000 C 
ATOM     11  C   UNL     1       0.960  11.918  20.017  0.00  0.00    +0.000 C 
ATOM     12  C   UNL     1       0.478  12.989  19.039  0.00  0.00    +0.000 C 
ATOM     13  C   UNL     1      -0.969  12.784  18.596  0.00  0.00    +0.000 C 
ATOM     14  C   UNL     1      -1.271  11.355  18.159  0.00  0.00    +0.000 C 
ATOM     15  C   UNL     1      -0.760  10.311  19.151  0.00  0.00    +0.000 C 
ENDBRANCH   9  10
ENDBRANCH   6   9
ENDBRANCH   2   4
BRANCH   1  17
ATOM     16  C   UNL     1       1.939   2.174  19.784  0.00  0.00    +0.000 C 
ATOM     17  C   UNL     1       3.153   3.028  20.203  0.00  0.00    +0.000 C 
ATOM     18  C   UNL     1       4.420   2.169  20.249  0.00  0.00    +0.000 C 
ENDBRANCH   1  17
BRANCH   1  19
ATOM     19  C   UNL     1       3.949   4.198  18.042  0.00  0.00    +0.000 C 
BRANCH  19  20
ATOM     20  C   UNL     1       5.433   4.420  17.830  0.00  0.00    +0.000 A 
ATOM     21  N   UNL     1       6.390   4.529  18.738  0.00  0.00    +0.000 NA
ATOM     22  C   UNL     1       7.562   4.735  18.065  0.00  0.00    +0.000 A 
ATOM     23  C   UNL     1       7.347   4.703  16.713  0.00  0.00    +0.000 A 
ATOM     24  N   UNL     1       6.014   4.420  16.573  0.00  0.00    +0.000 N 
ATOM     25  C   UNL     1       5.384   4.076  15.321  0.00  0.00    +0.000 C 
ENDBRANCH  19  20
ENDBRANCH   1  19
TORSDOF 6
ENDMDL
MODEL 9
REMARK VINA RESULT:      -6.6      2.146      2.890
REMARK  Name = 
REMARK  9 active torsions:
REMARK  status: ('A' for Active; 'I' for Inactive)
REMARK    1  A    between atoms: C_1  and  C_2
REMARK    2  A    between atoms: C_2  and  C_3
REMARK    3  A    between atoms: C_2  and  N_4
REMARK    4  A    between atoms: N_4  and  C_5
REMARK    5  A    between atoms: C_5  and  C_6
REMARK    6  A    between atoms: N_10  and  C_11
REMARK    7  A    between atoms: C_12  and  C_14
REMARK    8  A    between atoms: N_16  and  C_17
REMARK    9  A    between atoms: C_17  and  C_18
REMARK                            x       y       z     vdW  Elec       q    Type
REMARK                         _______ _______ _______ _____ _____    ______ ____
ROOT
ATOM      1  N   UNL     1       3.917   5.844  18.117  0.00  0.00    +0.000 N 
ATOM      2  C   UNL     1       3.438   7.161  17.896  0.00  0.00    +0.000 C 
ATOM      3  O   UNL     1       3.880   7.847  16.969  0.00  0.00    +0.000 OA
ENDROOT
BRANCH   2   4
ATOM      4  C   UNL     1       2.420   7.795  18.755  0.00  0.00    +0.000 A 
ATOM      5  C   UNL     1       1.553   8.774  18.301  0.00  0.00    +0.000 A 
ATOM      6  N   UNL     1       0.814   9.122  19.384  0.00  0.00    +0.000 N 
ATOM      7  N   UNL     1       1.149   8.375  20.454  0.00  0.00    +0.000 NA
ATOM      8  N   UNL     1       2.143   7.562  20.083  0.00  0.00    +0.000 NA
BRANCH   6   9
ATOM      9  C   UNL     1      -0.281  10.077  19.416  0.00  0.00    +0.000 C 
BRANCH   9  10
ATOM     10  C   UNL     1      -0.681  10.680  18.053  0.00  0.00    +0.000 C 
ATOM     11  C   UNL     1      -1.646   9.802  17.240  0.00  0.00    +0.000 C 
ATOM     12  C   UNL     1      -3.062   9.752  17.815  0.00  0.00    +0.000 C 
ATOM     13  C   UNL     1      -3.652  11.138  18.065  0.00  0.00    +0.000 C 
ATOM     14  C   UNL     1      -2.705  12.073  18.810  0.00  0.00    +0.000 C 
ATOM     15  C   UNL     1      -1.295  12.084  18.219  0.00  0.00    +0.000 C 
ENDBRANCH   9  10
ENDBRANCH   6   9
ENDBRANCH   2   4
BRANCH   1  17
ATOM     16  C   UNL     1       6.374   5.118  17.960  0.00  0.00    +0.000 C 
ATOM     17  C   UNL     1       5.033   5.382  17.245  0.00  0.00    +0.000 C 
ATOM     18  C   UNL     1       4.618   4.161  16.419  0.00  0.00    +0.000 C 
ENDBRANCH   1  17
BRANCH   1  19
ATOM     19  C   UNL     1       3.652   5.181  19.419  0.00  0.00    +0.000 C 
BRANCH  19  20
ATOM     20  C   UNL     1       2.615   4.080  19.514  0.00  0.00    +0.000 A 
ATOM     21  N   UNL     1       1.319   4.142  19.253  0.00  0.00    +0.000 NA
ATOM     22  C   UNL     1       0.800   2.901  19.498  0.00  0.00    +0.000 A 
ATOM     23  C   UNL     1       1.792   2.034  19.868  0.00  0.00    +0.000 A 
ATOM     24  N   UNL     1       2.948   2.765  19.795  0.00  0.00    +0.000 N 
ATOM     25  C   UNL     1       4.274   2.203  19.889  0.00  0.00    +0.000 C 
ENDBRANCH  19  20
ENDBRANCH   1  19
TORSDOF 6
ENDMDL
