MODEL 1
REMARK VINA RESULT:      -7.9      0.000      0.000
REMARK  Name = 
REMARK  9 active torsions:
REMARK  status: ('A' for Active; 'I' for Inactive)
REMARK    1  A    between atoms: C_1  and  O_2
REMARK    2  A    between atoms: O_2  and  C_3
REMARK    3  A    between atoms: C_3  and  C_4
REMARK    4  A    between atoms: C_4  and  O_5
REMARK    5  A    between atoms: C_4  and  C_6
REMARK    6  A    between atoms: C_6  and  N_7
REMARK    7  A    between atoms: C_8  and  C_10
REMARK    8  A    between atoms: C_21  and  C_22
REMARK    9  A    between atoms: C_22  and  C_23
REMARK                            x       y       z     vdW  Elec       q    Type
REMARK                         _______ _______ _______ _____ _____    ______ ____
ROOT
ATOM      1  C   UNL     1       2.364   6.768  19.536  0.00  0.00    +0.000 A 
ATOM      2  C   UNL     1       1.774   6.466  20.772  0.00  0.00    +0.000 A 
ATOM      3  C   UNL     1       0.970   7.411  21.428  0.00  0.00    +0.000 A 
ATOM      4  C   UNL     1       0.721   8.659  20.848  0.00  0.00    +0.000 A 
ATOM      5  C   UNL     1       1.262   8.951  19.607  0.00  0.00    +0.000 A 
ATOM      6  C   UNL     1       2.097   8.017  18.975  0.00  0.00    +0.000 A 
ATOM      7  C   UNL     1       2.577   8.587  17.678  0.00  0.00    +0.000 C 
ATOM      8  C   UNL     1       2.156  10.063  17.803  0.00  0.00    +0.000 C 
ATOM      9  N   UNL     1       1.123  10.128  18.844  0.00  0.00    +0.000 N 
ATOM     10  C   UNL     1       0.492  11.347  19.081  0.00  0.00    +0.000 A 
ATOM     11  C   UNL     1      -0.768  11.391  19.679  0.00  0.00    +0.000 A 
ATOM     12  C   UNL     1      -1.421  12.614  19.886  0.00  0.00    +0.000 A 
ATOM     13  C   UNL     1      -0.766  13.780  19.499  0.00  0.00    +0.000 A 
ATOM     14  C   UNL     1       0.476  13.664  18.905  0.00  0.00    +0.000 A 
ATOM     15  N   UNL     1       1.096  12.486  18.672  0.00  0.00    +0.000 NA
ENDROOT
BRANCH   1  17
ATOM     16  N   UNL     1       2.603   4.748  18.186  0.00  0.00    +0.000 N 
ATOM     17  C   UNL     1       3.239   5.796  18.820  0.00  0.00    +0.000 C 
ATOM     18  O   UNL     1       4.457   5.922  18.827  0.00  0.00    +0.000 OA
ATOM     19  H   UNL     1       1.600   4.722  18.118  0.00  0.00    +0.000 HD
BRANCH  16  20
ATOM     20  C   UNL     1       3.346   3.795  17.383  0.00  0.00    +0.000 C 
BRANCH  20  21
ATOM     21  C   UNL     1       3.236   2.362  17.925  0.00  0.00    +0.000 C 
BRANCH  21  22
ATOM     22  O   UNL     1       1.924   1.863  17.595  0.00  0.00    +0.000 OA
ATOM     23  H   UNL     1       1.659   1.240  18.292  0.00  0.00    +0.000 HD
ENDBRANCH  21  22
BRANCH  21  24
ATOM     24  C   UNL     1       3.474   2.369  19.444  0.00  0.00    +0.000 C 
BRANCH  24  26
ATOM     25  C   UNL     1       2.366   2.847  21.471  0.00  0.00    +0.000 C 
ATOM     26  O   UNL     1       2.227   2.349  20.146  0.00  0.00    +0.000 OA
ENDBRANCH  24  26
ENDBRANCH  21  24
ENDBRANCH  20  21
ENDBRANCH  16  20
ENDBRANCH   1  17
BRANCH  12  27
ATOM     27  C   UNL     1      -2.791  12.661  20.514  0.00  0.00    +0.000 C 
BRANCH  27  28
ATOM     28  C   UNL     1      -3.901  12.264  19.570  0.00  0.00    +0.000 A 
ATOM     29  C   UNL     1      -5.241  12.350  19.968  0.00  0.00    +0.000 A 
ATOM     30  C   UNL     1      -6.256  11.955  19.099  0.00  0.00    +0.000 A 
ATOM     31  F   UNL     1      -7.532  12.048  19.498  0.00  0.00    +0.000 F 
ATOM     32  C   UNL     1      -5.970  11.471  17.830  0.00  0.00    +0.000 A 
ATOM     33  C   UNL     1      -4.643  11.385  17.429  0.00  0.00    +0.000 A 
ATOM     34 CL   UNL     1      -4.265  10.794  15.855  0.00  0.00    +0.000 Cl
ATOM     35  C   UNL     1      -3.610  11.774  18.284  0.00  0.00    +0.000 A 
ENDBRANCH  27  28
ENDBRANCH  12  27
TORSDOF 8
ENDMDL
MODEL 2
REMARK VINA RESULT:      -7.9      1.590      1.977
REMARK  Name = 
REMARK  9 active torsions:
REMARK  status: ('A' for Active; 'I' for Inactive)
REMARK    1  A    between atoms: C_1  and  O_2
REMARK    2  A    between atoms: O_2  and  C_3
REMARK    3  A    between atoms: C_3  and  C_4
REMARK    4  A    between atoms: C_4  and  O_5
REMARK    5  A    between atoms: C_4  and  C_6
REMARK    6  A    between atoms: C_6  and  N_7
REMARK    7  A    between atoms: C_8  and  C_10
REMARK    8  A    between atoms: C_21  and  C_22
REMARK    9  A    between atoms: C_22  and  C_23
REMARK                            x       y       z     vdW  Elec       q    Type
REMARK                         _______ _______ _______ _____ _____    ______ ____
ROOT
ATOM      1  C   UNL     1       2.153   7.118  19.673  0.00  0.00    +0.000 A 
ATOM      2  C   UNL     1       1.577   6.868  20.927  0.00  0.00    +0.000 A 
ATOM      3  C   UNL     1       0.795   7.846  21.560  0.00  0.00    +0.000 A 
ATOM      4  C   UNL     1       0.554   9.076  20.940  0.00  0.00    +0.000 A 
ATOM      5  C   UNL     1       1.081   9.317  19.682  0.00  0.00    +0.000 A 
ATOM      6  C   UNL     1       1.895   8.350  19.071  0.00  0.00    +0.000 A 
ATOM      7  C   UNL     1       2.363   8.868  17.749  0.00  0.00    +0.000 C 
ATOM      8  C   UNL     1       1.963  10.352  17.828  0.00  0.00    +0.000 C 
ATOM      9  N   UNL     1       0.946  10.468  18.880  0.00  0.00    +0.000 N 
ATOM     10  C   UNL     1       0.335  11.703  19.083  0.00  0.00    +0.000 A 
ATOM     11  C   UNL     1      -0.916  11.785  19.697  0.00  0.00    +0.000 A 
ATOM     12  C   UNL     1      -1.550  13.023  19.869  0.00  0.00    +0.000 A 
ATOM     13  C   UNL     1      -0.885  14.166  19.432  0.00  0.00    +0.000 A 
ATOM     14  C   UNL     1       0.346  14.013  18.825  0.00  0.00    +0.000 A 
ATOM     15  N   UNL     1       0.947  12.819  18.626  0.00  0.00    +0.000 NA
ENDROOT
BRANCH   1  17
ATOM     16  N   UNL     1       3.997   5.519  19.733  0.00  0.00    +0.000 N 
ATOM     17  C   UNL     1       3.005   6.109  18.979  0.00  0.00    +0.000 C 
ATOM     18  O   UNL     1       2.834   5.850  17.794  0.00  0.00    +0.000 OA
ATOM     19  H   UNL     1       4.054   5.682  20.725  0.00  0.00    +0.000 HD
BRANCH  16  20
ATOM     20  C   UNL     1       4.824   4.459  19.189  0.00  0.00    +0.000 C 
BRANCH  20  21
ATOM     21  C   UNL     1       4.169   3.076  19.329  0.00  0.00    +0.000 C 
BRANCH  21  22
ATOM     22  O   UNL     1       5.127   2.194  19.949  0.00  0.00    +0.000 OA
ATOM     23  H   UNL     1       4.652   1.649  20.598  0.00  0.00    +0.000 HD
ENDBRANCH  21  22
BRANCH  21  24
ATOM     24  C   UNL     1       3.747   2.567  17.940  0.00  0.00    +0.000 C 
BRANCH  24  26
ATOM     25  C   UNL     1       1.492   2.662  18.628  0.00  0.00    +0.000 C 
ATOM     26  O   UNL     1       2.503   1.865  18.022  0.00  0.00    +0.000 OA
ENDBRANCH  24  26
ENDBRANCH  21  24
ENDBRANCH  20  21
ENDBRANCH  16  20
ENDBRANCH   1  17
BRANCH  12  27
ATOM     27  C   UNL     1      -2.910  13.111  20.514  0.00  0.00    +0.000 C 
BRANCH  27  28
ATOM     28  C   UNL     1      -3.986  12.371  19.755  0.00  0.00    +0.000 A 
ATOM     29  C   UNL     1      -3.760  11.931  18.445  0.00  0.00    +0.000 A 
ATOM     30  C   UNL     1      -4.770  11.274  17.744  0.00  0.00    +0.000 A 
ATOM     31  F   UNL     1      -4.534  10.858  16.492  0.00  0.00    +0.000 F 
ATOM     32  C   UNL     1      -6.012  11.041  18.319  0.00  0.00    +0.000 A 
ATOM     33  C   UNL     1      -6.240  11.474  19.619  0.00  0.00    +0.000 A 
ATOM     34 CL   UNL     1      -7.772  11.189  20.355  0.00  0.00    +0.000 Cl
ATOM     35  C   UNL     1      -5.244  12.135  20.339  0.00  0.00    +0.000 A 
ENDBRANCH  27  28
ENDBRANCH  12  27
TORSDOF 8
ENDMDL
MODEL 3
REMARK VINA RESULT:      -7.8      2.199      3.212
REMARK  Name = 
REMARK  9 active torsions:
REMARK  status: ('A' for Active; 'I' for Inactive)
REMARK    1  A    between atoms: C_1  and  O_2
REMARK    2  A    between atoms: O_2  and  C_3
REMARK    3  A    between atoms: C_3  and  C_4
REMARK    4  A    between atoms: C_4  and  O_5
REMARK    5  A    between atoms: C_4  and  C_6
REMARK    6  A    between atoms: C_6  and  N_7
REMARK    7  A    between atoms: C_8  and  C_10
REMARK    8  A    between atoms: C_21  and  C_22
REMARK    9  A    between atoms: C_22  and  C_23
REMARK                            x       y       z     vdW  Elec       q    Type
REMARK                         _______ _______ _______ _____ _____    ______ ____
ROOT
ATOM      1  C   UNL     1       2.482   6.561  19.548  0.00  0.00    +0.000 A 
ATOM      2  C   UNL     1       1.893   6.297  20.793  0.00  0.00    +0.000 A 
ATOM      3  C   UNL     1       1.097   7.265  21.425  0.00  0.00    +0.000 A 
ATOM      4  C   UNL     1       0.857   8.499  20.813  0.00  0.00    +0.000 A 
ATOM      5  C   UNL     1       1.397   8.754  19.564  0.00  0.00    +0.000 A 
ATOM      6  C   UNL     1       2.224   7.797  18.955  0.00  0.00    +0.000 A 
ATOM      7  C   UNL     1       2.705   8.329  17.643  0.00  0.00    +0.000 C 
ATOM      8  C   UNL     1       2.295   9.810  17.729  0.00  0.00    +0.000 C 
ATOM      9  N   UNL     1       1.265   9.911  18.770  0.00  0.00    +0.000 N 
ATOM     10  C   UNL     1       0.645  11.141  18.976  0.00  0.00    +0.000 A 
ATOM     11  C   UNL     1      -0.614  11.211  19.575  0.00  0.00    +0.000 A 
ATOM     12  C   UNL     1      -1.257  12.444  19.751  0.00  0.00    +0.000 A 
ATOM     13  C   UNL     1      -0.593  13.594  19.331  0.00  0.00    +0.000 A 
ATOM     14  C   UNL     1       0.646  13.453  18.738  0.00  0.00    +0.000 A 
ATOM     15  N   UNL     1       1.256  12.264  18.536  0.00  0.00    +0.000 NA
ENDROOT
BRANCH   1  17
ATOM     16  N   UNL     1       4.704   5.661  19.087  0.00  0.00    +0.000 N 
ATOM     17  C   UNL     1       3.348   5.563  18.856  0.00  0.00    +0.000 C 
ATOM     18  O   UNL     1       2.864   4.725  18.105  0.00  0.00    +0.000 OA
ATOM     19  H   UNL     1       5.063   6.298  19.779  0.00  0.00    +0.000 HD
BRANCH  16  20
ATOM     20  C   UNL     1       5.630   4.687  18.541  0.00  0.00    +0.000 C 
BRANCH  20  21
ATOM     21  C   UNL     1       7.092   5.148  18.644  0.00  0.00    +0.000 C 
BRANCH  21  22
ATOM     22  O   UNL     1       7.376   5.413  20.034  0.00  0.00    +0.000 OA
ATOM     23  H   UNL     1       6.637   5.062  20.559  0.00  0.00    +0.000 HD
ENDBRANCH  21  22
BRANCH  21  24
ATOM     24  C   UNL     1       7.297   6.402  17.776  0.00  0.00    +0.000 C 
BRANCH  24  26
ATOM     25  C   UNL     1       8.042   8.639  17.836  0.00  0.00    +0.000 C 
ATOM     26  O   UNL     1       8.094   7.366  18.469  0.00  0.00    +0.000 OA
ENDBRANCH  24  26
ENDBRANCH  21  24
ENDBRANCH  20  21
ENDBRANCH  16  20
ENDBRANCH   1  17
BRANCH  12  27
ATOM     27  C   UNL     1      -2.625  12.518  20.380  0.00  0.00    +0.000 C 
BRANCH  27  28
ATOM     28  C   UNL     1      -3.751  12.263  19.407  0.00  0.00    +0.000 A 
ATOM     29  C   UNL     1      -3.489  11.736  18.136  0.00  0.00    +0.000 A 
ATOM     30  C   UNL     1      -4.533  11.531  17.236  0.00  0.00    +0.000 A 
ATOM     31  F   UNL     1      -4.263  11.023  16.025  0.00  0.00    +0.000 F 
ATOM     32  C   UNL     1      -5.844  11.839  17.570  0.00  0.00    +0.000 A 
ATOM     33  C   UNL     1      -6.110  12.361  18.830  0.00  0.00    +0.000 A 
ATOM     34 CL   UNL     1      -7.731  12.744  19.269  0.00  0.00    +0.000 Cl
ATOM     35  C   UNL     1      -5.079  12.576  19.748  0.00  0.00    +0.000 A 
ENDBRANCH  27  28
ENDBRANCH  12  27
TORSDOF 8
ENDMDL
MODEL 4
REMARK VINA RESULT:      -7.8      1.727      2.640
REMARK  Name = 
REMARK  9 active torsions:
REMARK  status: ('A' for Active; 'I' for Inactive)
REMARK    1  A    between atoms: C_1  and  O_2
REMARK    2  A    between atoms: O_2  and  C_3
REMARK    3  A    between atoms: C_3  and  C_4
REMARK    4  A    between atoms: C_4  and  O_5
REMARK    5  A    between atoms: C_4  and  C_6
REMARK    6  A    between atoms: C_6  and  N_7
REMARK    7  A    between atoms: C_8  and  C_10
REMARK    8  A    between atoms: C_21  and  C_22
REMARK    9  A    between atoms: C_22  and  C_23
REMARK                            x       y       z     vdW  Elec       q    Type
REMARK                         _______ _______ _______ _____ _____    ______ ____
ROOT
ATOM      1  C   UNL     1       2.484   6.463  19.537  0.00  0.00    +0.000 A 
ATOM      2  C   UNL     1       1.859   6.211  20.767  0.00  0.00    +0.000 A 
ATOM      3  C   UNL     1       1.076   7.199  21.384  0.00  0.00    +0.000 A 
ATOM      4  C   UNL     1       0.884   8.441  20.770  0.00  0.00    +0.000 A 
ATOM      5  C   UNL     1       1.459   8.684  19.534  0.00  0.00    +0.000 A 
ATOM      6  C   UNL     1       2.273   7.706  18.942  0.00  0.00    +0.000 A 
ATOM      7  C   UNL     1       2.799   8.228  17.642  0.00  0.00    +0.000 C 
ATOM      8  C   UNL     1       2.428   9.720  17.724  0.00  0.00    +0.000 C 
ATOM      9  N   UNL     1       1.377   9.846  18.742  0.00  0.00    +0.000 N 
ATOM     10  C   UNL     1       0.785  11.092  18.937  0.00  0.00    +0.000 A 
ATOM     11  C   UNL     1      -0.484  11.195  19.508  0.00  0.00    +0.000 A 
ATOM     12  C   UNL     1      -1.097  12.444  19.672  0.00  0.00    +0.000 A 
ATOM     13  C   UNL     1      -0.393  13.577  19.272  0.00  0.00    +0.000 A 
ATOM     14  C   UNL     1       0.855  13.403  18.707  0.00  0.00    +0.000 A 
ATOM     15  N   UNL     1       1.437  12.200  18.515  0.00  0.00    +0.000 NA
ENDROOT
BRANCH   1  17
ATOM     16  N   UNL     1       4.698   5.553  19.059  0.00  0.00    +0.000 N 
ATOM     17  C   UNL     1       3.338   5.443  18.862  0.00  0.00    +0.000 C 
ATOM     18  O   UNL     1       2.841   4.577  18.152  0.00  0.00    +0.000 OA
ATOM     19  H   UNL     1       5.070   6.215  19.719  0.00  0.00    +0.000 HD
BRANCH  16  20
ATOM     20  C   UNL     1       5.616   4.563  18.527  0.00  0.00    +0.000 C 
BRANCH  20  21
ATOM     21  C   UNL     1       6.039   4.873  17.083  0.00  0.00    +0.000 C 
BRANCH  21  22
ATOM     22  O   UNL     1       7.314   4.239  16.850  0.00  0.00    +0.000 OA
ATOM     23  H   UNL     1       7.232   3.696  16.048  0.00  0.00    +0.000 HD
ENDBRANCH  21  22
BRANCH  21  24
ATOM     24  C   UNL     1       6.121   6.397  16.889  0.00  0.00    +0.000 C 
BRANCH  24  26
ATOM     25  C   UNL     1       7.821   7.832  17.674  0.00  0.00    +0.000 C 
ATOM     26  O   UNL     1       7.482   6.810  16.743  0.00  0.00    +0.000 OA
ENDBRANCH  24  26
ENDBRANCH  21  24
ENDBRANCH  20  21
ENDBRANCH  16  20
ENDBRANCH   1  17
BRANCH  12  27
ATOM     27  C   UNL     1      -2.477  12.554  20.270  0.00  0.00    +0.000 C 
BRANCH  27  28
ATOM     28  C   UNL     1      -3.583  12.200  19.305  0.00  0.00    +0.000 A 
ATOM     29  C   UNL     1      -4.925  12.379  19.661  0.00  0.00    +0.000 A 
ATOM     30  C   UNL     1      -5.938  12.023  18.773  0.00  0.00    +0.000 A 
ATOM     31  F   UNL     1      -7.217  12.205  19.132  0.00  0.00    +0.000 F 
ATOM     32  C   UNL     1      -5.648  11.488  17.526  0.00  0.00    +0.000 A 
ATOM     33  C   UNL     1      -4.318  11.309  17.167  0.00  0.00    +0.000 A 
ATOM     34 CL   UNL     1      -3.934  10.652  15.621  0.00  0.00    +0.000 Cl
ATOM     35  C   UNL     1      -3.287  11.658  18.042  0.00  0.00    +0.000 A 
ENDBRANCH  27  28
ENDBRANCH  12  27
TORSDOF 8
ENDMDL
MODEL 5
REMARK VINA RESULT:      -7.7      1.405      1.631
REMARK  Name = 
REMARK  9 active torsions:
REMARK  status: ('A' for Active; 'I' for Inactive)
REMARK    1  A    between atoms: C_1  and  O_2
REMARK    2  A    between atoms: O_2  and  C_3
REMARK    3  A    between atoms: C_3  and  C_4
REMARK    4  A    between atoms: C_4  and  O_5
REMARK    5  A    between atoms: C_4  and  C_6
REMARK    6  A    between atoms: C_6  and  N_7
REMARK    7  A    between atoms: C_8  and  C_10
REMARK    8  A    between atoms: C_21  and  C_22
REMARK    9  A    between atoms: C_22  and  C_23
REMARK                            x       y       z     vdW  Elec       q    Type
REMARK                         _______ _______ _______ _____ _____    ______ ____
ROOT
ATOM      1  C   UNL     1       2.290   6.785  19.608  0.00  0.00    +0.000 A 
ATOM      2  C   UNL     1       1.709   6.538  20.860  0.00  0.00    +0.000 A 
ATOM      3  C   UNL     1       0.938   7.525  21.494  0.00  0.00    +0.000 A 
ATOM      4  C   UNL     1       0.715   8.760  20.878  0.00  0.00    +0.000 A 
ATOM      5  C   UNL     1       1.248   8.997  19.621  0.00  0.00    +0.000 A 
ATOM      6  C   UNL     1       2.050   8.021  19.010  0.00  0.00    +0.000 A 
ATOM      7  C   UNL     1       2.528   8.537  17.690  0.00  0.00    +0.000 C 
ATOM      8  C   UNL     1       2.147  10.026  17.772  0.00  0.00    +0.000 C 
ATOM      9  N   UNL     1       1.130  10.152  18.823  0.00  0.00    +0.000 N 
ATOM     10  C   UNL     1       0.535  11.395  19.028  0.00  0.00    +0.000 A 
ATOM     11  C   UNL     1      -0.716  11.493  19.640  0.00  0.00    +0.000 A 
ATOM     12  C   UNL     1      -1.333  12.738  19.814  0.00  0.00    +0.000 A 
ATOM     13  C   UNL     1      -0.652  13.873  19.382  0.00  0.00    +0.000 A 
ATOM     14  C   UNL     1       0.578  13.705  18.777  0.00  0.00    +0.000 A 
ATOM     15  N   UNL     1       1.164  12.504  18.575  0.00  0.00    +0.000 NA
ENDROOT
BRANCH   1  17
ATOM     16  N   UNL     1       2.457   4.822  18.166  0.00  0.00    +0.000 N 
ATOM     17  C   UNL     1       3.130   5.766  18.913  0.00  0.00    +0.000 C 
ATOM     18  O   UNL     1       4.349   5.768  19.032  0.00  0.00    +0.000 OA
ATOM     19  H   UNL     1       1.466   4.900  18.010  0.00  0.00    +0.000 HD
BRANCH  16  20
ATOM     20  C   UNL     1       3.175   3.841  17.374  0.00  0.00    +0.000 C 
BRANCH  20  21
ATOM     21  C   UNL     1       2.580   2.431  17.509  0.00  0.00    +0.000 C 
BRANCH  21  22
ATOM     22  O   UNL     1       1.219   2.567  17.968  0.00  0.00    +0.000 OA
ATOM     23  H   UNL     1       1.073   1.903  18.662  0.00  0.00    +0.000 HD
ENDBRANCH  21  22
BRANCH  21  24
ATOM     24  C   UNL     1       3.430   1.608  18.492  0.00  0.00    +0.000 C 
BRANCH  24  26
ATOM     25  C   UNL     1       4.318   2.194  20.597  0.00  0.00    +0.000 C 
ATOM     26  O   UNL     1       4.339   2.455  19.199  0.00  0.00    +0.000 OA
ENDBRANCH  24  26
ENDBRANCH  21  24
ENDBRANCH  20  21
ENDBRANCH  16  20
ENDBRANCH   1  17
BRANCH  12  27
ATOM     27  C   UNL     1      -2.693  12.842  20.457  0.00  0.00    +0.000 C 
BRANCH  27  28
ATOM     28  C   UNL     1      -3.821  12.395  19.558  0.00  0.00    +0.000 A 
ATOM     29  C   UNL     1      -3.554  11.699  18.373  0.00  0.00    +0.000 A 
ATOM     30  C   UNL     1      -4.601  11.315  17.536  0.00  0.00    +0.000 A 
ATOM     31  F   UNL     1      -4.325  10.647  16.407  0.00  0.00    +0.000 F 
ATOM     32  C   UNL     1      -5.920  11.609  17.851  0.00  0.00    +0.000 A 
ATOM     33  C   UNL     1      -6.190  12.298  19.027  0.00  0.00    +0.000 A 
ATOM     34 CL   UNL     1      -7.821  12.668  19.442  0.00  0.00    +0.000 Cl
ATOM     35  C   UNL     1      -5.157  12.693  19.879  0.00  0.00    +0.000 A 
ENDBRANCH  27  28
ENDBRANCH  12  27
TORSDOF 8
ENDMDL
MODEL 6
REMARK VINA RESULT:      -7.7      2.699      3.825
REMARK  Name = 
REMARK  9 active torsions:
REMARK  status: ('A' for Active; 'I' for Inactive)
REMARK    1  A    between atoms: C_1  and  O_2
REMARK    2  A    between atoms: O_2  and  C_3
REMARK    3  A    between atoms: C_3  and  C_4
REMARK    4  A    between atoms: C_4  and  O_5
REMARK    5  A    between atoms: C_4  and  C_6
REMARK    6  A    between atoms: C_6  and  N_7
REMARK    7  A    between atoms: C_8  and  C_10
REMARK    8  A    between atoms: C_21  and  C_22
REMARK    9  A    between atoms: C_22  and  C_23
REMARK                            x       y       z     vdW  Elec       q    Type
REMARK                         _______ _______ _______ _____ _____    ______ ____
ROOT
ATOM      1  C   UNL     1       3.691   5.074  18.940  0.00  0.00    +0.000 A 
ATOM      2  C   UNL     1       2.874   4.676  20.009  0.00  0.00    +0.000 A 
ATOM      3  C   UNL     1       1.923   5.558  20.545  0.00  0.00    +0.000 A 
ATOM      4  C   UNL     1       1.755   6.838  20.006  0.00  0.00    +0.000 A 
ATOM      5  C   UNL     1       2.526   7.224  18.922  0.00  0.00    +0.000 A 
ATOM      6  C   UNL     1       3.502   6.353  18.416  0.00  0.00    +0.000 A 
ATOM      7  C   UNL     1       4.215   7.020  17.283  0.00  0.00    +0.000 C 
ATOM      8  C   UNL     1       3.728   8.474  17.412  0.00  0.00    +0.000 C 
ATOM      9  N   UNL     1       2.504   8.447  18.222  0.00  0.00    +0.000 N 
ATOM     10  C   UNL     1       1.798   9.635  18.402  0.00  0.00    +0.000 A 
ATOM     11  C   UNL     1       0.442   9.613  18.732  0.00  0.00    +0.000 A 
ATOM     12  C   UNL     1      -0.279  10.806  18.878  0.00  0.00    +0.000 A 
ATOM     13  C   UNL     1       0.402  12.008  18.706  0.00  0.00    +0.000 A 
ATOM     14  C   UNL     1       1.741  11.958  18.372  0.00  0.00    +0.000 A 
ATOM     15  N   UNL     1       2.434  10.811  18.197  0.00  0.00    +0.000 NA
ENDROOT
BRANCH   1  17
ATOM     16  N   UNL     1       4.836   4.168  16.983  0.00  0.00    +0.000 N 
ATOM     17  C   UNL     1       4.725   4.170  18.358  0.00  0.00    +0.000 C 
ATOM     18  O   UNL     1       5.411   3.454  19.077  0.00  0.00    +0.000 OA
ATOM     19  H   UNL     1       4.325   4.833  16.426  0.00  0.00    +0.000 HD
BRANCH  16  20
ATOM     20  C   UNL     1       5.867   3.399  16.314  0.00  0.00    +0.000 C 
BRANCH  20  21
ATOM     21  C   UNL     1       6.948   4.291  15.684  0.00  0.00    +0.000 C 
BRANCH  21  22
ATOM     22  O   UNL     1       7.333   5.277  16.664  0.00  0.00    +0.000 OA
ATOM     23  H   UNL     1       6.577   5.419  17.256  0.00  0.00    +0.000 HD
ENDBRANCH  21  22
BRANCH  21  24
ATOM     24  C   UNL     1       6.391   4.947  14.409  0.00  0.00    +0.000 C 
BRANCH  24  26
ATOM     25  C   UNL     1       5.978   3.509  12.585  0.00  0.00    +0.000 C 
ATOM     26  O   UNL     1       5.445   4.083  13.774  0.00  0.00    +0.000 OA
ENDBRANCH  24  26
ENDBRANCH  21  24
ENDBRANCH  20  21
ENDBRANCH  16  20
ENDBRANCH   1  17
BRANCH  12  27
ATOM     27  C   UNL     1      -1.749  10.782  19.215  0.00  0.00    +0.000 C 
BRANCH  27  28
ATOM     28  C   UNL     1      -2.647  10.884  18.005  0.00  0.00    +0.000 A 
ATOM     29  C   UNL     1      -2.263  10.319  16.783  0.00  0.00    +0.000 A 
ATOM     30  C   UNL     1      -3.087  10.443  15.665  0.00  0.00    +0.000 A 
ATOM     31  F   UNL     1      -2.704   9.892  14.505  0.00  0.00    +0.000 F 
ATOM     32  C   UNL     1      -4.295  11.123  15.733  0.00  0.00    +0.000 A 
ATOM     33  C   UNL     1      -4.681  11.684  16.944  0.00  0.00    +0.000 A 
ATOM     34 CL   UNL     1      -6.180  12.527  17.052  0.00  0.00    +0.000 Cl
ATOM     35  C   UNL     1      -3.871  11.573  18.075  0.00  0.00    +0.000 A 
ENDBRANCH  27  28
ENDBRANCH  12  27
TORSDOF 8
ENDMDL
MODEL 7
REMARK VINA RESULT:      -7.7      2.124      3.103
REMARK  Name = 
REMARK  9 active torsions:
REMARK  status: ('A' for Active; 'I' for Inactive)
REMARK    1  A    between atoms: C_1  and  O_2
REMARK    2  A    between atoms: O_2  and  C_3
REMARK    3  A    between atoms: C_3  and  C_4
REMARK    4  A    between atoms: C_4  and  O_5
REMARK    5  A    between atoms: C_4  and  C_6
REMARK    6  A    between atoms: C_6  and  N_7
REMARK    7  A    between atoms: C_8  and  C_10
REMARK    8  A    between atoms: C_21  and  C_22
REMARK    9  A    between atoms: C_22  and  C_23
REMARK                            x       y       z     vdW  Elec       q    Type
REMARK                         _______ _______ _______ _____ _____    ______ ____
ROOT
ATOM      1  C   UNL     1       2.442   6.604  19.536  0.00  0.00    +0.000 A 
ATOM      2  C   UNL     1       1.879   6.332  20.792  0.00  0.00    +0.000 A 
ATOM      3  C   UNL     1       1.090   7.295  21.442  0.00  0.00    +0.000 A 
ATOM      4  C   UNL     1       0.831   8.529  20.837  0.00  0.00    +0.000 A 
ATOM      5  C   UNL     1       1.345   8.789  19.578  0.00  0.00    +0.000 A 
ATOM      6  C   UNL     1       2.165   7.839  18.951  0.00  0.00    +0.000 A 
ATOM      7  C   UNL     1       2.618   8.377  17.631  0.00  0.00    +0.000 C 
ATOM      8  C   UNL     1       2.201   9.856  17.729  0.00  0.00    +0.000 C 
ATOM      9  N   UNL     1       1.191   9.948  18.790  0.00  0.00    +0.000 N 
ATOM     10  C   UNL     1       0.567  11.173  19.012  0.00  0.00    +0.000 A 
ATOM     11  C   UNL     1      -0.680  11.235  19.636  0.00  0.00    +0.000 A 
ATOM     12  C   UNL     1      -1.326  12.463  19.827  0.00  0.00    +0.000 A 
ATOM     13  C   UNL     1      -0.678  13.618  19.397  0.00  0.00    +0.000 A 
ATOM     14  C   UNL     1       0.551  13.486  18.780  0.00  0.00    +0.000 A 
ATOM     15  N   UNL     1       1.164  12.302  18.562  0.00  0.00    +0.000 NA
ENDROOT
BRANCH   1  17
ATOM     16  N   UNL     1       4.652   5.665  19.093  0.00  0.00    +0.000 N 
ATOM     17  C   UNL     1       3.300   5.612  18.825  0.00  0.00    +0.000 C 
ATOM     18  O   UNL     1       2.815   4.818  18.028  0.00  0.00    +0.000 OA
ATOM     19  H   UNL     1       5.009   6.263  19.819  0.00  0.00    +0.000 HD
BRANCH  16  20
ATOM     20  C   UNL     1       5.567   4.690  18.529  0.00  0.00    +0.000 C 
BRANCH  20  21
ATOM     21  C   UNL     1       6.887   5.326  18.067  0.00  0.00    +0.000 C 
BRANCH  21  22
ATOM     22  O   UNL     1       6.633   6.719  17.789  0.00  0.00    +0.000 OA
ATOM     23  H   UNL     1       5.988   6.764  17.064  0.00  0.00    +0.000 HD
ENDBRANCH  21  22
BRANCH  21  24
ATOM     24  C   UNL     1       7.404   4.586  16.822  0.00  0.00    +0.000 C 
BRANCH  24  26
ATOM     25  C   UNL     1       6.924   4.851  14.527  0.00  0.00    +0.000 C 
ATOM     26  O   UNL     1       7.449   5.469  15.697  0.00  0.00    +0.000 OA
ENDBRANCH  24  26
ENDBRANCH  21  24
ENDBRANCH  20  21
ENDBRANCH  16  20
ENDBRANCH   1  17
BRANCH  12  27
ATOM     27  C   UNL     1      -2.682  12.528  20.483  0.00  0.00    +0.000 C 
BRANCH  27  28
ATOM     28  C   UNL     1      -3.828  12.307  19.523  0.00  0.00    +0.000 A 
ATOM     29  C   UNL     1      -3.611  11.692  18.285  0.00  0.00    +0.000 A 
ATOM     30  C   UNL     1      -4.670  11.519  17.395  0.00  0.00    +0.000 A 
ATOM     31  F   UNL     1      -4.443  10.925  16.215  0.00  0.00    +0.000 F 
ATOM     32  C   UNL     1      -5.952  11.946  17.710  0.00  0.00    +0.000 A 
ATOM     33  C   UNL     1      -6.173  12.555  18.939  0.00  0.00    +0.000 A 
ATOM     34 CL   UNL     1      -7.759  13.087  19.353  0.00  0.00    +0.000 Cl
ATOM     35  C   UNL     1      -5.126  12.740  19.844  0.00  0.00    +0.000 A 
ENDBRANCH  27  28
ENDBRANCH  12  27
TORSDOF 8
ENDMDL
MODEL 8
REMARK VINA RESULT:      -7.7      5.387     10.053
REMARK  Name = 
REMARK  9 active torsions:
REMARK  status: ('A' for Active; 'I' for Inactive)
REMARK    1  A    between atoms: C_1  and  O_2
REMARK    2  A    between atoms: O_2  and  C_3
REMARK    3  A    between atoms: C_3  and  C_4
REMARK    4  A    between atoms: C_4  and  O_5
REMARK    5  A    between atoms: C_4  and  C_6
REMARK    6  A    between atoms: C_6  and  N_7
REMARK    7  A    between atoms: C_8  and  C_10
REMARK    8  A    between atoms: C_21  and  C_22
REMARK    9  A    between atoms: C_22  and  C_23
REMARK                            x       y       z     vdW  Elec       q    Type
REMARK                         _______ _______ _______ _____ _____    ______ ____
ROOT
ATOM      1  C   UNL     1       0.642  10.798  19.547  0.00  0.00    +0.000 A 
ATOM      2  C   UNL     1       1.436  11.135  18.440  0.00  0.00    +0.000 A 
ATOM      3  C   UNL     1       2.295  10.186  17.865  0.00  0.00    +0.000 A 
ATOM      4  C   UNL     1       2.356   8.883  18.369  0.00  0.00    +0.000 A 
ATOM      5  C   UNL     1       1.544   8.528  19.433  0.00  0.00    +0.000 A 
ATOM      6  C   UNL     1       0.716   9.491  20.028  0.00  0.00    +0.000 A 
ATOM      7  C   UNL     1      -0.021   8.867  21.170  0.00  0.00    +0.000 C 
ATOM      8  C   UNL     1       0.718   7.525  21.330  0.00  0.00    +0.000 C 
ATOM      9  N   UNL     1       1.435   7.277  20.074  0.00  0.00    +0.000 N 
ATOM     10  C   UNL     1       2.105   6.066  19.917  0.00  0.00    +0.000 A 
ATOM     11  C   UNL     1       2.390   5.570  18.644  0.00  0.00    +0.000 A 
ATOM     12  C   UNL     1       3.031   4.334  18.483  0.00  0.00    +0.000 A 
ATOM     13  C   UNL     1       3.392   3.630  19.628  0.00  0.00    +0.000 A 
ATOM     14  C   UNL     1       3.072   4.173  20.857  0.00  0.00    +0.000 A 
ATOM     15  N   UNL     1       2.425   5.348  21.019  0.00  0.00    +0.000 NA
ENDROOT
BRANCH   1  17
ATOM     16  N   UNL     1       0.197  12.391  21.343  0.00  0.00    +0.000 N 
ATOM     17  C   UNL     1      -0.269  11.786  20.195  0.00  0.00    +0.000 C 
ATOM     18  O   UNL     1      -1.380  12.014  19.732  0.00  0.00    +0.000 OA
ATOM     19  H   UNL     1       1.147  12.254  21.647  0.00  0.00    +0.000 HD
BRANCH  16  20
ATOM     20  C   UNL     1      -0.564  13.434  22.004  0.00  0.00    +0.000 C 
BRANCH  20  21
ATOM     21  C   UNL     1      -1.333  12.911  23.227  0.00  0.00    +0.000 C 
BRANCH  21  22
ATOM     22  O   UNL     1      -1.014  11.514  23.386  0.00  0.00    +0.000 OA
ATOM     23  H   UNL     1      -0.757  11.372  24.312  0.00  0.00    +0.000 HD
ENDBRANCH  21  22
BRANCH  21  24
ATOM     24  C   UNL     1      -2.841  13.127  23.015  0.00  0.00    +0.000 C 
BRANCH  24  26
ATOM     25  C   UNL     1      -4.434  12.456  24.620  0.00  0.00    +0.000 C 
ATOM     26  O   UNL     1      -3.585  12.033  23.559  0.00  0.00    +0.000 OA
ENDBRANCH  24  26
ENDBRANCH  21  24
ENDBRANCH  20  21
ENDBRANCH  16  20
ENDBRANCH   1  17
BRANCH  12  27
ATOM     27  C   UNL     1       3.322   3.790  17.107  0.00  0.00    +0.000 C 
BRANCH  27  28
ATOM     28  C   UNL     1       4.626   4.282  16.527  0.00  0.00    +0.000 A 
ATOM     29  C   UNL     1       5.107   3.768  15.317  0.00  0.00    +0.000 A 
ATOM     30  C   UNL     1       6.326   4.210  14.804  0.00  0.00    +0.000 A 
ATOM     31  F   UNL     1       6.768   3.708  13.642  0.00  0.00    +0.000 F 
ATOM     32  C   UNL     1       7.086   5.160  15.471  0.00  0.00    +0.000 A 
ATOM     33  C   UNL     1       6.612   5.674  16.672  0.00  0.00    +0.000 A 
ATOM     34 CL   UNL     1       7.537   6.860  17.515  0.00  0.00    +0.000 Cl
ATOM     35  C   UNL     1       5.395   5.245  17.204  0.00  0.00    +0.000 A 
ENDBRANCH  27  28
ENDBRANCH  12  27
TORSDOF 8
ENDMDL
MODEL 9
REMARK VINA RESULT:      -7.5      4.117      5.710
REMARK  Name = 
REMARK  9 active torsions:
REMARK  status: ('A' for Active; 'I' for Inactive)
REMARK    1  A    between atoms: C_1  and  O_2
REMARK    2  A    between atoms: O_2  and  C_3
REMARK    3  A    between atoms: C_3  and  C_4
REMARK    4  A    between atoms: C_4  and  O_5
REMARK    5  A    between atoms: C_4  and  C_6
REMARK    6  A    between atoms: C_6  and  N_7
REMARK    7  A    between atoms: C_8  and  C_10
REMARK    8  A    between atoms: C_21  and  C_22
REMARK    9  A    between atoms: C_22  and  C_23
REMARK                            x       y       z     vdW  Elec       q    Type
REMARK                         _______ _______ _______ _____ _____    ______ ____
ROOT
ATOM      1  C   UNL     1       2.049   7.857  18.844  0.00  0.00    +0.000 A 
ATOM      2  C   UNL     1       2.286   8.684  17.737  0.00  0.00    +0.000 A 
ATOM      3  C   UNL     1       1.890  10.031  17.756  0.00  0.00    +0.000 A 
ATOM      4  C   UNL     1       1.277  10.577  18.888  0.00  0.00    +0.000 A 
ATOM      5  C   UNL     1       1.079   9.780  20.003  0.00  0.00    +0.000 A 
ATOM      6  C   UNL     1       1.441   8.425  19.964  0.00  0.00    +0.000 A 
ATOM      7  C   UNL     1       1.089   7.784  21.269  0.00  0.00    +0.000 C 
ATOM      8  C   UNL     1       0.215   8.866  21.929  0.00  0.00    +0.000 C 
ATOM      9  N   UNL     1       0.504  10.130  21.241  0.00  0.00    +0.000 N 
ATOM     10  C   UNL     1      -0.084  11.299  21.720  0.00  0.00    +0.000 A 
ATOM     11  C   UNL     1       0.482  12.545  21.446  0.00  0.00    +0.000 A 
ATOM     12  C   UNL     1      -0.087  13.719  21.958  0.00  0.00    +0.000 A 
ATOM     13  C   UNL     1      -1.243  13.606  22.726  0.00  0.00    +0.000 A 
ATOM     14  C   UNL     1      -1.746  12.342  22.966  0.00  0.00    +0.000 A 
ATOM     15  N   UNL     1      -1.183  11.204  22.504  0.00  0.00    +0.000 NA
ENDROOT
BRANCH   1  17
ATOM     16  N   UNL     1       3.397   6.045  19.772  0.00  0.00    +0.000 N 
ATOM     17  C   UNL     1       2.440   6.417  18.852  0.00  0.00    +0.000 C 
ATOM     18  O   UNL     1       1.945   5.627  18.057  0.00  0.00    +0.000 OA
ATOM     19  H   UNL     1       3.717   6.694  20.472  0.00  0.00    +0.000 HD
BRANCH  16  20
ATOM     20  C   UNL     1       3.786   4.657  19.931  0.00  0.00    +0.000 C 
BRANCH  20  21
ATOM     21  C   UNL     1       4.935   4.259  18.992  0.00  0.00    +0.000 C 
BRANCH  21  22
ATOM     22  O   UNL     1       5.333   2.914  19.325  0.00  0.00    +0.000 OA
ATOM     23  H   UNL     1       4.852   2.652  20.128  0.00  0.00    +0.000 HD
ENDBRANCH  21  22
BRANCH  21  24
ATOM     24  C   UNL     1       6.099   5.252  19.156  0.00  0.00    +0.000 C 
BRANCH  24  26
ATOM     25  C   UNL     1       7.483   4.668  17.338  0.00  0.00    +0.000 C 
ATOM     26  O   UNL     1       7.331   4.649  18.752  0.00  0.00    +0.000 OA
ENDBRANCH  24  26
ENDBRANCH  21  24
ENDBRANCH  20  21
ENDBRANCH  16  20
ENDBRANCH   1  17
BRANCH  12  27
ATOM     27  C   UNL     1       0.536  15.063  21.678  0.00  0.00    +0.000 C 
BRANCH  27  28
ATOM     28  C   UNL     1       1.888  14.975  21.011  0.00  0.00    +0.000 A 
ATOM     29  C   UNL     1       3.031  14.661  21.756  0.00  0.00    +0.000 A 
ATOM     30  C   UNL     1       4.278  14.609  21.135  0.00  0.00    +0.000 A 
ATOM     31  F   UNL     1       5.360  14.304  21.865  0.00  0.00    +0.000 F 
ATOM     32  C   UNL     1       4.419  14.865  19.779  0.00  0.00    +0.000 A 
ATOM     33  C   UNL     1       3.287  15.175  19.034  0.00  0.00    +0.000 A 
ATOM     34 CL   UNL     1       3.437  15.489  17.347  0.00  0.00    +0.000 Cl
ATOM     35  C   UNL     1       2.028  15.233  19.636  0.00  0.00    +0.000 A 
ENDBRANCH  27  28
ENDBRANCH  12  27
TORSDOF 8
ENDMDL
