MODEL 1
REMARK VINA RESULT:      -8.4      0.000      0.000
REMARK  Name = 
REMARK  3 active torsions:
REMARK  status: ('A' for Active; 'I' for Inactive)
REMARK    1  A    between atoms: N_11  and  C_12
REMARK    2  A    between atoms: C_12  and  C_13
REMARK    3  A    between atoms: N_15  and  C_16
REMARK                            x       y       z     vdW  Elec       q    Type
REMARK                         _______ _______ _______ _____ _____    ______ ____
ROOT
ATOM      1  C   UNL     1       5.170   3.864  17.009  0.00  0.00    +0.000 C 
ENDROOT
BRANCH   1  12
ATOM      2  O   UNL     1       7.290   5.811  17.595  0.00  0.00    +0.000 OA
ATOM      3  C   UNL     1       7.059   5.412  16.461  0.00  0.00    +0.000 A 
ATOM      4  O   UNL     1       7.817   5.798  15.345  0.00  0.00    +0.000 OA
ATOM      5  C   UNL     1       7.226   5.079  14.317  0.00  0.00    +0.000 A 
ATOM      6  C   UNL     1       7.635   5.081  12.999  0.00  0.00    +0.000 A 
ATOM      7  C   UNL     1       6.921   4.274  12.107  0.00  0.00    +0.000 A 
ATOM      8  C   UNL     1       5.832   3.500  12.554  0.00  0.00    +0.000 A 
ATOM      9 CL   UNL     1       4.982   2.512  11.429  0.00  0.00    +0.000 Cl
ATOM     10  C   UNL     1       5.435   3.511  13.893  0.00  0.00    +0.000 A 
ATOM     11  C   UNL     1       6.161   4.312  14.747  0.00  0.00    +0.000 A 
ATOM     12  N   UNL     1       6.066   4.527  16.102  0.00  0.00    +0.000 N 
ENDBRANCH   1  12
BRANCH   1  13
ATOM     13  C   UNL     1       4.014   4.727  17.361  0.00  0.00    +0.000 A 
ATOM     14  C   UNL     1       3.994   6.064  17.687  0.00  0.00    +0.000 A 
ATOM     15  N   UNL     1       2.702   6.328  18.081  0.00  0.00    +0.000 N 
ATOM     16  N   UNL     1       1.962   5.196  17.930  0.00  0.00    +0.000 NA
ATOM     17  N   UNL     1       2.752   4.221  17.496  0.00  0.00    +0.000 NA
BRANCH  15  18
ATOM     18  C   UNL     1       2.142   7.518  18.607  0.00  0.00    +0.000 A 
ATOM     19  C   UNL     1       1.924   8.621  17.764  0.00  0.00    +0.000 A 
ATOM     20  C   UNL     1       1.364   9.799  18.272  0.00  0.00    +0.000 A 
ATOM     21  C   UNL     1       1.022   9.890  19.620  0.00  0.00    +0.000 A 
ATOM     22  C   UNL     1       1.229   8.799  20.459  0.00  0.00    +0.000 A 
ATOM     23  C   UNL     1       1.783   7.622  19.953  0.00  0.00    +0.000 A 
ATOM     24  F   UNL     1       1.953   6.611  20.815  0.00  0.00    +0.000 F 
ENDBRANCH  15  18
ENDBRANCH   1  13
TORSDOF 3
ENDMDL
MODEL 2
REMARK VINA RESULT:      -8.2      0.941      1.370
REMARK  Name = 
REMARK  3 active torsions:
REMARK  status: ('A' for Active; 'I' for Inactive)
REMARK    1  A    between atoms: N_11  and  C_12
REMARK    2  A    between atoms: C_12  and  C_13
REMARK    3  A    between atoms: N_15  and  C_16
REMARK                            x       y       z     vdW  Elec       q    Type
REMARK                         _______ _______ _______ _____ _____    ______ ____
ROOT
ATOM      1  C   UNL     1       5.197   3.753  16.985  0.00  0.00    +0.000 C 
ENDROOT
BRANCH   1  12
ATOM      2  O   UNL     1       7.206   5.815  17.573  0.00  0.00    +0.000 OA
ATOM      3  C   UNL     1       6.995   5.408  16.439  0.00  0.00    +0.000 A 
ATOM      4  O   UNL     1       7.728   5.839  15.323  0.00  0.00    +0.000 OA
ATOM      5  C   UNL     1       7.176   5.090  14.293  0.00  0.00    +0.000 A 
ATOM      6  C   UNL     1       7.581   5.120  12.975  0.00  0.00    +0.000 A 
ATOM      7  C   UNL     1       6.912   4.277  12.081  0.00  0.00    +0.000 A 
ATOM      8  C   UNL     1       5.870   3.442  12.528  0.00  0.00    +0.000 A 
ATOM      9 CL   UNL     1       5.074   2.410  11.402  0.00  0.00    +0.000 Cl
ATOM     10  C   UNL     1       5.476   3.425  13.867  0.00  0.00    +0.000 A 
ATOM     11  C   UNL     1       6.156   4.263  14.723  0.00  0.00    +0.000 A 
ATOM     12  N   UNL     1       6.053   4.469  16.078  0.00  0.00    +0.000 N 
ENDBRANCH   1  12
BRANCH   1  13
ATOM     13  C   UNL     1       4.041   4.581  17.411  0.00  0.00    +0.000 A 
ATOM     14  C   UNL     1       4.031   5.834  17.982  0.00  0.00    +0.000 A 
ATOM     15  N   UNL     1       2.720   6.072  18.325  0.00  0.00    +0.000 N 
ATOM     16  N   UNL     1       1.964   5.018  17.911  0.00  0.00    +0.000 NA
ATOM     17  N   UNL     1       2.759   4.111  17.358  0.00  0.00    +0.000 NA
BRANCH  15  18
ATOM     18  C   UNL     1       2.152   7.164  19.025  0.00  0.00    +0.000 A 
ATOM     19  C   UNL     1       1.804   7.022  20.380  0.00  0.00    +0.000 A 
ATOM     20  C   UNL     1       1.250   8.097  21.085  0.00  0.00    +0.000 A 
ATOM     21  C   UNL     1       1.032   9.317  20.447  0.00  0.00    +0.000 A 
ATOM     22  C   UNL     1       1.380   9.467  19.106  0.00  0.00    +0.000 A 
ATOM     23  C   UNL     1       1.938   8.397  18.405  0.00  0.00    +0.000 A 
ATOM     24  F   UNL     1       2.250   8.611  17.120  0.00  0.00    +0.000 F 
ENDBRANCH  15  18
ENDBRANCH   1  13
TORSDOF 3
ENDMDL
MODEL 3
REMARK VINA RESULT:      -8.2      1.624      2.190
REMARK  Name = 
REMARK  3 active torsions:
REMARK  status: ('A' for Active; 'I' for Inactive)
REMARK    1  A    between atoms: N_11  and  C_12
REMARK    2  A    between atoms: C_12  and  C_13
REMARK    3  A    between atoms: N_15  and  C_16
REMARK                            x       y       z     vdW  Elec       q    Type
REMARK                         _______ _______ _______ _____ _____    ______ ____
ROOT
ATOM      1  C   UNL     1       4.726   3.875  18.802  0.00  0.00    +0.000 C 
ENDROOT
BRANCH   1  12
ATOM      2  O   UNL     1       7.026   5.358  19.870  0.00  0.00    +0.000 OA
ATOM      3  C   UNL     1       6.845   5.201  18.670  0.00  0.00    +0.000 A 
ATOM      4  O   UNL     1       7.744   5.658  17.694  0.00  0.00    +0.000 OA
ATOM      5  C   UNL     1       7.156   5.222  16.515  0.00  0.00    +0.000 A 
ATOM      6  C   UNL     1       7.677   5.391  15.249  0.00  0.00    +0.000 A 
ATOM      7  C   UNL     1       6.944   4.866  14.180  0.00  0.00    +0.000 A 
ATOM      8  C   UNL     1       5.726   4.194  14.408  0.00  0.00    +0.000 A 
ATOM      9 CL   UNL     1       4.855   3.551  13.069  0.00  0.00    +0.000 Cl
ATOM     10  C   UNL     1       5.217   4.031  15.698  0.00  0.00    +0.000 A 
ATOM     11  C   UNL     1       5.964   4.557  16.729  0.00  0.00    +0.000 A 
ATOM     12  N   UNL     1       5.779   4.546  18.091  0.00  0.00    +0.000 N 
ENDBRANCH   1  12
BRANCH   1  13
ATOM     13  C   UNL     1       3.623   4.808  19.150  0.00  0.00    +0.000 A 
ATOM     14  C   UNL     1       3.502   6.152  18.878  0.00  0.00    +0.000 A 
ATOM     15  N   UNL     1       2.378   6.564  19.556  0.00  0.00    +0.000 N 
ATOM     16  N   UNL     1       1.813   5.483  20.160  0.00  0.00    +0.000 NA
ATOM     17  N   UNL     1       2.564   4.416  19.920  0.00  0.00    +0.000 NA
BRANCH  15  18
ATOM     18  C   UNL     1       1.838   7.865  19.704  0.00  0.00    +0.000 A 
ATOM     19  C   UNL     1       1.394   8.300  20.965  0.00  0.00    +0.000 A 
ATOM     20  C   UNL     1       0.866   9.586  21.125  0.00  0.00    +0.000 A 
ATOM     21  C   UNL     1       0.770  10.446  20.032  0.00  0.00    +0.000 A 
ATOM     22  C   UNL     1       1.213  10.024  18.781  0.00  0.00    +0.000 A 
ATOM     23  C   UNL     1       1.745   8.744  18.622  0.00  0.00    +0.000 A 
ATOM     24  F   UNL     1       2.153   8.405  17.392  0.00  0.00    +0.000 F 
ENDBRANCH  15  18
ENDBRANCH   1  13
TORSDOF 3
ENDMDL
MODEL 4
REMARK VINA RESULT:      -8.1      0.982      1.014
REMARK  Name = 
REMARK  3 active torsions:
REMARK  status: ('A' for Active; 'I' for Inactive)
REMARK    1  A    between atoms: N_11  and  C_12
REMARK    2  A    between atoms: C_12  and  C_13
REMARK    3  A    between atoms: N_15  and  C_16
REMARK                            x       y       z     vdW  Elec       q    Type
REMARK                         _______ _______ _______ _____ _____    ______ ____
ROOT
ATOM      1  C   UNL     1       4.629   3.508  17.438  0.00  0.00    +0.000 C 
ENDROOT
BRANCH   1  12
ATOM      2  O   UNL     1       7.086   4.757  18.453  0.00  0.00    +0.000 OA
ATOM      3  C   UNL     1       6.852   4.644  17.257  0.00  0.00    +0.000 A 
ATOM      4  O   UNL     1       7.755   5.043  16.259  0.00  0.00    +0.000 OA
ATOM      5  C   UNL     1       7.091   4.688  15.094  0.00  0.00    +0.000 A 
ATOM      6  C   UNL     1       7.582   4.841  13.814  0.00  0.00    +0.000 A 
ATOM      7  C   UNL     1       6.770   4.407  12.761  0.00  0.00    +0.000 A 
ATOM      8  C   UNL     1       5.506   3.841  13.018  0.00  0.00    +0.000 A 
ATOM      9 CL   UNL     1       4.537   3.308  11.698  0.00  0.00    +0.000 Cl
ATOM     10  C   UNL     1       5.028   3.693  14.322  0.00  0.00    +0.000 A 
ATOM     11  C   UNL     1       5.852   4.126  15.336  0.00  0.00    +0.000 A 
ATOM     12  N   UNL     1       5.713   4.100  16.704  0.00  0.00    +0.000 N 
ENDBRANCH   1  12
BRANCH   1  13
ATOM     13  C   UNL     1       3.855   4.531  18.185  0.00  0.00    +0.000 A 
ATOM     14  C   UNL     1       3.272   5.690  17.725  0.00  0.00    +0.000 A 
ATOM     15  N   UNL     1       2.824   6.348  18.847  0.00  0.00    +0.000 N 
ATOM     16  N   UNL     1       3.075   5.571  19.936  0.00  0.00    +0.000 NA
ATOM     17  N   UNL     1       3.701   4.469  19.542  0.00  0.00    +0.000 NA
BRANCH  15  18
ATOM     18  C   UNL     1       2.231   7.629  18.969  0.00  0.00    +0.000 A 
ATOM     19  C   UNL     1       2.297   8.535  17.896  0.00  0.00    +0.000 A 
ATOM     20  C   UNL     1       1.708   9.800  18.002  0.00  0.00    +0.000 A 
ATOM     21  C   UNL     1       1.056  10.175  19.175  0.00  0.00    +0.000 A 
ATOM     22  C   UNL     1       0.982   9.280  20.240  0.00  0.00    +0.000 A 
ATOM     23  C   UNL     1       1.564   8.016  20.133  0.00  0.00    +0.000 A 
ATOM     24  F   UNL     1       1.454   7.206  21.194  0.00  0.00    +0.000 F 
ENDBRANCH  15  18
ENDBRANCH   1  13
TORSDOF 3
ENDMDL
MODEL 5
REMARK VINA RESULT:      -8.0      1.374      1.729
REMARK  Name = 
REMARK  3 active torsions:
REMARK  status: ('A' for Active; 'I' for Inactive)
REMARK    1  A    between atoms: N_11  and  C_12
REMARK    2  A    between atoms: C_12  and  C_13
REMARK    3  A    between atoms: N_15  and  C_16
REMARK                            x       y       z     vdW  Elec       q    Type
REMARK                         _______ _______ _______ _____ _____    ______ ____
ROOT
ATOM      1  C   UNL     1       4.478   3.843  18.503  0.00  0.00    +0.000 C 
ENDROOT
BRANCH   1  12
ATOM      2  O   UNL     1       6.837   5.120  19.700  0.00  0.00    +0.000 OA
ATOM      3  C   UNL     1       6.702   4.992  18.491  0.00  0.00    +0.000 A 
ATOM      4  O   UNL     1       7.681   5.385  17.566  0.00  0.00    +0.000 OA
ATOM      5  C   UNL     1       7.117   5.014  16.354  0.00  0.00    +0.000 A 
ATOM      6  C   UNL     1       7.709   5.155  15.117  0.00  0.00    +0.000 A 
ATOM      7  C   UNL     1       6.988   4.704  14.006  0.00  0.00    +0.000 A 
ATOM      8  C   UNL     1       5.710   4.132  14.166  0.00  0.00    +0.000 A 
ATOM      9 CL   UNL     1       4.855   3.579  12.778  0.00  0.00    +0.000 Cl
ATOM     10  C   UNL     1       5.128   3.996  15.428  0.00  0.00    +0.000 A 
ATOM     11  C   UNL     1       5.865   4.446  16.502  0.00  0.00    +0.000 A 
ATOM     12  N   UNL     1       5.615   4.434  17.853  0.00  0.00    +0.000 N 
ENDBRANCH   1  12
BRANCH   1  13
ATOM     13  C   UNL     1       3.511   4.876  18.954  0.00  0.00    +0.000 A 
ATOM     14  C   UNL     1       3.212   6.094  18.387  0.00  0.00    +0.000 A 
ATOM     15  N   UNL     1       2.376   6.721  19.282  0.00  0.00    +0.000 N 
ATOM     16  N   UNL     1       2.134   5.873  20.319  0.00  0.00    +0.000 NA
ATOM     17  N   UNL     1       2.820   4.753  20.126  0.00  0.00    +0.000 NA
BRANCH  15  18
ATOM     18  C   UNL     1       1.838   8.031  19.253  0.00  0.00    +0.000 A 
ATOM     19  C   UNL     1       1.822   8.754  18.047  0.00  0.00    +0.000 A 
ATOM     20  C   UNL     1       1.285  10.046  18.004  0.00  0.00    +0.000 A 
ATOM     21  C   UNL     1       0.767  10.630  19.159  0.00  0.00    +0.000 A 
ATOM     22  C   UNL     1       0.774   9.917  20.356  0.00  0.00    +0.000 A 
ATOM     23  C   UNL     1       1.304   8.627  20.398  0.00  0.00    +0.000 A 
ATOM     24  F   UNL     1       1.278   7.999  21.581  0.00  0.00    +0.000 F 
ENDBRANCH  15  18
ENDBRANCH   1  13
TORSDOF 3
ENDMDL
MODEL 6
REMARK VINA RESULT:      -7.9      3.493      7.119
REMARK  Name = 
REMARK  3 active torsions:
REMARK  status: ('A' for Active; 'I' for Inactive)
REMARK    1  A    between atoms: N_11  and  C_12
REMARK    2  A    between atoms: C_12  and  C_13
REMARK    3  A    between atoms: N_15  and  C_16
REMARK                            x       y       z     vdW  Elec       q    Type
REMARK                         _______ _______ _______ _____ _____    ______ ____
ROOT
ATOM      1  C   UNL     1       5.552   6.251  18.360  0.00  0.00    +0.000 C 
ENDROOT
BRANCH   1  12
ATOM      2  O   UNL     1       3.281   8.084  18.025  0.00  0.00    +0.000 OA
ATOM      3  C   UNL     1       3.137   6.876  18.158  0.00  0.00    +0.000 A 
ATOM      4  O   UNL     1       1.885   6.244  18.104  0.00  0.00    +0.000 OA
ATOM      5  C   UNL     1       2.216   4.906  18.257  0.00  0.00    +0.000 A 
ATOM      6  C   UNL     1       1.326   3.852  18.238  0.00  0.00    +0.000 A 
ATOM      7  C   UNL     1       1.853   2.566  18.394  0.00  0.00    +0.000 A 
ATOM      8  C   UNL     1       3.239   2.376  18.563  0.00  0.00    +0.000 A 
ATOM      9 CL   UNL     1       3.854   0.777  18.742  0.00  0.00    +0.000 Cl
ATOM     10  C   UNL     1       4.124   3.455  18.577  0.00  0.00    +0.000 A 
ATOM     11  C   UNL     1       3.574   4.709  18.418  0.00  0.00    +0.000 A 
ATOM     12  N   UNL     1       4.145   5.957  18.350  0.00  0.00    +0.000 N 
ENDBRANCH   1  12
BRANCH   1  13
ATOM     13  C   UNL     1       6.229   5.713  17.153  0.00  0.00    +0.000 A 
ATOM     14  C   UNL     1       5.774   5.648  15.856  0.00  0.00    +0.000 A 
ATOM     15  N   UNL     1       6.718   4.918  15.171  0.00  0.00    +0.000 N 
ATOM     16  N   UNL     1       7.735   4.614  16.022  0.00  0.00    +0.000 NA
ATOM     17  N   UNL     1       7.444   5.091  17.226  0.00  0.00    +0.000 NA
BRANCH  15  18
ATOM     18  C   UNL     1       6.713   4.468  13.828  0.00  0.00    +0.000 A 
ATOM     19  C   UNL     1       5.745   3.540  13.404  0.00  0.00    +0.000 A 
ATOM     20  C   UNL     1       5.726   3.095  12.077  0.00  0.00    +0.000 A 
ATOM     21  C   UNL     1       6.671   3.563  11.165  0.00  0.00    +0.000 A 
ATOM     22  C   UNL     1       7.628   4.486  11.577  0.00  0.00    +0.000 A 
ATOM     23  C   UNL     1       7.645   4.935  12.898  0.00  0.00    +0.000 A 
ATOM     24  F   UNL     1       8.592   5.824  13.225  0.00  0.00    +0.000 F 
ENDBRANCH  15  18
ENDBRANCH   1  13
TORSDOF 3
ENDMDL
MODEL 7
REMARK VINA RESULT:      -7.9      5.113      6.614
REMARK  Name = 
REMARK  3 active torsions:
REMARK  status: ('A' for Active; 'I' for Inactive)
REMARK    1  A    between atoms: N_11  and  C_12
REMARK    2  A    between atoms: C_12  and  C_13
REMARK    3  A    between atoms: N_15  and  C_16
REMARK                            x       y       z     vdW  Elec       q    Type
REMARK                         _______ _______ _______ _____ _____    ______ ____
ROOT
ATOM      1  C   UNL     1       7.548   5.737  18.799  0.00  0.00    +0.000 C 
ENDROOT
BRANCH   1  12
ATOM      2  O   UNL     1       7.908   4.479  16.169  0.00  0.00    +0.000 OA
ATOM      3  C   UNL     1       6.818   4.549  16.720  0.00  0.00    +0.000 A 
ATOM      4  O   UNL     1       5.651   3.986  16.182  0.00  0.00    +0.000 OA
ATOM      5  C   UNL     1       4.703   4.273  17.153  0.00  0.00    +0.000 A 
ATOM      6  C   UNL     1       3.377   3.895  17.115  0.00  0.00    +0.000 A 
ATOM      7  C   UNL     1       2.575   4.264  18.200  0.00  0.00    +0.000 A 
ATOM      8  C   UNL     1       3.118   4.993  19.277  0.00  0.00    +0.000 A 
ATOM      9 CL   UNL     1       2.104   5.422  20.601  0.00  0.00    +0.000 Cl
ATOM     10  C   UNL     1       4.464   5.364  19.297  0.00  0.00    +0.000 A 
ATOM     11  C   UNL     1       5.228   4.983  18.216  0.00  0.00    +0.000 A 
ATOM     12  N   UNL     1       6.563   5.148  17.935  0.00  0.00    +0.000 N 
ENDBRANCH   1  12
BRANCH   1  13
ATOM     13  C   UNL     1       7.871   7.127  18.388  0.00  0.00    +0.000 A 
ATOM     14  C   UNL     1       8.703   8.043  18.993  0.00  0.00    +0.000 A 
ATOM     15  N   UNL     1       8.520   9.219  18.302  0.00  0.00    +0.000 N 
ATOM     16  N   UNL     1       7.655   8.991  17.276  0.00  0.00    +0.000 NA
ATOM     17  N   UNL     1       7.257   7.725  17.324  0.00  0.00    +0.000 NA
BRANCH  15  18
ATOM     18  C   UNL     1       9.053  10.507  18.552  0.00  0.00    +0.000 A 
ATOM     19  C   UNL     1      10.108  10.662  19.469  0.00  0.00    +0.000 A 
ATOM     20  C   UNL     1      10.648  11.929  19.718  0.00  0.00    +0.000 A 
ATOM     21  C   UNL     1      10.140  13.050  19.063  0.00  0.00    +0.000 A 
ATOM     22  C   UNL     1       9.100  12.903  18.149  0.00  0.00    +0.000 A 
ATOM     23  C   UNL     1       8.564  11.639  17.896  0.00  0.00    +0.000 A 
ATOM     24  F   UNL     1       7.567  11.570  17.005  0.00  0.00    +0.000 F 
ENDBRANCH  15  18
ENDBRANCH   1  13
TORSDOF 3
ENDMDL
MODEL 8
REMARK VINA RESULT:      -7.8      5.100      6.555
REMARK  Name = 
REMARK  3 active torsions:
REMARK  status: ('A' for Active; 'I' for Inactive)
REMARK    1  A    between atoms: N_11  and  C_12
REMARK    2  A    between atoms: C_12  and  C_13
REMARK    3  A    between atoms: N_15  and  C_16
REMARK                            x       y       z     vdW  Elec       q    Type
REMARK                         _______ _______ _______ _____ _____    ______ ____
ROOT
ATOM      1  C   UNL     1       7.533   5.723  18.796  0.00  0.00    +0.000 C 
ENDROOT
BRANCH   1  12
ATOM      2  O   UNL     1       7.874   4.525  16.135  0.00  0.00    +0.000 OA
ATOM      3  C   UNL     1       6.784   4.602  16.687  0.00  0.00    +0.000 A 
ATOM      4  O   UNL     1       5.607   4.075  16.133  0.00  0.00    +0.000 OA
ATOM      5  C   UNL     1       4.663   4.354  17.110  0.00  0.00    +0.000 A 
ATOM      6  C   UNL     1       3.331   4.002  17.062  0.00  0.00    +0.000 A 
ATOM      7  C   UNL     1       2.534   4.359  18.155  0.00  0.00    +0.000 A 
ATOM      8  C   UNL     1       3.089   5.050  19.251  0.00  0.00    +0.000 A 
ATOM      9 CL   UNL     1       2.081   5.464  20.584  0.00  0.00    +0.000 Cl
ATOM     10  C   UNL     1       4.441   5.395  19.282  0.00  0.00    +0.000 A 
ATOM     11  C   UNL     1       5.200   5.027  18.192  0.00  0.00    +0.000 A 
ATOM     12  N   UNL     1       6.538   5.175  17.916  0.00  0.00    +0.000 N 
ENDBRANCH   1  12
BRANCH   1  13
ATOM     13  C   UNL     1       7.874   7.121  18.428  0.00  0.00    +0.000 A 
ATOM     14  C   UNL     1       8.752   7.992  19.034  0.00  0.00    +0.000 A 
ATOM     15  N   UNL     1       8.571   9.198  18.399  0.00  0.00    +0.000 N 
ATOM     16  N   UNL     1       7.659   9.033  17.402  0.00  0.00    +0.000 NA
ATOM     17  N   UNL     1       7.232   7.777  17.416  0.00  0.00    +0.000 NA
BRANCH  15  18
ATOM     18  C   UNL     1       9.146  10.463  18.679  0.00  0.00    +0.000 A 
ATOM     19  C   UNL     1       9.482  11.328  17.622  0.00  0.00    +0.000 A 
ATOM     20  C   UNL     1      10.043  12.582  17.887  0.00  0.00    +0.000 A 
ATOM     21  C   UNL     1      10.278  12.983  19.201  0.00  0.00    +0.000 A 
ATOM     22  C   UNL     1       9.942  12.134  20.252  0.00  0.00    +0.000 A 
ATOM     23  C   UNL     1       9.378  10.885  19.990  0.00  0.00    +0.000 A 
ATOM     24  F   UNL     1       9.078  10.120  21.047  0.00  0.00    +0.000 F 
ENDBRANCH  15  18
ENDBRANCH   1  13
TORSDOF 3
ENDMDL
MODEL 9
REMARK VINA RESULT:      -7.8      3.298      4.545
REMARK  Name = 
REMARK  3 active torsions:
REMARK  status: ('A' for Active; 'I' for Inactive)
REMARK    1  A    between atoms: N_11  and  C_12
REMARK    2  A    between atoms: C_12  and  C_13
REMARK    3  A    between atoms: N_15  and  C_16
REMARK                            x       y       z     vdW  Elec       q    Type
REMARK                         _______ _______ _______ _____ _____    ______ ____
ROOT
ATOM      1  C   UNL     1       2.579   5.029  20.085  0.00  0.00    +0.000 C 
ENDROOT
BRANCH   1  12
ATOM      2  O   UNL     1       1.276   3.806  17.754  0.00  0.00    +0.000 OA
ATOM      3  C   UNL     1       2.479   4.027  17.793  0.00  0.00    +0.000 A 
ATOM      4  O   UNL     1       3.339   3.775  16.714  0.00  0.00    +0.000 OA
ATOM      5  C   UNL     1       4.564   4.212  17.196  0.00  0.00    +0.000 A 
ATOM      6  C   UNL     1       5.749   4.214  16.491  0.00  0.00    +0.000 A 
ATOM      7  C   UNL     1       6.882   4.711  17.144  0.00  0.00    +0.000 A 
ATOM      8  C   UNL     1       6.794   5.186  18.468  0.00  0.00    +0.000 A 
ATOM      9 CL   UNL     1       8.207   5.801  19.237  0.00  0.00    +0.000 Cl
ATOM     10  C   UNL     1       5.584   5.178  19.164  0.00  0.00    +0.000 A 
ATOM     11  C   UNL     1       4.487   4.686  18.492  0.00  0.00    +0.000 A 
ATOM     12  N   UNL     1       3.167   4.567  18.858  0.00  0.00    +0.000 N 
ENDBRANCH   1  12
BRANCH   1  13
ATOM     13  C   UNL     1       2.186   6.458  19.997  0.00  0.00    +0.000 A 
ATOM     14  C   UNL     1       1.430   7.209  20.868  0.00  0.00    +0.000 A 
ATOM     15  N   UNL     1       1.233   8.416  20.239  0.00  0.00    +0.000 N 
ATOM     16  N   UNL     1       1.907   8.406  19.057  0.00  0.00    +0.000 NA
ATOM     17  N   UNL     1       2.485   7.221  18.903  0.00  0.00    +0.000 NA
BRANCH  15  18
ATOM     18  C   UNL     1       0.450   9.527  20.638  0.00  0.00    +0.000 A 
ATOM     19  C   UNL     1      -0.239  10.282  19.672  0.00  0.00    +0.000 A 
ATOM     20  C   UNL     1      -1.022  11.377  20.056  0.00  0.00    +0.000 A 
ATOM     21  C   UNL     1      -1.120  11.732  21.400  0.00  0.00    +0.000 A 
ATOM     22  C   UNL     1      -0.446  10.986  22.363  0.00  0.00    +0.000 A 
ATOM     23  C   UNL     1       0.330   9.891  21.982  0.00  0.00    +0.000 A 
ATOM     24  F   UNL     1       0.950   9.217  22.959  0.00  0.00    +0.000 F 
ENDBRANCH  15  18
ENDBRANCH   1  13
TORSDOF 3
ENDMDL
