MODEL 1
REMARK VINA RESULT:      -8.0      0.000      0.000
REMARK  Name = 
REMARK  8 active torsions:
REMARK  status: ('A' for Active; 'I' for Inactive)
REMARK    1  A    between atoms: C_1  and  O_2
REMARK    2  A    between atoms: O_2  and  C_3
REMARK    3  A    between atoms: C_3  and  C_5
REMARK    4  A    between atoms: N_12  and  C_13
REMARK    5  A    between atoms: C_13  and  C_14
REMARK    6  A    between atoms: N_16  and  C_17
REMARK    7  A    between atoms: C_20  and  C_21
REMARK    8  A    between atoms: C_23  and  C_24
REMARK                            x       y       z     vdW  Elec       q    Type
REMARK                         _______ _______ _______ _____ _____    ______ ____
ROOT
ATOM      1  C   UNL     1       3.375   4.413  20.221  0.00  0.00    +0.000 C 
ENDROOT
BRANCH   1   9
ATOM      2  C   UNL     1       3.463   4.021  17.697  0.00  0.00    +0.000 A 
ATOM      3  C   UNL     1       4.452   4.077  16.713  0.00  0.00    +0.000 A 
ATOM      4  C   UNL     1       5.586   4.561  17.372  0.00  0.00    +0.000 A 
ATOM      5  O   UNL     1       6.864   4.879  17.050  0.00  0.00    +0.000 OA
ATOM      6  C   UNL     1       7.401   5.341  18.213  0.00  0.00    +0.000 A 
ATOM      7  C   UNL     1       6.511   5.315  19.264  0.00  0.00    +0.000 A 
ATOM      8  C   UNL     1       5.339   4.784  18.679  0.00  0.00    +0.000 A 
ATOM      9  N   UNL     1       4.035   4.408  18.918  0.00  0.00    +0.000 N 
BRANCH   2  10
ATOM     10  C   UNL     1       2.072   3.635  17.515  0.00  0.00    +0.000 C 
ATOM     11  O   UNL     1       1.161   4.389  17.196  0.00  0.00    +0.000 OA
BRANCH  10  13
ATOM     12  C   UNL     1       1.043   1.973  18.826  0.00  0.00    +0.000 C 
ATOM     13  O   UNL     1       1.932   2.302  17.759  0.00  0.00    +0.000 OA
ENDBRANCH  10  13
ENDBRANCH   2  10
ENDBRANCH   1   9
BRANCH   1  14
ATOM     14  C   UNL     1       2.250   5.425  20.376  0.00  0.00    +0.000 C 
ATOM     15  O   UNL     1       1.109   5.034  20.611  0.00  0.00    +0.000 OA
ATOM     16  N   UNL     1       2.642   6.747  20.195  0.00  0.00    +0.000 N 
ATOM     17  H   UNL     1       3.618   6.911  19.985  0.00  0.00    +0.000 HD
BRANCH  16  18
ATOM     18  C   UNL     1       1.801   7.897  20.166  0.00  0.00    +0.000 A 
ATOM     19  C   UNL     1       1.056   8.301  21.281  0.00  0.00    +0.000 A 
ATOM     20  C   UNL     1       0.183   9.393  21.224  0.00  0.00    +0.000 A 
ATOM     21  C   UNL     1       0.034  10.119  20.046  0.00  0.00    +0.000 A 
ATOM     22  C   UNL     1      -0.926  11.269  19.971  0.00  0.00    +0.000 C 
ATOM     23  C   UNL     1       0.795   9.749  18.932  0.00  0.00    +0.000 A 
ATOM     24  C   UNL     1       1.678   8.648  18.975  0.00  0.00    +0.000 A 
ATOM     25  C   UNL     1       2.458   8.327  17.726  0.00  0.00    +0.000 C 
ENDBRANCH  16  18
ENDBRANCH   1  14
TORSDOF 5
ENDMDL
MODEL 2
REMARK VINA RESULT:      -7.5      1.042      1.289
REMARK  Name = 
REMARK  8 active torsions:
REMARK  status: ('A' for Active; 'I' for Inactive)
REMARK    1  A    between atoms: C_1  and  O_2
REMARK    2  A    between atoms: O_2  and  C_3
REMARK    3  A    between atoms: C_3  and  C_5
REMARK    4  A    between atoms: N_12  and  C_13
REMARK    5  A    between atoms: C_13  and  C_14
REMARK    6  A    between atoms: N_16  and  C_17
REMARK    7  A    between atoms: C_20  and  C_21
REMARK    8  A    between atoms: C_23  and  C_24
REMARK                            x       y       z     vdW  Elec       q    Type
REMARK                         _______ _______ _______ _____ _____    ______ ____
ROOT
ATOM      1  C   UNL     1       3.634   4.663  19.863  0.00  0.00    +0.000 C 
ENDROOT
BRANCH   1   9
ATOM      2  C   UNL     1       3.847   3.392  17.656  0.00  0.00    +0.000 A 
ATOM      3  C   UNL     1       4.528   3.590  16.452  0.00  0.00    +0.000 A 
ATOM      4  C   UNL     1       5.114   4.854  16.577  0.00  0.00    +0.000 A 
ATOM      5  O   UNL     1       5.876   5.675  15.814  0.00  0.00    +0.000 OA
ATOM      6  C   UNL     1       6.040   6.790  16.577  0.00  0.00    +0.000 A 
ATOM      7  C   UNL     1       5.419   6.698  17.804  0.00  0.00    +0.000 A 
ATOM      8  C   UNL     1       4.837   5.411  17.772  0.00  0.00    +0.000 A 
ATOM      9  N   UNL     1       4.089   4.498  18.485  0.00  0.00    +0.000 N 
BRANCH   2  10
ATOM     10  C   UNL     1       3.021   2.249  18.013  0.00  0.00    +0.000 C 
ATOM     11  O   UNL     1       3.428   1.203  18.501  0.00  0.00    +0.000 OA
BRANCH  10  13
ATOM     12  C   UNL     1       0.788   2.219  18.757  0.00  0.00    +0.000 C 
ATOM     13  O   UNL     1       1.718   2.517  17.716  0.00  0.00    +0.000 OA
ENDBRANCH  10  13
ENDBRANCH   2  10
ENDBRANCH   1   9
BRANCH   1  14
ATOM     14  C   UNL     1       2.428   5.571  20.046  0.00  0.00    +0.000 C 
ATOM     15  O   UNL     1       1.302   5.081  20.099  0.00  0.00    +0.000 OA
ATOM     16  N   UNL     1       2.735   6.926  20.103  0.00  0.00    +0.000 N 
ATOM     17  H   UNL     1       3.712   7.178  20.024  0.00  0.00    +0.000 HD
BRANCH  16  18
ATOM     18  C   UNL     1       1.818   8.014  20.155  0.00  0.00    +0.000 A 
ATOM     19  C   UNL     1       1.106   8.331  21.319  0.00  0.00    +0.000 A 
ATOM     20  C   UNL     1       0.159   9.361  21.342  0.00  0.00    +0.000 A 
ATOM     21  C   UNL     1      -0.101  10.110  20.198  0.00  0.00    +0.000 A 
ATOM     22  C   UNL     1      -1.139  11.192  20.210  0.00  0.00    +0.000 C 
ATOM     23  C   UNL     1       0.626   9.828  19.037  0.00  0.00    +0.000 A 
ATOM     24  C   UNL     1       1.583   8.791  18.998  0.00  0.00    +0.000 A 
ATOM     25  C   UNL     1       2.316   8.563  17.702  0.00  0.00    +0.000 C 
ENDBRANCH  16  18
ENDBRANCH   1  14
TORSDOF 5
ENDMDL
MODEL 3
REMARK VINA RESULT:      -7.3      1.842      3.242
REMARK  Name = 
REMARK  8 active torsions:
REMARK  status: ('A' for Active; 'I' for Inactive)
REMARK    1  A    between atoms: C_1  and  O_2
REMARK    2  A    between atoms: O_2  and  C_3
REMARK    3  A    between atoms: C_3  and  C_5
REMARK    4  A    between atoms: N_12  and  C_13
REMARK    5  A    between atoms: C_13  and  C_14
REMARK    6  A    between atoms: N_16  and  C_17
REMARK    7  A    between atoms: C_20  and  C_21
REMARK    8  A    between atoms: C_23  and  C_24
REMARK                            x       y       z     vdW  Elec       q    Type
REMARK                         _______ _______ _______ _____ _____    ______ ____
ROOT
ATOM      1  C   UNL     1       3.573   3.652  16.870  0.00  0.00    +0.000 C 
ENDROOT
BRANCH   1   9
ATOM      2  C   UNL     1       5.802   4.445  17.837  0.00  0.00    +0.000 A 
ATOM      3  C   UNL     1       6.998   4.939  17.311  0.00  0.00    +0.000 A 
ATOM      4  C   UNL     1       6.848   4.839  15.925  0.00  0.00    +0.000 A 
ATOM      5  O   UNL     1       7.592   5.102  14.823  0.00  0.00    +0.000 OA
ATOM      6  C   UNL     1       6.807   4.707  13.783  0.00  0.00    +0.000 A 
ATOM      7  C   UNL     1       5.586   4.215  14.187  0.00  0.00    +0.000 A 
ATOM      8  C   UNL     1       5.644   4.331  15.594  0.00  0.00    +0.000 A 
ATOM      9  N   UNL     1       4.952   4.123  16.768  0.00  0.00    +0.000 N 
BRANCH   2  10
ATOM     10  C   UNL     1       5.469   4.279  19.243  0.00  0.00    +0.000 C 
ATOM     11  O   UNL     1       5.303   5.188  20.046  0.00  0.00    +0.000 OA
BRANCH  10  13
ATOM     12  C   UNL     1       4.174   2.565  20.206  0.00  0.00    +0.000 C 
ATOM     13  O   UNL     1       5.375   2.952  19.537  0.00  0.00    +0.000 OA
ENDBRANCH  10  13
ENDBRANCH   2  10
ENDBRANCH   1   9
BRANCH   1  14
ATOM     14  C   UNL     1       2.586   4.651  17.453  0.00  0.00    +0.000 C 
ATOM     15  O   UNL     1       1.381   4.403  17.422  0.00  0.00    +0.000 OA
ATOM     16  N   UNL     1       3.171   5.809  17.953  0.00  0.00    +0.000 N 
ATOM     17  H   UNL     1       4.178   5.878  17.889  0.00  0.00    +0.000 HD
BRANCH  16  18
ATOM     18  C   UNL     1       2.503   6.964  18.453  0.00  0.00    +0.000 A 
ATOM     19  C   UNL     1       2.355   8.127  17.687  0.00  0.00    +0.000 A 
ATOM     20  C   UNL     1       1.756   9.278  18.209  0.00  0.00    +0.000 A 
ATOM     21  C   UNL     1       1.280   9.298  19.517  0.00  0.00    +0.000 A 
ATOM     22  C   UNL     1       0.668  10.542  20.090  0.00  0.00    +0.000 C 
ATOM     23  C   UNL     1       1.390   8.135  20.285  0.00  0.00    +0.000 A 
ATOM     24  C   UNL     1       1.995   6.966  19.772  0.00  0.00    +0.000 A 
ATOM     25  C   UNL     1       2.066   5.761  20.674  0.00  0.00    +0.000 C 
ENDBRANCH  16  18
ENDBRANCH   1  14
TORSDOF 5
ENDMDL
MODEL 4
REMARK VINA RESULT:      -7.3      0.791      1.079
REMARK  Name = 
REMARK  8 active torsions:
REMARK  status: ('A' for Active; 'I' for Inactive)
REMARK    1  A    between atoms: C_1  and  O_2
REMARK    2  A    between atoms: O_2  and  C_3
REMARK    3  A    between atoms: C_3  and  C_5
REMARK    4  A    between atoms: N_12  and  C_13
REMARK    5  A    between atoms: C_13  and  C_14
REMARK    6  A    between atoms: N_16  and  C_17
REMARK    7  A    between atoms: C_20  and  C_21
REMARK    8  A    between atoms: C_23  and  C_24
REMARK                            x       y       z     vdW  Elec       q    Type
REMARK                         _______ _______ _______ _____ _____    ______ ____
ROOT
ATOM      1  C   UNL     1       3.726   4.024  20.276  0.00  0.00    +0.000 C 
ENDROOT
BRANCH   1   9
ATOM      2  C   UNL     1       4.033   3.458  17.803  0.00  0.00    +0.000 A 
ATOM      3  C   UNL     1       5.031   3.667  16.849  0.00  0.00    +0.000 A 
ATOM      4  C   UNL     1       5.985   4.459  17.495  0.00  0.00    +0.000 A 
ATOM      5  O   UNL     1       7.166   5.045  17.184  0.00  0.00    +0.000 OA
ATOM      6  C   UNL     1       7.519   5.717  18.314  0.00  0.00    +0.000 A 
ATOM      7  C   UNL     1       6.608   5.566  19.336  0.00  0.00    +0.000 A 
ATOM      8  C   UNL     1       5.625   4.725  18.767  0.00  0.00    +0.000 A 
ATOM      9  N   UNL     1       4.435   4.069  19.000  0.00  0.00    +0.000 N 
BRANCH   2  10
ATOM     10  C   UNL     1       2.783   2.738  17.616  0.00  0.00    +0.000 C 
ATOM     11  O   UNL     1       2.503   1.657  18.117  0.00  0.00    +0.000 OA
BRANCH  10  13
ATOM     12  C   UNL     1       1.196   4.466  17.428  0.00  0.00    +0.000 C 
ATOM     13  O   UNL     1       1.966   3.448  16.788  0.00  0.00    +0.000 OA
ENDBRANCH  10  13
ENDBRANCH   2  10
ENDBRANCH   1   9
BRANCH   1  14
ATOM     14  C   UNL     1       2.623   5.058  20.444  0.00  0.00    +0.000 C 
ATOM     15  O   UNL     1       1.523   4.709  20.868  0.00  0.00    +0.000 OA
ATOM     16  N   UNL     1       2.980   6.344  20.053  0.00  0.00    +0.000 N 
ATOM     17  H   UNL     1       3.921   6.472  19.703  0.00  0.00    +0.000 HD
BRANCH  16  18
ATOM     18  C   UNL     1       2.135   7.489  19.986  0.00  0.00    +0.000 A 
ATOM     19  C   UNL     1       1.338   7.888  21.068  0.00  0.00    +0.000 A 
ATOM     20  C   UNL     1       0.463   8.974  20.972  0.00  0.00    +0.000 A 
ATOM     21  C   UNL     1       0.361   9.700  19.788  0.00  0.00    +0.000 A 
ATOM     22  C   UNL     1      -0.601  10.845  19.672  0.00  0.00    +0.000 C 
ATOM     23  C   UNL     1       1.174   9.335  18.710  0.00  0.00    +0.000 A 
ATOM     24  C   UNL     1       2.060   8.239  18.791  0.00  0.00    +0.000 A 
ATOM     25  C   UNL     1       2.897   7.924  17.579  0.00  0.00    +0.000 C 
ENDBRANCH  16  18
ENDBRANCH   1  14
TORSDOF 5
ENDMDL
MODEL 5
REMARK VINA RESULT:      -7.2      0.624      1.464
REMARK  Name = 
REMARK  8 active torsions:
REMARK  status: ('A' for Active; 'I' for Inactive)
REMARK    1  A    between atoms: C_1  and  O_2
REMARK    2  A    between atoms: O_2  and  C_3
REMARK    3  A    between atoms: C_3  and  C_5
REMARK    4  A    between atoms: N_12  and  C_13
REMARK    5  A    between atoms: C_13  and  C_14
REMARK    6  A    between atoms: N_16  and  C_17
REMARK    7  A    between atoms: C_20  and  C_21
REMARK    8  A    between atoms: C_23  and  C_24
REMARK                            x       y       z     vdW  Elec       q    Type
REMARK                         _______ _______ _______ _____ _____    ______ ____
ROOT
ATOM      1  C   UNL     1       3.398   4.798  20.215  0.00  0.00    +0.000 C 
ENDROOT
BRANCH   1   9
ATOM      2  C   UNL     1       3.542   3.915  17.822  0.00  0.00    +0.000 A 
ATOM      3  C   UNL     1       4.558   3.758  16.876  0.00  0.00    +0.000 A 
ATOM      4  C   UNL     1       5.685   4.342  17.461  0.00  0.00    +0.000 A 
ATOM      5  O   UNL     1       6.977   4.568  17.121  0.00  0.00    +0.000 OA
ATOM      6  C   UNL     1       7.495   5.241  18.185  0.00  0.00    +0.000 A 
ATOM      7  C   UNL     1       6.578   5.439  19.194  0.00  0.00    +0.000 A 
ATOM      8  C   UNL     1       5.410   4.824  18.690  0.00  0.00    +0.000 A 
ATOM      9  N   UNL     1       4.092   4.525  18.960  0.00  0.00    +0.000 N 
BRANCH   2  10
ATOM     10  C   UNL     1       2.148   3.525  17.678  0.00  0.00    +0.000 C 
ATOM     11  O   UNL     1       1.274   4.195  17.143  0.00  0.00    +0.000 OA
BRANCH  10  13
ATOM     12  C   UNL     1       0.704   2.122  18.898  0.00  0.00    +0.000 C 
ATOM     13  O   UNL     1       1.957   2.297  18.236  0.00  0.00    +0.000 OA
ENDBRANCH  10  13
ENDBRANCH   2  10
ENDBRANCH   1   9
BRANCH   1  14
ATOM     14  C   UNL     1       2.263   5.806  20.125  0.00  0.00    +0.000 C 
ATOM     15  O   UNL     1       1.113   5.449  20.373  0.00  0.00    +0.000 OA
ATOM     16  N   UNL     1       2.657   7.077  19.723  0.00  0.00    +0.000 N 
ATOM     17  H   UNL     1       3.642   7.213  19.535  0.00  0.00    +0.000 HD
BRANCH  16  18
ATOM     18  C   UNL     1       1.814   8.190  19.440  0.00  0.00    +0.000 A 
ATOM     19  C   UNL     1       1.548   8.607  18.129  0.00  0.00    +0.000 A 
ATOM     20  C   UNL     1       0.772   9.740  17.864  0.00  0.00    +0.000 A 
ATOM     21  C   UNL     1       0.232  10.490  18.905  0.00  0.00    +0.000 A 
ATOM     22  C   UNL     1      -0.572  11.725  18.624  0.00  0.00    +0.000 C 
ATOM     23  C   UNL     1       0.461  10.068  20.219  0.00  0.00    +0.000 A 
ATOM     24  C   UNL     1       1.244   8.928  20.503  0.00  0.00    +0.000 A 
ATOM     25  C   UNL     1       1.433   8.551  21.949  0.00  0.00    +0.000 C 
ENDBRANCH  16  18
ENDBRANCH   1  14
TORSDOF 5
ENDMDL
MODEL 6
REMARK VINA RESULT:      -7.1      1.370      1.661
REMARK  Name = 
REMARK  8 active torsions:
REMARK  status: ('A' for Active; 'I' for Inactive)
REMARK    1  A    between atoms: C_1  and  O_2
REMARK    2  A    between atoms: O_2  and  C_3
REMARK    3  A    between atoms: C_3  and  C_5
REMARK    4  A    between atoms: N_12  and  C_13
REMARK    5  A    between atoms: C_13  and  C_14
REMARK    6  A    between atoms: N_16  and  C_17
REMARK    7  A    between atoms: C_20  and  C_21
REMARK    8  A    between atoms: C_23  and  C_24
REMARK                            x       y       z     vdW  Elec       q    Type
REMARK                         _______ _______ _______ _____ _____    ______ ____
ROOT
ATOM      1  C   UNL     1       3.109   5.071  20.246  0.00  0.00    +0.000 C 
ENDROOT
BRANCH   1   9
ATOM      2  C   UNL     1       2.557   3.271  18.518  0.00  0.00    +0.000 A 
ATOM      3  C   UNL     1       3.024   2.933  17.246  0.00  0.00    +0.000 A 
ATOM      4  C   UNL     1       3.935   3.943  16.919  0.00  0.00    +0.000 A 
ATOM      5  O   UNL     1       4.725   4.265  15.867  0.00  0.00    +0.000 OA
ATOM      6  C   UNL     1       5.318   5.434  16.235  0.00  0.00    +0.000 A 
ATOM      7  C   UNL     1       4.940   5.857  17.490  0.00  0.00    +0.000 A 
ATOM      8  C   UNL     1       4.046   4.848  17.912  0.00  0.00    +0.000 A 
ATOM      9  N   UNL     1       3.234   4.425  18.943  0.00  0.00    +0.000 N 
BRANCH   2  10
ATOM     10  C   UNL     1       1.544   2.569  19.291  0.00  0.00    +0.000 C 
ATOM     11  O   UNL     1       0.366   2.454  18.980  0.00  0.00    +0.000 OA
BRANCH  10  13
ATOM     12  C   UNL     1       1.471   2.453  21.641  0.00  0.00    +0.000 C 
ATOM     13  O   UNL     1       2.104   2.060  20.424  0.00  0.00    +0.000 OA
ENDBRANCH  10  13
ENDBRANCH   2  10
ENDBRANCH   1   9
BRANCH   1  14
ATOM     14  C   UNL     1       1.943   6.038  20.384  0.00  0.00    +0.000 C 
ATOM     15  O   UNL     1       0.806   5.598  20.542  0.00  0.00    +0.000 OA
ATOM     16  N   UNL     1       2.296   7.379  20.280  0.00  0.00    +0.000 N 
ATOM     17  H   UNL     1       3.276   7.584  20.129  0.00  0.00    +0.000 HD
BRANCH  16  18
ATOM     18  C   UNL     1       1.418   8.500  20.254  0.00  0.00    +0.000 A 
ATOM     19  C   UNL     1       0.694   8.902  21.384  0.00  0.00    +0.000 A 
ATOM     20  C   UNL     1      -0.216   9.964  21.332  0.00  0.00    +0.000 A 
ATOM     21  C   UNL     1      -0.424  10.661  20.145  0.00  0.00    +0.000 A 
ATOM     22  C   UNL     1      -1.423  11.778  20.078  0.00  0.00    +0.000 C 
ATOM     23  C   UNL     1       0.315  10.293  19.017  0.00  0.00    +0.000 A 
ATOM     24  C   UNL     1       1.235   9.222  19.053  0.00  0.00    +0.000 A 
ATOM     25  C   UNL     1       1.986   8.901  17.788  0.00  0.00    +0.000 C 
ENDBRANCH  16  18
ENDBRANCH   1  14
TORSDOF 5
ENDMDL
MODEL 7
REMARK VINA RESULT:      -7.1      1.416      1.885
REMARK  Name = 
REMARK  8 active torsions:
REMARK  status: ('A' for Active; 'I' for Inactive)
REMARK    1  A    between atoms: C_1  and  O_2
REMARK    2  A    between atoms: O_2  and  C_3
REMARK    3  A    between atoms: C_3  and  C_5
REMARK    4  A    between atoms: N_12  and  C_13
REMARK    5  A    between atoms: C_13  and  C_14
REMARK    6  A    between atoms: N_16  and  C_17
REMARK    7  A    between atoms: C_20  and  C_21
REMARK    8  A    between atoms: C_23  and  C_24
REMARK                            x       y       z     vdW  Elec       q    Type
REMARK                         _______ _______ _______ _____ _____    ______ ____
ROOT
ATOM      1  C   UNL     1       2.867   6.634  17.963  0.00  0.00    +0.000 C 
ENDROOT
BRANCH   1   9
ATOM      2  C   UNL     1       3.364   4.141  18.223  0.00  0.00    +0.000 A 
ATOM      3  C   UNL     1       4.507   3.369  18.443  0.00  0.00    +0.000 A 
ATOM      4  C   UNL     1       5.568   4.279  18.396  0.00  0.00    +0.000 A 
ATOM      5  O   UNL     1       6.918   4.238  18.499  0.00  0.00    +0.000 OA
ATOM      6  C   UNL     1       7.313   5.526  18.304  0.00  0.00    +0.000 A 
ATOM      7  C   UNL     1       6.257   6.385  18.093  0.00  0.00    +0.000 A 
ATOM      8  C   UNL     1       5.131   5.535  18.175  0.00  0.00    +0.000 A 
ATOM      9  N   UNL     1       3.755   5.484  18.114  0.00  0.00    +0.000 N 
BRANCH   2  10
ATOM     10  C   UNL     1       1.994   3.662  18.119  0.00  0.00    +0.000 C 
ATOM     11  O   UNL     1       1.170   4.040  17.298  0.00  0.00    +0.000 OA
BRANCH  10  13
ATOM     12  C   UNL     1       1.069   3.203  20.235  0.00  0.00    +0.000 C 
ATOM     13  O   UNL     1       1.763   2.726  19.082  0.00  0.00    +0.000 OA
ENDBRANCH  10  13
ENDBRANCH   2  10
ENDBRANCH   1   9
BRANCH   1  14
ATOM     14  C   UNL     1       2.257   7.159  19.253  0.00  0.00    +0.000 C 
ATOM     15  O   UNL     1       2.223   6.436  20.247  0.00  0.00    +0.000 OA
ATOM     16  N   UNL     1       1.747   8.449  19.161  0.00  0.00    +0.000 N 
ATOM     17  H   UNL     1       1.831   8.912  18.266  0.00  0.00    +0.000 HD
BRANCH  16  18
ATOM     18  C   UNL     1       1.021   9.160  20.159  0.00  0.00    +0.000 A 
ATOM     19  C   UNL     1       1.204   8.917  21.527  0.00  0.00    +0.000 A 
ATOM     20  C   UNL     1       0.440   9.573  22.498  0.00  0.00    +0.000 A 
ATOM     21  C   UNL     1      -0.531  10.499  22.128  0.00  0.00    +0.000 A 
ATOM     22  C   UNL     1      -1.375  11.179  23.165  0.00  0.00    +0.000 C 
ATOM     23  C   UNL     1      -0.704  10.778  20.769  0.00  0.00    +0.000 A 
ATOM     24  C   UNL     1       0.058  10.122  19.777  0.00  0.00    +0.000 A 
ATOM     25  C   UNL     1      -0.198  10.490  18.339  0.00  0.00    +0.000 C 
ENDBRANCH  16  18
ENDBRANCH   1  14
TORSDOF 5
ENDMDL
MODEL 8
REMARK VINA RESULT:      -7.0      1.846      3.758
REMARK  Name = 
REMARK  8 active torsions:
REMARK  status: ('A' for Active; 'I' for Inactive)
REMARK    1  A    between atoms: C_1  and  O_2
REMARK    2  A    between atoms: O_2  and  C_3
REMARK    3  A    between atoms: C_3  and  C_5
REMARK    4  A    between atoms: N_12  and  C_13
REMARK    5  A    between atoms: C_13  and  C_14
REMARK    6  A    between atoms: N_16  and  C_17
REMARK    7  A    between atoms: C_20  and  C_21
REMARK    8  A    between atoms: C_23  and  C_24
REMARK                            x       y       z     vdW  Elec       q    Type
REMARK                         _______ _______ _______ _____ _____    ______ ____
ROOT
ATOM      1  C   UNL     1       3.842   3.478  16.848  0.00  0.00    +0.000 C 
ENDROOT
BRANCH   1   9
ATOM      2  C   UNL     1       6.062   4.493  17.603  0.00  0.00    +0.000 A 
ATOM      3  C   UNL     1       7.170   5.056  16.965  0.00  0.00    +0.000 A 
ATOM      4  C   UNL     1       6.925   4.879  15.600  0.00  0.00    +0.000 A 
ATOM      5  O   UNL     1       7.560   5.149  14.434  0.00  0.00    +0.000 OA
ATOM      6  C   UNL     1       6.736   4.643  13.475  0.00  0.00    +0.000 A 
ATOM      7  C   UNL     1       5.594   4.073  13.994  0.00  0.00    +0.000 A 
ATOM      8  C   UNL     1       5.747   4.260  15.386  0.00  0.00    +0.000 A 
ATOM      9  N   UNL     1       5.164   4.054  16.618  0.00  0.00    +0.000 N 
BRANCH   2  10
ATOM     10  C   UNL     1       5.851   4.368  19.037  0.00  0.00    +0.000 C 
ATOM     11  O   UNL     1       5.395   3.385  19.605  0.00  0.00    +0.000 OA
BRANCH  10  13
ATOM     12  C   UNL     1       7.641   5.662  19.850  0.00  0.00    +0.000 C 
ATOM     13  O   UNL     1       6.234   5.519  19.658  0.00  0.00    +0.000 OA
ENDBRANCH  10  13
ENDBRANCH   2  10
ENDBRANCH   1   9
BRANCH   1  14
ATOM     14  C   UNL     1       2.816   4.425  17.452  0.00  0.00    +0.000 C 
ATOM     15  O   UNL     1       1.619   4.155  17.370  0.00  0.00    +0.000 OA
ATOM     16  N   UNL     1       3.361   5.565  18.032  0.00  0.00    +0.000 N 
ATOM     17  H   UNL     1       4.368   5.656  18.003  0.00  0.00    +0.000 HD
BRANCH  16  18
ATOM     18  C   UNL     1       2.654   6.678  18.572  0.00  0.00    +0.000 A 
ATOM     19  C   UNL     1       2.457   7.858  17.842  0.00  0.00    +0.000 A 
ATOM     20  C   UNL     1       1.819   8.969  18.404  0.00  0.00    +0.000 A 
ATOM     21  C   UNL     1       1.353   8.930  19.715  0.00  0.00    +0.000 A 
ATOM     22  C   UNL     1       0.698  10.131  20.330  0.00  0.00    +0.000 C 
ATOM     23  C   UNL     1       1.512   7.749  20.445  0.00  0.00    +0.000 A 
ATOM     24  C   UNL     1       2.156   6.620  19.893  0.00  0.00    +0.000 A 
ATOM     25  C   UNL     1       2.279   5.392  20.756  0.00  0.00    +0.000 C 
ENDBRANCH  16  18
ENDBRANCH   1  14
TORSDOF 5
ENDMDL
MODEL 9
REMARK VINA RESULT:      -7.0      1.609      4.043
REMARK  Name = 
REMARK  8 active torsions:
REMARK  status: ('A' for Active; 'I' for Inactive)
REMARK    1  A    between atoms: C_1  and  O_2
REMARK    2  A    between atoms: O_2  and  C_3
REMARK    3  A    between atoms: C_3  and  C_5
REMARK    4  A    between atoms: N_12  and  C_13
REMARK    5  A    between atoms: C_13  and  C_14
REMARK    6  A    between atoms: N_16  and  C_17
REMARK    7  A    between atoms: C_20  and  C_21
REMARK    8  A    between atoms: C_23  and  C_24
REMARK                            x       y       z     vdW  Elec       q    Type
REMARK                         _______ _______ _______ _____ _____    ______ ____
ROOT
ATOM      1  C   UNL     1       3.960   5.610  17.123  0.00  0.00    +0.000 C 
ENDROOT
BRANCH   1   9
ATOM      2  C   UNL     1       4.924   4.086  18.934  0.00  0.00    +0.000 A 
ATOM      3  C   UNL     1       4.468   2.978  19.652  0.00  0.00    +0.000 A 
ATOM      4  C   UNL     1       3.132   2.826  19.266  0.00  0.00    +0.000 A 
ATOM      5  O   UNL     1       2.099   2.002  19.565  0.00  0.00    +0.000 OA
ATOM      6  C   UNL     1       1.060   2.481  18.827  0.00  0.00    +0.000 A 
ATOM      7  C   UNL     1       1.403   3.573  18.061  0.00  0.00    +0.000 A 
ATOM      8  C   UNL     1       2.770   3.760  18.363  0.00  0.00    +0.000 A 
ATOM      9  N   UNL     1       3.885   4.528  18.101  0.00  0.00    +0.000 N 
BRANCH   2  10
ATOM     10  C   UNL     1       6.240   4.699  19.018  0.00  0.00    +0.000 C 
ATOM     11  O   UNL     1       6.548   5.624  19.758  0.00  0.00    +0.000 OA
BRANCH  10  13
ATOM     12  C   UNL     1       7.355   4.827  16.948  0.00  0.00    +0.000 C 
ATOM     13  O   UNL     1       7.085   4.088  18.140  0.00  0.00    +0.000 OA
ENDBRANCH  10  13
ENDBRANCH   2  10
ENDBRANCH   1   9
BRANCH   1  14
ATOM     14  C   UNL     1       3.696   7.003  17.672  0.00  0.00    +0.000 C 
ATOM     15  O   UNL     1       4.629   7.794  17.795  0.00  0.00    +0.000 OA
ATOM     16  N   UNL     1       2.371   7.237  18.025  0.00  0.00    +0.000 N 
ATOM     17  H   UNL     1       1.718   6.478  17.883  0.00  0.00    +0.000 HD
BRANCH  16  18
ATOM     18  C   UNL     1       1.844   8.395  18.666  0.00  0.00    +0.000 A 
ATOM     19  C   UNL     1       1.707   9.618  17.996  0.00  0.00    +0.000 A 
ATOM     20  C   UNL     1       1.250  10.766  18.652  0.00  0.00    +0.000 A 
ATOM     21  C   UNL     1       0.908  10.723  20.000  0.00  0.00    +0.000 A 
ATOM     22  C   UNL     1       0.450  11.960  20.714  0.00  0.00    +0.000 C 
ATOM     23  C   UNL     1       1.008   9.502  20.675  0.00  0.00    +0.000 A 
ATOM     24  C   UNL     1       1.470   8.336  20.027  0.00  0.00    +0.000 A 
ATOM     25  C   UNL     1       1.540   7.067  20.836  0.00  0.00    +0.000 C 
ENDBRANCH  16  18
ENDBRANCH   1  14
TORSDOF 5
ENDMDL
