MODEL 1
REMARK VINA RESULT:      -6.1      0.000      0.000
REMARK  Name = 
REMARK  8 active torsions:
REMARK  status: ('A' for Active; 'I' for Inactive)
REMARK    1  A    between atoms: C_1  and  N_2
REMARK    2  A    between atoms: N_2  and  C_3
REMARK    3  A    between atoms: N_2  and  C_4
REMARK    4  A    between atoms: C_4  and  C_5
REMARK    5  A    between atoms: C_5  and  C_6
REMARK    6  A    between atoms: C_6  and  N_7
REMARK    7  A    between atoms: N_10  and  N_11
REMARK    8  A    between atoms: C_12  and  C_13
REMARK                            x       y       z     vdW  Elec       q    Type
REMARK                         _______ _______ _______ _____ _____    ______ ____
ROOT
ATOM      1  N   UNL     1       4.140   3.546  19.786  0.00  0.00    +0.000 N 
ATOM      2  C   UNL     1       4.312   3.306  18.444  0.00  0.00    +0.000 C 
ATOM      3  O   UNL     1       3.565   2.567  17.808  0.00  0.00    +0.000 OA
ATOM      4  N   UNL     1       5.391   3.987  17.907  0.00  0.00    +0.000 N 
ATOM      5  H   UNL     1       4.748   4.185  20.273  0.00  0.00    +0.000 HD
ATOM      6  H   UNL     1       6.056   4.461  18.497  0.00  0.00    +0.000 HD
ENDROOT
BRANCH   4   7
ATOM      7  N   UNL     1       5.640   3.839  16.577  0.00  0.00    +0.000 NA
ATOM      8  C   UNL     1       6.336   4.753  15.985  0.00  0.00    +0.000 C 
BRANCH   8   9
ATOM      9  C   UNL     1       6.653   4.636  14.544  0.00  0.00    +0.000 A 
ATOM     10  C   UNL     1       5.964   3.727  13.746  0.00  0.00    +0.000 A 
ATOM     11  C   UNL     1       6.318   3.626  12.406  0.00  0.00    +0.000 A 
ATOM     12  C   UNL     1       7.340   4.430  11.914  0.00  0.00    +0.000 A 
ATOM     13  C   UNL     1       7.964   5.313  12.785  0.00  0.00    +0.000 A 
ATOM     14  N   UNL     1       7.647   5.439  14.094  0.00  0.00    +0.000 NA
ENDBRANCH   8   9
ENDBRANCH   4   7
BRANCH   1  15
ATOM     15  C   UNL     1       3.053   2.929  20.520  0.00  0.00    +0.000 C 
BRANCH  15  16
ATOM     16  C   UNL     1       2.134   3.947  21.196  0.00  0.00    +0.000 C 
BRANCH  16  17
ATOM     17  C   UNL     1       1.511   4.958  20.221  0.00  0.00    +0.000 C 
BRANCH  17  19
ATOM     18  C   UNL     1       2.547   6.369  18.531  0.00  0.00    +0.000 C 
ATOM     19  N   UNL     1       2.350   6.143  19.965  0.00  0.00    +0.000 NA
ATOM     20  C   UNL     1       1.748   7.335  20.569  0.00  0.00    +0.000 C 
ENDBRANCH  17  19
ENDBRANCH  16  17
ENDBRANCH  15  16
ENDBRANCH   1  15
TORSDOF 6
ENDMDL
MODEL 2
REMARK VINA RESULT:      -6.1      1.544      2.413
REMARK  Name = 
REMARK  8 active torsions:
REMARK  status: ('A' for Active; 'I' for Inactive)
REMARK    1  A    between atoms: C_1  and  N_2
REMARK    2  A    between atoms: N_2  and  C_3
REMARK    3  A    between atoms: N_2  and  C_4
REMARK    4  A    between atoms: C_4  and  C_5
REMARK    5  A    between atoms: C_5  and  C_6
REMARK    6  A    between atoms: C_6  and  N_7
REMARK    7  A    between atoms: N_10  and  N_11
REMARK    8  A    between atoms: C_12  and  C_13
REMARK                            x       y       z     vdW  Elec       q    Type
REMARK                         _______ _______ _______ _____ _____    ______ ____
ROOT
ATOM      1  N   UNL     1       3.821   5.621  19.707  0.00  0.00    +0.000 N 
ATOM      2  C   UNL     1       4.130   5.750  18.374  0.00  0.00    +0.000 C 
ATOM      3  O   UNL     1       3.313   6.141  17.546  0.00  0.00    +0.000 OA
ATOM      4  N   UNL     1       5.440   5.405  18.087  0.00  0.00    +0.000 N 
ATOM      5  H   UNL     1       4.524   5.332  20.369  0.00  0.00    +0.000 HD
ATOM      6  H   UNL     1       6.023   4.952  18.773  0.00  0.00    +0.000 HD
ENDROOT
BRANCH   4   7
ATOM      7  N   UNL     1       5.861   5.517  16.797  0.00  0.00    +0.000 NA
ATOM      8  C   UNL     1       6.066   4.430  16.130  0.00  0.00    +0.000 C 
BRANCH   8   9
ATOM      9  C   UNL     1       6.506   4.491  14.718  0.00  0.00    +0.000 A 
ATOM     10  C   UNL     1       5.884   3.701  13.755  0.00  0.00    +0.000 A 
ATOM     11  C   UNL     1       6.352   3.765  12.448  0.00  0.00    +0.000 A 
ATOM     12  C   UNL     1       7.415   4.609  12.151  0.00  0.00    +0.000 A 
ATOM     13  C   UNL     1       7.966   5.365  13.177  0.00  0.00    +0.000 A 
ATOM     14  N   UNL     1       7.539   5.329  14.460  0.00  0.00    +0.000 NA
ENDBRANCH   8   9
ENDBRANCH   4   7
BRANCH   1  15
ATOM     15  C   UNL     1       2.498   5.949  20.201  0.00  0.00    +0.000 C 
BRANCH  15  16
ATOM     16  C   UNL     1       1.697   4.717  20.623  0.00  0.00    +0.000 C 
BRANCH  16  17
ATOM     17  C   UNL     1       2.426   3.389  20.368  0.00  0.00    +0.000 C 
BRANCH  17  19
ATOM     18  C   UNL     1       3.218   1.804  18.700  0.00  0.00    +0.000 C 
ATOM     19  N   UNL     1       2.245   2.856  19.006  0.00  0.00    +0.000 NA
ATOM     20  C   UNL     1       0.888   2.327  18.841  0.00  0.00    +0.000 C 
ENDBRANCH  17  19
ENDBRANCH  16  17
ENDBRANCH  15  16
ENDBRANCH   1  15
TORSDOF 6
ENDMDL
MODEL 3
REMARK VINA RESULT:      -5.8      5.679      6.923
REMARK  Name = 
REMARK  8 active torsions:
REMARK  status: ('A' for Active; 'I' for Inactive)
REMARK    1  A    between atoms: C_1  and  N_2
REMARK    2  A    between atoms: N_2  and  C_3
REMARK    3  A    between atoms: N_2  and  C_4
REMARK    4  A    between atoms: C_4  and  C_5
REMARK    5  A    between atoms: C_5  and  C_6
REMARK    6  A    between atoms: C_6  and  N_7
REMARK    7  A    between atoms: N_10  and  N_11
REMARK    8  A    between atoms: C_12  and  C_13
REMARK                            x       y       z     vdW  Elec       q    Type
REMARK                         _______ _______ _______ _____ _____    ______ ____
ROOT
ATOM      1  N   UNL     1       6.068   5.996  17.163  0.00  0.00    +0.000 N 
ATOM      2  C   UNL     1       7.115   6.624  17.794  0.00  0.00    +0.000 C 
ATOM      3  O   UNL     1       7.756   6.089  18.694  0.00  0.00    +0.000 OA
ATOM      4  N   UNL     1       7.361   7.894  17.299  0.00  0.00    +0.000 N 
ATOM      5  H   UNL     1       5.584   6.447  16.403  0.00  0.00    +0.000 HD
ATOM      6  H   UNL     1       6.718   8.341  16.666  0.00  0.00    +0.000 HD
ENDROOT
BRANCH   4   7
ATOM      7  N   UNL     1       8.393   8.599  17.838  0.00  0.00    +0.000 NA
ATOM      8  C   UNL     1       8.204   9.852  18.092  0.00  0.00    +0.000 C 
BRANCH   8   9
ATOM      9  C   UNL     1       9.285  10.664  18.695  0.00  0.00    +0.000 A 
ATOM     10  C   UNL     1      10.270  11.229  17.890  0.00  0.00    +0.000 A 
ATOM     11  C   UNL     1      11.284  11.955  18.502  0.00  0.00    +0.000 A 
ATOM     12  C   UNL     1      11.279  12.091  19.885  0.00  0.00    +0.000 A 
ATOM     13  C   UNL     1      10.250  11.498  20.604  0.00  0.00    +0.000 A 
ATOM     14  N   UNL     1       9.247  10.783  20.044  0.00  0.00    +0.000 NA
ENDBRANCH   8   9
ENDBRANCH   4   7
BRANCH   1  15
ATOM     15  C   UNL     1       5.670   4.654  17.537  0.00  0.00    +0.000 C 
BRANCH  15  16
ATOM     16  C   UNL     1       4.421   4.173  16.799  0.00  0.00    +0.000 C 
BRANCH  16  17
ATOM     17  C   UNL     1       3.177   4.065  17.695  0.00  0.00    +0.000 C 
BRANCH  17  19
ATOM     18  C   UNL     1       3.475   1.706  18.214  0.00  0.00    +0.000 C 
ATOM     19  N   UNL     1       2.557   2.728  17.704  0.00  0.00    +0.000 NA
ATOM     20  C   UNL     1       1.338   2.736  18.518  0.00  0.00    +0.000 C 
ENDBRANCH  17  19
ENDBRANCH  16  17
ENDBRANCH  15  16
ENDBRANCH   1  15
TORSDOF 6
ENDMDL
MODEL 4
REMARK VINA RESULT:      -5.8      6.046      7.466
REMARK  Name = 
REMARK  8 active torsions:
REMARK  status: ('A' for Active; 'I' for Inactive)
REMARK    1  A    between atoms: C_1  and  N_2
REMARK    2  A    between atoms: N_2  and  C_3
REMARK    3  A    between atoms: N_2  and  C_4
REMARK    4  A    between atoms: C_4  and  C_5
REMARK    5  A    between atoms: C_5  and  C_6
REMARK    6  A    between atoms: C_6  and  N_7
REMARK    7  A    between atoms: N_10  and  N_11
REMARK    8  A    between atoms: C_12  and  C_13
REMARK                            x       y       z     vdW  Elec       q    Type
REMARK                         _______ _______ _______ _____ _____    ______ ____
ROOT
ATOM      1  N   UNL     1       7.299   6.232  16.667  0.00  0.00    +0.000 N 
ATOM      2  C   UNL     1       7.740   7.030  17.695  0.00  0.00    +0.000 C 
ATOM      3  O   UNL     1       8.023   6.578  18.801  0.00  0.00    +0.000 OA
ATOM      4  N   UNL     1       7.835   8.365  17.341  0.00  0.00    +0.000 N 
ATOM      5  H   UNL     1       7.108   6.627  15.760  0.00  0.00    +0.000 HD
ATOM      6  H   UNL     1       7.453   8.704  16.473  0.00  0.00    +0.000 HD
ENDROOT
BRANCH   4   7
ATOM      7  N   UNL     1       8.285   9.243  18.280  0.00  0.00    +0.000 NA
ATOM      8  C   UNL     1       8.813  10.349  17.872  0.00  0.00    +0.000 C 
BRANCH   8   9
ATOM      9  C   UNL     1       9.302  11.349  18.847  0.00  0.00    +0.000 A 
ATOM     10  C   UNL     1      10.023  10.942  19.965  0.00  0.00    +0.000 A 
ATOM     11  C   UNL     1      10.434  11.912  20.873  0.00  0.00    +0.000 A 
ATOM     12  C   UNL     1      10.113  13.242  20.632  0.00  0.00    +0.000 A 
ATOM     13  C   UNL     1       9.395  13.552  19.485  0.00  0.00    +0.000 A 
ATOM     14  N   UNL     1       8.978  12.637  18.580  0.00  0.00    +0.000 NA
ENDBRANCH   8   9
ENDBRANCH   4   7
BRANCH   1  15
ATOM     15  C   UNL     1       7.147   4.802  16.846  0.00  0.00    +0.000 C 
BRANCH  15  16
ATOM     16  C   UNL     1       5.762   4.293  16.446  0.00  0.00    +0.000 C 
BRANCH  16  17
ATOM     17  C   UNL     1       4.613   5.197  16.919  0.00  0.00    +0.000 C 
BRANCH  17  19
ATOM     18  C   UNL     1       4.038   3.243  18.251  0.00  0.00    +0.000 C 
ATOM     19  N   UNL     1       3.906   4.695  18.112  0.00  0.00    +0.000 NA
ATOM     20  C   UNL     1       4.417   5.349  19.320  0.00  0.00    +0.000 C 
ENDBRANCH  17  19
ENDBRANCH  16  17
ENDBRANCH  15  16
ENDBRANCH   1  15
TORSDOF 6
ENDMDL
MODEL 5
REMARK VINA RESULT:      -5.8      5.878      7.071
REMARK  Name = 
REMARK  8 active torsions:
REMARK  status: ('A' for Active; 'I' for Inactive)
REMARK    1  A    between atoms: C_1  and  N_2
REMARK    2  A    between atoms: N_2  and  C_3
REMARK    3  A    between atoms: N_2  and  C_4
REMARK    4  A    between atoms: C_4  and  C_5
REMARK    5  A    between atoms: C_5  and  C_6
REMARK    6  A    between atoms: C_6  and  N_7
REMARK    7  A    between atoms: N_10  and  N_11
REMARK    8  A    between atoms: C_12  and  C_13
REMARK                            x       y       z     vdW  Elec       q    Type
REMARK                         _______ _______ _______ _____ _____    ______ ____
ROOT
ATOM      1  N   UNL     1       6.489   6.323  16.635  0.00  0.00    +0.000 N 
ATOM      2  C   UNL     1       7.345   6.886  17.551  0.00  0.00    +0.000 C 
ATOM      3  O   UNL     1       7.906   6.224  18.419  0.00  0.00    +0.000 OA
ATOM      4  N   UNL     1       7.502   8.251  17.376  0.00  0.00    +0.000 N 
ATOM      5  H   UNL     1       6.071   6.887  15.912  0.00  0.00    +0.000 HD
ATOM      6  H   UNL     1       6.910   8.769  16.747  0.00  0.00    +0.000 HD
ENDROOT
BRANCH   4   7
ATOM      7  N   UNL     1       8.348   8.908  18.217  0.00  0.00    +0.000 NA
ATOM      8  C   UNL     1       8.714  10.104  17.896  0.00  0.00    +0.000 C 
BRANCH   8   9
ATOM      9  C   UNL     1       9.616  10.873  18.781  0.00  0.00    +0.000 A 
ATOM     10  C   UNL     1      10.804  11.401  18.283  0.00  0.00    +0.000 A 
ATOM     11  C   UNL     1      11.638  12.087  19.157  0.00  0.00    +0.000 A 
ATOM     12  C   UNL     1      11.259  12.221  20.488  0.00  0.00    +0.000 A 
ATOM     13  C   UNL     1      10.052  11.667  20.891  0.00  0.00    +0.000 A 
ATOM     14  N   UNL     1       9.215  10.993  20.069  0.00  0.00    +0.000 NA
ENDBRANCH   8   9
ENDBRANCH   4   7
BRANCH   1  15
ATOM     15  C   UNL     1       6.209   4.901  16.652  0.00  0.00    +0.000 C 
BRANCH  15  16
ATOM     16  C   UNL     1       4.713   4.587  16.650  0.00  0.00    +0.000 C 
BRANCH  16  17
ATOM     17  C   UNL     1       4.045   4.758  18.024  0.00  0.00    +0.000 C 
BRANCH  17  19
ATOM     18  C   UNL     1       1.654   4.346  17.829  0.00  0.00    +0.000 C 
ATOM     19  N   UNL     1       2.701   5.362  17.967  0.00  0.00    +0.000 NA
ATOM     20  C   UNL     1       2.449   6.160  19.170  0.00  0.00    +0.000 C 
ENDBRANCH  17  19
ENDBRANCH  16  17
ENDBRANCH  15  16
ENDBRANCH   1  15
TORSDOF 6
ENDMDL
MODEL 6
REMARK VINA RESULT:      -5.7      5.374      7.405
REMARK  Name = 
REMARK  8 active torsions:
REMARK  status: ('A' for Active; 'I' for Inactive)
REMARK    1  A    between atoms: C_1  and  N_2
REMARK    2  A    between atoms: N_2  and  C_3
REMARK    3  A    between atoms: N_2  and  C_4
REMARK    4  A    between atoms: C_4  and  C_5
REMARK    5  A    between atoms: C_5  and  C_6
REMARK    6  A    between atoms: C_6  and  N_7
REMARK    7  A    between atoms: N_10  and  N_11
REMARK    8  A    between atoms: C_12  and  C_13
REMARK                            x       y       z     vdW  Elec       q    Type
REMARK                         _______ _______ _______ _____ _____    ______ ____
ROOT
ATOM      1  N   UNL     1       8.545   7.969  18.706  0.00  0.00    +0.000 N 
ATOM      2  C   UNL     1       7.606   7.053  18.296  0.00  0.00    +0.000 C 
ATOM      3  O   UNL     1       6.753   7.320  17.454  0.00  0.00    +0.000 OA
ATOM      4  N   UNL     1       7.739   5.825  18.921  0.00  0.00    +0.000 N 
ATOM      5  H   UNL     1       9.255   7.709  19.373  0.00  0.00    +0.000 HD
ATOM      6  H   UNL     1       8.358   5.703  19.706  0.00  0.00    +0.000 HD
ENDROOT
BRANCH   4   7
ATOM      7  N   UNL     1       6.873   4.834  18.572  0.00  0.00    +0.000 NA
ATOM      8  C   UNL     1       5.683   4.866  19.073  0.00  0.00    +0.000 C 
BRANCH   8   9
ATOM      9  C   UNL     1       4.693   3.826  18.715  0.00  0.00    +0.000 A 
ATOM     10  C   UNL     1       3.829   4.020  17.640  0.00  0.00    +0.000 A 
ATOM     11  C   UNL     1       2.893   3.032  17.360  0.00  0.00    +0.000 A 
ATOM     12  C   UNL     1       2.852   1.894  18.157  0.00  0.00    +0.000 A 
ATOM     13  C   UNL     1       3.759   1.785  19.202  0.00  0.00    +0.000 A 
ATOM     14  N   UNL     1       4.683   2.725  19.505  0.00  0.00    +0.000 NA
ENDBRANCH   8   9
ENDBRANCH   4   7
BRANCH   1  15
ATOM     15  C   UNL     1       8.571   9.308  18.153  0.00  0.00    +0.000 C 
BRANCH  15  16
ATOM     16  C   UNL     1       9.268  10.318  19.065  0.00  0.00    +0.000 C 
BRANCH  16  17
ATOM     17  C   UNL     1      10.121  11.347  18.308  0.00  0.00    +0.000 C 
BRANCH  17  19
ATOM     18  C   UNL     1       9.257  13.427  19.232  0.00  0.00    +0.000 C 
ATOM     19  N   UNL     1      10.430  12.561  19.087  0.00  0.00    +0.000 NA
ATOM     20  C   UNL     1      10.937  12.199  20.414  0.00  0.00    +0.000 C 
ENDBRANCH  17  19
ENDBRANCH  16  17
ENDBRANCH  15  16
ENDBRANCH   1  15
TORSDOF 6
ENDMDL
MODEL 7
REMARK VINA RESULT:      -5.7      5.593      6.813
REMARK  Name = 
REMARK  8 active torsions:
REMARK  status: ('A' for Active; 'I' for Inactive)
REMARK    1  A    between atoms: C_1  and  N_2
REMARK    2  A    between atoms: N_2  and  C_3
REMARK    3  A    between atoms: N_2  and  C_4
REMARK    4  A    between atoms: C_4  and  C_5
REMARK    5  A    between atoms: C_5  and  C_6
REMARK    6  A    between atoms: C_6  and  N_7
REMARK    7  A    between atoms: N_10  and  N_11
REMARK    8  A    between atoms: C_12  and  C_13
REMARK                            x       y       z     vdW  Elec       q    Type
REMARK                         _______ _______ _______ _____ _____    ______ ____
ROOT
ATOM      1  N   UNL     1       6.214   5.948  17.017  0.00  0.00    +0.000 N 
ATOM      2  C   UNL     1       7.221   6.559  17.726  0.00  0.00    +0.000 C 
ATOM      3  O   UNL     1       7.867   5.970  18.588  0.00  0.00    +0.000 OA
ATOM      4  N   UNL     1       7.421   7.877  17.354  0.00  0.00    +0.000 N 
ATOM      5  H   UNL     1       5.725   6.447  16.291  0.00  0.00    +0.000 HD
ATOM      6  H   UNL     1       6.772   8.354  16.749  0.00  0.00    +0.000 HD
ENDROOT
BRANCH   4   7
ATOM      7  N   UNL     1       8.412   8.572  17.978  0.00  0.00    +0.000 NA
ATOM      8  C   UNL     1       8.337   9.862  17.983  0.00  0.00    +0.000 C 
BRANCH   8   9
ATOM      9  C   UNL     1       9.376  10.668  18.662  0.00  0.00    +0.000 A 
ATOM     10  C   UNL     1       9.350  10.824  20.045  0.00  0.00    +0.000 A 
ATOM     11  C   UNL     1      10.325  11.618  20.637  0.00  0.00    +0.000 A 
ATOM     12  C   UNL     1      11.285  12.222  19.833  0.00  0.00    +0.000 A 
ATOM     13  C   UNL     1      11.234  12.002  18.463  0.00  0.00    +0.000 A 
ATOM     14  N   UNL     1      10.301  11.237  17.852  0.00  0.00    +0.000 NA
ENDBRANCH   8   9
ENDBRANCH   4   7
BRANCH   1  15
ATOM     15  C   UNL     1       5.866   4.562  17.260  0.00  0.00    +0.000 C 
BRANCH  15  16
ATOM     16  C   UNL     1       4.470   4.199  16.755  0.00  0.00    +0.000 C 
BRANCH  16  17
ATOM     17  C   UNL     1       3.347   4.546  17.745  0.00  0.00    +0.000 C 
BRANCH  17  19
ATOM     18  C   UNL     1       2.952   5.105  20.081  0.00  0.00    +0.000 C 
ATOM     19  N   UNL     1       3.664   4.226  19.149  0.00  0.00    +0.000 NA
ATOM     20  C   UNL     1       3.327   2.830  19.443  0.00  0.00    +0.000 C 
ENDBRANCH  17  19
ENDBRANCH  16  17
ENDBRANCH  15  16
ENDBRANCH   1  15
TORSDOF 6
ENDMDL
MODEL 8
REMARK VINA RESULT:      -5.7      4.870      7.431
REMARK  Name = 
REMARK  8 active torsions:
REMARK  status: ('A' for Active; 'I' for Inactive)
REMARK    1  A    between atoms: C_1  and  N_2
REMARK    2  A    between atoms: N_2  and  C_3
REMARK    3  A    between atoms: N_2  and  C_4
REMARK    4  A    between atoms: C_4  and  C_5
REMARK    5  A    between atoms: C_5  and  C_6
REMARK    6  A    between atoms: C_6  and  N_7
REMARK    7  A    between atoms: N_10  and  N_11
REMARK    8  A    between atoms: C_12  and  C_13
REMARK                            x       y       z     vdW  Elec       q    Type
REMARK                         _______ _______ _______ _____ _____    ______ ____
ROOT
ATOM      1  N   UNL     1       8.095   7.269  18.406  0.00  0.00    +0.000 N 
ATOM      2  C   UNL     1       6.990   6.490  18.156  0.00  0.00    +0.000 C 
ATOM      3  O   UNL     1       6.052   6.882  17.468  0.00  0.00    +0.000 OA
ATOM      4  N   UNL     1       7.065   5.240  18.749  0.00  0.00    +0.000 N 
ATOM      5  H   UNL     1       8.865   6.906  18.945  0.00  0.00    +0.000 HD
ATOM      6  H   UNL     1       7.784   5.023  19.420  0.00  0.00    +0.000 HD
ENDROOT
BRANCH   4   7
ATOM      7  N   UNL     1       6.032   4.376  18.547  0.00  0.00    +0.000 NA
ATOM      8  C   UNL     1       5.011   4.458  19.334  0.00  0.00    +0.000 C 
BRANCH   8   9
ATOM      9  C   UNL     1       3.852   3.557  19.151  0.00  0.00    +0.000 A 
ATOM     10  C   UNL     1       3.628   2.944  17.921  0.00  0.00    +0.000 A 
ATOM     11  C   UNL     1       2.508   2.133  17.784  0.00  0.00    +0.000 A 
ATOM     12  C   UNL     1       1.658   1.963  18.871  0.00  0.00    +0.000 A 
ATOM     13  C   UNL     1       1.968   2.609  20.059  0.00  0.00    +0.000 A 
ATOM     14  N   UNL     1       3.048   3.406  20.231  0.00  0.00    +0.000 NA
ENDBRANCH   8   9
ENDBRANCH   4   7
BRANCH   1  15
ATOM     15  C   UNL     1       8.202   8.607  17.858  0.00  0.00    +0.000 C 
BRANCH  15  16
ATOM     16  C   UNL     1       8.874   9.592  18.815  0.00  0.00    +0.000 C 
BRANCH  16  17
ATOM     17  C   UNL     1       9.233  10.936  18.163  0.00  0.00    +0.000 C 
BRANCH  17  19
ATOM     18  C   UNL     1      11.529  11.742  18.144  0.00  0.00    +0.000 C 
ATOM     19  N   UNL     1      10.267  11.698  18.887  0.00  0.00    +0.000 NA
ATOM     20  C   UNL     1       9.807  13.065  19.147  0.00  0.00    +0.000 C 
ENDBRANCH  17  19
ENDBRANCH  16  17
ENDBRANCH  15  16
ENDBRANCH   1  15
TORSDOF 6
ENDMDL
MODEL 9
REMARK VINA RESULT:      -5.7      5.676      6.762
REMARK  Name = 
REMARK  8 active torsions:
REMARK  status: ('A' for Active; 'I' for Inactive)
REMARK    1  A    between atoms: C_1  and  N_2
REMARK    2  A    between atoms: N_2  and  C_3
REMARK    3  A    between atoms: N_2  and  C_4
REMARK    4  A    between atoms: C_4  and  C_5
REMARK    5  A    between atoms: C_5  and  C_6
REMARK    6  A    between atoms: C_6  and  N_7
REMARK    7  A    between atoms: N_10  and  N_11
REMARK    8  A    between atoms: C_12  and  C_13
REMARK                            x       y       z     vdW  Elec       q    Type
REMARK                         _______ _______ _______ _____ _____    ______ ____
ROOT
ATOM      1  N   UNL     1       6.245   6.010  16.976  0.00  0.00    +0.000 N 
ATOM      2  C   UNL     1       7.227   6.618  17.722  0.00  0.00    +0.000 C 
ATOM      3  O   UNL     1       7.845   6.025  18.602  0.00  0.00    +0.000 OA
ATOM      4  N   UNL     1       7.436   7.939  17.366  0.00  0.00    +0.000 N 
ATOM      5  H   UNL     1       5.780   6.513  16.237  0.00  0.00    +0.000 HD
ATOM      6  H   UNL     1       6.806   8.419  16.743  0.00  0.00    +0.000 HD
ENDROOT
BRANCH   4   7
ATOM      7  N   UNL     1       8.404   8.632  18.027  0.00  0.00    +0.000 NA
ATOM      8  C   UNL     1       8.359   9.923  17.988  0.00  0.00    +0.000 C 
BRANCH   8   9
ATOM      9  C   UNL     1       9.374  10.728  18.704  0.00  0.00    +0.000 A 
ATOM     10  C   UNL     1      10.426  11.313  18.005  0.00  0.00    +0.000 A 
ATOM     11  C   UNL     1      11.375  12.032  18.722  0.00  0.00    +0.000 A 
ATOM     12  C   UNL     1      11.240  12.141  20.101  0.00  0.00    +0.000 A 
ATOM     13  C   UNL     1      10.154  11.528  20.710  0.00  0.00    +0.000 A 
ATOM     14  N   UNL     1       9.211  10.821  20.046  0.00  0.00    +0.000 NA
ENDBRANCH   8   9
ENDBRANCH   4   7
BRANCH   1  15
ATOM     15  C   UNL     1       5.893   4.622  17.197  0.00  0.00    +0.000 C 
BRANCH  15  16
ATOM     16  C   UNL     1       4.575   4.452  17.952  0.00  0.00    +0.000 C 
BRANCH  16  17
ATOM     17  C   UNL     1       3.520   5.512  17.597  0.00  0.00    +0.000 C 
BRANCH  17  19
ATOM     18  C   UNL     1       2.440   7.608  18.199  0.00  0.00    +0.000 C 
ATOM     19  N   UNL     1       3.277   6.499  18.665  0.00  0.00    +0.000 NA
ATOM     20  C   UNL     1       2.637   5.856  19.817  0.00  0.00    +0.000 C 
ENDBRANCH  17  19
ENDBRANCH  16  17
ENDBRANCH  15  16
ENDBRANCH   1  15
TORSDOF 6
ENDMDL
