MODEL 1
REMARK VINA RESULT:      -6.0      0.000      0.000
REMARK  Name = 
REMARK  3 active torsions:
REMARK  status: ('A' for Active; 'I' for Inactive)
REMARK    1  A    between atoms: C_2  and  C_3
REMARK    2  A    between atoms: C_3  and  N_4
REMARK    3  A    between atoms: N_4  and  C_5
REMARK                            x       y       z     vdW  Elec       q    Type
REMARK                         _______ _______ _______ _____ _____    ______ ____
ROOT
ATOM      1  C   UNL     1       4.223   3.629  18.448  0.00  0.00    +0.000 A 
ATOM      2  C   UNL     1       3.827   3.766  17.116  0.00  0.00    +0.000 A 
ATOM      3  C   UNL     1       2.485   3.697  16.797  0.00  0.00    +0.000 A 
ATOM      4  N   UNL     1       1.510   3.470  17.693  0.00  0.00    +0.000 NA
ATOM      5  C   UNL     1       1.868   3.288  18.971  0.00  0.00    +0.000 A 
ATOM      6  C   UNL     1       0.858   3.011  19.880  0.00  0.00    +0.000 A 
ATOM      7  C   UNL     1       1.121   2.791  21.232  0.00  0.00    +0.000 A 
ATOM      8  C   UNL     1       2.430   2.850  21.691  0.00  0.00    +0.000 A 
ATOM      9  C   UNL     1       3.465   3.127  20.794  0.00  0.00    +0.000 A 
ATOM     10  C   UNL     1       3.211   3.354  19.417  0.00  0.00    +0.000 A 
ENDROOT
BRANCH   1  11
ATOM     11  N   UNL     1       5.586   3.651  18.823  0.00  0.00    +0.000 N 
ATOM     12  H   UNL     1       5.710   3.229  19.744  0.00  0.00    +0.000 HD
BRANCH  11  13
ATOM     13  C   UNL     1       6.361   4.886  18.671  0.00  0.00    +0.000 C 
BRANCH  13  15
ATOM     14 CL   UNL     1       7.160   4.513  16.079  0.00  0.00    +0.000 Cl
ATOM     15  C   UNL     1       7.599   4.680  17.800  0.00  0.00    +0.000 C 
ENDBRANCH  13  15
ENDBRANCH  11  13
ENDBRANCH   1  11
TORSDOF 3
ENDMDL
MODEL 2
REMARK VINA RESULT:      -6.0      2.567      4.236
REMARK  Name = 
REMARK  3 active torsions:
REMARK  status: ('A' for Active; 'I' for Inactive)
REMARK    1  A    between atoms: C_2  and  C_3
REMARK    2  A    between atoms: C_3  and  N_4
REMARK    3  A    between atoms: N_4  and  C_5
REMARK                            x       y       z     vdW  Elec       q    Type
REMARK                         _______ _______ _______ _____ _____    ______ ____
ROOT
ATOM      1  C   UNL     1       6.364   5.470  16.770  0.00  0.00    +0.000 A 
ATOM      2  C   UNL     1       7.336   6.083  17.565  0.00  0.00    +0.000 A 
ATOM      3  C   UNL     1       7.356   5.835  18.924  0.00  0.00    +0.000 A 
ATOM      4  N   UNL     1       6.467   5.055  19.559  0.00  0.00    +0.000 NA
ATOM      5  C   UNL     1       5.495   4.492  18.826  0.00  0.00    +0.000 A 
ATOM      6  C   UNL     1       4.557   3.723  19.498  0.00  0.00    +0.000 A 
ATOM      7  C   UNL     1       3.497   3.105  18.835  0.00  0.00    +0.000 A 
ATOM      8  C   UNL     1       3.371   3.256  17.462  0.00  0.00    +0.000 A 
ATOM      9  C   UNL     1       4.303   4.027  16.762  0.00  0.00    +0.000 A 
ATOM     10  C   UNL     1       5.385   4.661  17.424  0.00  0.00    +0.000 A 
ENDROOT
BRANCH   1  11
ATOM     11  N   UNL     1       6.274   5.721  15.383  0.00  0.00    +0.000 N 
ATOM     12  H   UNL     1       5.298   5.808  15.098  0.00  0.00    +0.000 HD
BRANCH  11  13
ATOM     13  C   UNL     1       7.052   4.904  14.445  0.00  0.00    +0.000 C 
BRANCH  13  15
ATOM     14 CL   UNL     1       6.749   3.645  12.033  0.00  0.00    +0.000 Cl
ATOM     15  C   UNL     1       6.176   3.896  13.703  0.00  0.00    +0.000 C 
ENDBRANCH  13  15
ENDBRANCH  11  13
ENDBRANCH   1  11
TORSDOF 3
ENDMDL
MODEL 3
REMARK VINA RESULT:      -5.9      1.872      1.929
REMARK  Name = 
REMARK  3 active torsions:
REMARK  status: ('A' for Active; 'I' for Inactive)
REMARK    1  A    between atoms: C_2  and  C_3
REMARK    2  A    between atoms: C_3  and  N_4
REMARK    3  A    between atoms: N_4  and  C_5
REMARK                            x       y       z     vdW  Elec       q    Type
REMARK                         _______ _______ _______ _____ _____    ______ ____
ROOT
ATOM      1  C   UNL     1       4.706   4.759  18.699  0.00  0.00    +0.000 A 
ATOM      2  C   UNL     1       4.448   5.918  17.962  0.00  0.00    +0.000 A 
ATOM      3  C   UNL     1       3.236   6.562  18.114  0.00  0.00    +0.000 A 
ATOM      4  N   UNL     1       2.249   6.127  18.913  0.00  0.00    +0.000 NA
ATOM      5  C   UNL     1       2.452   4.992  19.595  0.00  0.00    +0.000 A 
ATOM      6  C   UNL     1       1.410   4.528  20.384  0.00  0.00    +0.000 A 
ATOM      7  C   UNL     1       1.510   3.350  21.123  0.00  0.00    +0.000 A 
ATOM      8  C   UNL     1       2.685   2.614  21.076  0.00  0.00    +0.000 A 
ATOM      9  C   UNL     1       3.749   3.058  20.288  0.00  0.00    +0.000 A 
ATOM     10  C   UNL     1       3.661   4.255  19.532  0.00  0.00    +0.000 A 
ENDROOT
BRANCH   1  11
ATOM     11  N   UNL     1       5.912   4.039  18.550  0.00  0.00    +0.000 N 
ATOM     12  H   UNL     1       6.161   3.573  19.425  0.00  0.00    +0.000 HD
BRANCH  11  13
ATOM     13  C   UNL     1       7.069   4.682  17.919  0.00  0.00    +0.000 C 
BRANCH  13  15
ATOM     14 CL   UNL     1       7.962   7.250  18.246  0.00  0.00    +0.000 Cl
ATOM     15  C   UNL     1       7.817   5.593  18.891  0.00  0.00    +0.000 C 
ENDBRANCH  13  15
ENDBRANCH  11  13
ENDBRANCH   1  11
TORSDOF 3
ENDMDL
MODEL 4
REMARK VINA RESULT:      -5.9      2.440      3.114
REMARK  Name = 
REMARK  3 active torsions:
REMARK  status: ('A' for Active; 'I' for Inactive)
REMARK    1  A    between atoms: C_2  and  C_3
REMARK    2  A    between atoms: C_3  and  N_4
REMARK    3  A    between atoms: N_4  and  C_5
REMARK                            x       y       z     vdW  Elec       q    Type
REMARK                         _______ _______ _______ _____ _____    ______ ____
ROOT
ATOM      1  C   UNL     1       5.139   4.816  17.009  0.00  0.00    +0.000 A 
ATOM      2  C   UNL     1       5.154   6.213  16.994  0.00  0.00    +0.000 A 
ATOM      3  C   UNL     1       4.058   6.907  17.467  0.00  0.00    +0.000 A 
ATOM      4  N   UNL     1       2.937   6.324  17.920  0.00  0.00    +0.000 NA
ATOM      5  C   UNL     1       2.878   4.985  17.901  0.00  0.00    +0.000 A 
ATOM      6  C   UNL     1       1.699   4.395  18.330  0.00  0.00    +0.000 A 
ATOM      7  C   UNL     1       1.526   3.011  18.338  0.00  0.00    +0.000 A 
ATOM      8  C   UNL     1       2.560   2.192  17.906  0.00  0.00    +0.000 A 
ATOM      9  C   UNL     1       3.757   2.763  17.467  0.00  0.00    +0.000 A 
ATOM     10  C   UNL     1       3.947   4.169  17.455  0.00  0.00    +0.000 A 
ENDROOT
BRANCH   1  11
ATOM     11  N   UNL     1       6.217   4.057  16.500  0.00  0.00    +0.000 N 
ATOM     12  H   UNL     1       6.962   3.983  17.195  0.00  0.00    +0.000 HD
BRANCH  11  13
ATOM     13  C   UNL     1       6.738   4.344  15.160  0.00  0.00    +0.000 C 
BRANCH  13  15
ATOM     14 CL   UNL     1       6.511   3.691  12.510  0.00  0.00    +0.000 Cl
ATOM     15  C   UNL     1       5.715   4.027  14.070  0.00  0.00    +0.000 C 
ENDBRANCH  13  15
ENDBRANCH  11  13
ENDBRANCH   1  11
TORSDOF 3
ENDMDL
MODEL 5
REMARK VINA RESULT:      -5.9      2.738      4.252
REMARK  Name = 
REMARK  3 active torsions:
REMARK  status: ('A' for Active; 'I' for Inactive)
REMARK    1  A    between atoms: C_2  and  C_3
REMARK    2  A    between atoms: C_3  and  N_4
REMARK    3  A    between atoms: N_4  and  C_5
REMARK                            x       y       z     vdW  Elec       q    Type
REMARK                         _______ _______ _______ _____ _____    ______ ____
ROOT
ATOM      1  C   UNL     1       5.875   4.198  16.032  0.00  0.00    +0.000 A 
ATOM      2  C   UNL     1       7.173   4.546  16.414  0.00  0.00    +0.000 A 
ATOM      3  C   UNL     1       7.471   4.685  17.756  0.00  0.00    +0.000 A 
ATOM      4  N   UNL     1       6.573   4.538  18.744  0.00  0.00    +0.000 NA
ATOM      5  C   UNL     1       5.310   4.250  18.402  0.00  0.00    +0.000 A 
ATOM      6  C   UNL     1       4.382   4.144  19.427  0.00  0.00    +0.000 A 
ATOM      7  C   UNL     1       3.039   3.862  19.181  0.00  0.00    +0.000 A 
ATOM      8  C   UNL     1       2.609   3.680  17.875  0.00  0.00    +0.000 A 
ATOM      9  C   UNL     1       3.523   3.783  16.824  0.00  0.00    +0.000 A 
ATOM     10  C   UNL     1       4.893   4.068  17.060  0.00  0.00    +0.000 A 
ENDROOT
BRANCH   1  11
ATOM     11  N   UNL     1       5.508   4.083  14.673  0.00  0.00    +0.000 N 
ATOM     12  H   UNL     1       4.967   3.231  14.519  0.00  0.00    +0.000 HD
BRANCH  11  13
ATOM     13  C   UNL     1       6.516   4.293  13.628  0.00  0.00    +0.000 C 
BRANCH  13  15
ATOM     14 CL   UNL     1       4.596   3.420  11.881  0.00  0.00    +0.000 Cl
ATOM     15  C   UNL     1       6.293   3.374  12.427  0.00  0.00    +0.000 C 
ENDBRANCH  13  15
ENDBRANCH  11  13
ENDBRANCH   1  11
TORSDOF 3
ENDMDL
MODEL 6
REMARK VINA RESULT:      -5.8      2.412      3.685
REMARK  Name = 
REMARK  3 active torsions:
REMARK  status: ('A' for Active; 'I' for Inactive)
REMARK    1  A    between atoms: C_2  and  C_3
REMARK    2  A    between atoms: C_3  and  N_4
REMARK    3  A    between atoms: N_4  and  C_5
REMARK                            x       y       z     vdW  Elec       q    Type
REMARK                         _______ _______ _______ _____ _____    ______ ____
ROOT
ATOM      1  C   UNL     1       5.784   4.110  17.154  0.00  0.00    +0.000 A 
ATOM      2  C   UNL     1       6.830   4.742  17.831  0.00  0.00    +0.000 A 
ATOM      3  C   UNL     1       6.570   5.399  19.018  0.00  0.00    +0.000 A 
ATOM      4  N   UNL     1       5.349   5.506  19.566  0.00  0.00    +0.000 NA
ATOM      5  C   UNL     1       4.320   4.949  18.912  0.00  0.00    +0.000 A 
ATOM      6  C   UNL     1       3.058   5.104  19.464  0.00  0.00    +0.000 A 
ATOM      7  C   UNL     1       1.917   4.577  18.859  0.00  0.00    +0.000 A 
ATOM      8  C   UNL     1       2.040   3.875  17.668  0.00  0.00    +0.000 A 
ATOM      9  C   UNL     1       3.300   3.707  17.091  0.00  0.00    +0.000 A 
ATOM     10  C   UNL     1       4.469   4.237  17.696  0.00  0.00    +0.000 A 
ENDROOT
BRANCH   1  11
ATOM     11  N   UNL     1       5.987   3.460  15.916  0.00  0.00    +0.000 N 
ATOM     12  H   UNL     1       6.511   2.594  16.049  0.00  0.00    +0.000 HD
BRANCH  11  13
ATOM     13  C   UNL     1       6.471   4.227  14.764  0.00  0.00    +0.000 C 
BRANCH  13  15
ATOM     14 CL   UNL     1       6.677   3.581  12.110  0.00  0.00    +0.000 Cl
ATOM     15  C   UNL     1       5.639   3.961  13.510  0.00  0.00    +0.000 C 
ENDBRANCH  13  15
ENDBRANCH  11  13
ENDBRANCH   1  11
TORSDOF 3
ENDMDL
MODEL 7
REMARK VINA RESULT:      -5.8      1.986      2.337
REMARK  Name = 
REMARK  3 active torsions:
REMARK  status: ('A' for Active; 'I' for Inactive)
REMARK    1  A    between atoms: C_2  and  C_3
REMARK    2  A    between atoms: C_3  and  N_4
REMARK    3  A    between atoms: N_4  and  C_5
REMARK                            x       y       z     vdW  Elec       q    Type
REMARK                         _______ _______ _______ _____ _____    ______ ____
ROOT
ATOM      1  C   UNL     1       4.962   4.787  18.532  0.00  0.00    +0.000 A 
ATOM      2  C   UNL     1       4.805   6.134  18.196  0.00  0.00    +0.000 A 
ATOM      3  C   UNL     1       3.535   6.638  17.993  0.00  0.00    +0.000 A 
ATOM      4  N   UNL     1       2.414   5.902  18.064  0.00  0.00    +0.000 NA
ATOM      5  C   UNL     1       2.541   4.596  18.338  0.00  0.00    +0.000 A 
ATOM      6  C   UNL     1       1.381   3.837  18.365  0.00  0.00    +0.000 A 
ATOM      7  C   UNL     1       1.401   2.467  18.626  0.00  0.00    +0.000 A 
ATOM      8  C   UNL     1       2.613   1.836  18.868  0.00  0.00    +0.000 A 
ATOM      9  C   UNL     1       3.796   2.579  18.844  0.00  0.00    +0.000 A 
ATOM     10  C   UNL     1       3.790   3.973  18.581  0.00  0.00    +0.000 A 
ENDROOT
BRANCH   1  11
ATOM     11  N   UNL     1       6.241   4.212  18.710  0.00  0.00    +0.000 N 
ATOM     12  H   UNL     1       6.372   3.925  19.681  0.00  0.00    +0.000 HD
BRANCH  11  13
ATOM     13  C   UNL     1       7.424   4.890  18.170  0.00  0.00    +0.000 C 
BRANCH  13  15
ATOM     14 CL   UNL     1       8.276   7.475  18.469  0.00  0.00    +0.000 Cl
ATOM     15  C   UNL     1       8.039   5.857  19.180  0.00  0.00    +0.000 C 
ENDBRANCH  13  15
ENDBRANCH  11  13
ENDBRANCH   1  11
TORSDOF 3
ENDMDL
MODEL 8
REMARK VINA RESULT:      -5.8      1.977      2.102
REMARK  Name = 
REMARK  3 active torsions:
REMARK  status: ('A' for Active; 'I' for Inactive)
REMARK    1  A    between atoms: C_2  and  C_3
REMARK    2  A    between atoms: C_3  and  N_4
REMARK    3  A    between atoms: N_4  and  C_5
REMARK                            x       y       z     vdW  Elec       q    Type
REMARK                         _______ _______ _______ _____ _____    ______ ____
ROOT
ATOM      1  C   UNL     1       4.231   4.708  18.026  0.00  0.00    +0.000 A 
ATOM      2  C   UNL     1       4.124   6.025  17.572  0.00  0.00    +0.000 A 
ATOM      3  C   UNL     1       3.215   6.876  18.170  0.00  0.00    +0.000 A 
ATOM      4  N   UNL     1       2.382   6.512  19.157  0.00  0.00    +0.000 NA
ATOM      5  C   UNL     1       2.431   5.241  19.579  0.00  0.00    +0.000 A 
ATOM      6  C   UNL     1       1.536   4.865  20.570  0.00  0.00    +0.000 A 
ATOM      7  C   UNL     1       1.493   3.565  21.071  0.00  0.00    +0.000 A 
ATOM      8  C   UNL     1       2.368   2.612  20.571  0.00  0.00    +0.000 A 
ATOM      9  C   UNL     1       3.279   2.965  19.572  0.00  0.00    +0.000 A 
ATOM     10  C   UNL     1       3.334   4.284  19.054  0.00  0.00    +0.000 A 
ENDROOT
BRANCH   1  11
ATOM     11  N   UNL     1       5.115   3.785  17.424  0.00  0.00    +0.000 N 
ATOM     12  H   UNL     1       5.889   3.568  18.053  0.00  0.00    +0.000 HD
BRANCH  11  13
ATOM     13  C   UNL     1       5.568   4.006  16.046  0.00  0.00    +0.000 C 
BRANCH  13  15
ATOM     14 CL   UNL     1       7.750   4.522  17.620  0.00  0.00    +0.000 Cl
ATOM     15  C   UNL     1       7.045   4.395  15.986  0.00  0.00    +0.000 C 
ENDBRANCH  13  15
ENDBRANCH  11  13
ENDBRANCH   1  11
TORSDOF 3
ENDMDL
MODEL 9
REMARK VINA RESULT:      -5.7      2.191      2.439
REMARK  Name = 
REMARK  3 active torsions:
REMARK  status: ('A' for Active; 'I' for Inactive)
REMARK    1  A    between atoms: C_2  and  C_3
REMARK    2  A    between atoms: C_3  and  N_4
REMARK    3  A    between atoms: N_4  and  C_5
REMARK                            x       y       z     vdW  Elec       q    Type
REMARK                         _______ _______ _______ _____ _____    ______ ____
ROOT
ATOM      1  C   UNL     1       3.715   4.858  17.551  0.00  0.00    +0.000 A 
ATOM      2  C   UNL     1       3.788   6.247  17.682  0.00  0.00    +0.000 A 
ATOM      3  C   UNL     1       3.063   6.874  18.677  0.00  0.00    +0.000 A 
ATOM      4  N   UNL     1       2.247   6.234  19.528  0.00  0.00    +0.000 NA
ATOM      5  C   UNL     1       2.122   4.906  19.394  0.00  0.00    +0.000 A 
ATOM      6  C   UNL     1       1.243   4.260  20.251  0.00  0.00    +0.000 A 
ATOM      7  C   UNL     1       1.027   2.884  20.188  0.00  0.00    +0.000 A 
ATOM      8  C   UNL     1       1.709   2.130  19.244  0.00  0.00    +0.000 A 
ATOM      9  C   UNL     1       2.599   2.756  18.369  0.00  0.00    +0.000 A 
ATOM     10  C   UNL     1       2.828   4.155  18.422  0.00  0.00    +0.000 A 
ENDROOT
BRANCH   1  11
ATOM     11  N   UNL     1       4.403   4.172  16.526  0.00  0.00    +0.000 N 
ATOM     12  H   UNL     1       4.016   3.237  16.398  0.00  0.00    +0.000 HD
BRANCH  11  13
ATOM     13  C   UNL     1       5.870   4.169  16.512  0.00  0.00    +0.000 C 
BRANCH  13  15
ATOM     14 CL   UNL     1       5.949   3.928  13.785  0.00  0.00    +0.000 Cl
ATOM     15  C   UNL     1       6.430   4.824  15.250  0.00  0.00    +0.000 C 
ENDBRANCH  13  15
ENDBRANCH  11  13
ENDBRANCH   1  11
TORSDOF 3
ENDMDL
