MODEL 1
REMARK VINA RESULT:      -8.4      0.000      0.000
REMARK  Name = 
REMARK  9 active torsions:
REMARK  status: ('A' for Active; 'I' for Inactive)
REMARK    1  A    between atoms: C_5  and  C_6
REMARK    2  A    between atoms: C_9  and  C_10
REMARK    3  A    between atoms: C_10  and  C_11
REMARK    4  A    between atoms: C_11  and  C_12
REMARK    5  A    between atoms: N_14  and  C_15
REMARK    6  A    between atoms: C_15  and  C_16
REMARK    7  A    between atoms: C_16  and  N_17
REMARK    8  A    between atoms: N_17  and  S_18
REMARK    9  A    between atoms: S_18  and  C_21
REMARK                            x       y       z     vdW  Elec       q    Type
REMARK                         _______ _______ _______ _____ _____    ______ ____
ROOT
ATOM      1  C   UNL     1       6.204   6.630  17.577  0.00  0.00    +0.000 C 
ATOM      2  O   UNL     1       6.509   5.867  18.488  0.00  0.00    +0.000 OA
ATOM      3  N   UNL     1       6.942   7.755  17.272  0.00  0.00    +0.000 N 
ATOM      4  H   UNL     1       6.682   8.317  16.471  0.00  0.00    +0.000 HD
ENDROOT
BRANCH   1   5
ATOM      5  C   UNL     1       5.022   6.392  16.653  0.00  0.00    +0.000 C 
BRANCH   5   6
ATOM      6  C   UNL     1       3.889   5.670  17.380  0.00  0.00    +0.000 C 
BRANCH   6  10
ATOM      7  C   UNL     1       1.563   8.336  19.937  0.00  0.00    +0.000 A 
ATOM      8  C   UNL     1       1.954   7.055  20.366  0.00  0.00    +0.000 A 
ATOM      9  C   UNL     1       2.702   6.200  19.545  0.00  0.00    +0.000 A 
ATOM     10  C   UNL     1       3.079   6.595  18.259  0.00  0.00    +0.000 A 
ATOM     11  C   UNL     1       2.692   7.861  17.812  0.00  0.00    +0.000 A 
ATOM     12  C   UNL     1       1.951   8.719  18.641  0.00  0.00    +0.000 A 
BRANCH   7  17
ATOM     13  N   UNL     1      -1.528  11.850  23.114  0.00  0.00    +0.000 N 
ATOM     14  C   UNL     1      -0.732  10.971  22.385  0.00  0.00    +0.000 A 
ATOM     15  C   UNL     1      -0.503   9.685  22.832  0.00  0.00    +0.000 A 
ATOM     16  C   UNL     1       0.267   8.820  22.048  0.00  0.00    +0.000 A 
ATOM     17  C   UNL     1       0.776   9.234  20.813  0.00  0.00    +0.000 A 
ATOM     18  C   UNL     1       0.473  10.552  20.463  0.00  0.00    +0.000 A 
ATOM     19  N   UNL     1      -0.257  11.421  21.214  0.00  0.00    +0.000 NA
ATOM     20  H   UNL     1      -1.237  11.917  24.081  0.00  0.00    +0.000 HD
ATOM     21  H   UNL     1      -1.501  12.746  22.637  0.00  0.00    +0.000 HD
ENDBRANCH   7  17
ENDBRANCH   6  10
ENDBRANCH   5   6
ENDBRANCH   1   5
BRANCH   3  22
ATOM     22  C   UNL     1       8.147   8.108  18.010  0.00  0.00    +0.000 C 
BRANCH  22  23
ATOM     23  C   UNL     1       8.407   9.622  18.019  0.00  0.00    +0.000 C 
BRANCH  23  24
ATOM     24  N   UNL     1       9.294  10.001  19.138  0.00  0.00    +0.000 NA
ATOM     25  H   UNL     1       9.951   9.290  19.466  0.00  0.00    +0.000 HD
BRANCH  24  26
ATOM     26  S   UNL     1      10.094  11.492  19.008  0.00  0.00    +0.000 S 
ATOM     27  O   UNL     1      11.506  11.182  19.083  0.00  0.00    +0.000 OA
ATOM     28  O   UNL     1       9.543  12.181  17.866  0.00  0.00    +0.000 OA
BRANCH  26  29
ATOM     29  C   UNL     1       9.653  12.299  20.540  0.00  0.00    +0.000 A 
ATOM     30  C   UNL     1       8.856  11.523  21.404  0.00  0.00    +0.000 A 
ATOM     31  C   UNL     1       8.412  12.041  22.613  0.00  0.00    +0.000 A 
ATOM     32  C   UNL     1       8.756  13.338  22.967  0.00  0.00    +0.000 A 
ATOM     33  C   UNL     1       9.571  14.123  22.135  0.00  0.00    +0.000 A 
ATOM     34  C   UNL     1       9.914  15.422  22.520  0.00  0.00    +0.000 A 
ATOM     35  N   UNL     1      10.706  16.255  21.814  0.00  0.00    +0.000 NA
ATOM     36  C   UNL     1      11.200  15.765  20.666  0.00  0.00    +0.000 A 
ATOM     37  C   UNL     1      10.918  14.493  20.182  0.00  0.00    +0.000 A 
ATOM     38  C   UNL     1      10.064  13.619  20.904  0.00  0.00    +0.000 A 
ENDBRANCH  26  29
ENDBRANCH  24  26
ENDBRANCH  23  24
ENDBRANCH  22  23
ENDBRANCH   3  22
TORSDOF 9
ENDMDL
MODEL 2
REMARK VINA RESULT:      -8.2      6.477      8.388
REMARK  Name = 
REMARK  9 active torsions:
REMARK  status: ('A' for Active; 'I' for Inactive)
REMARK    1  A    between atoms: C_5  and  C_6
REMARK    2  A    between atoms: C_9  and  C_10
REMARK    3  A    between atoms: C_10  and  C_11
REMARK    4  A    between atoms: C_11  and  C_12
REMARK    5  A    between atoms: N_14  and  C_15
REMARK    6  A    between atoms: C_15  and  C_16
REMARK    7  A    between atoms: C_16  and  N_17
REMARK    8  A    between atoms: N_17  and  S_18
REMARK    9  A    between atoms: S_18  and  C_21
REMARK                            x       y       z     vdW  Elec       q    Type
REMARK                         _______ _______ _______ _____ _____    ______ ____
ROOT
ATOM      1  C   UNL     1       1.626   5.815  20.044  0.00  0.00    +0.000 C 
ATOM      2  O   UNL     1       2.283   5.790  19.009  0.00  0.00    +0.000 OA
ATOM      3  N   UNL     1       0.880   4.738  20.478  0.00  0.00    +0.000 N 
ATOM      4  H   UNL     1       0.406   4.790  21.371  0.00  0.00    +0.000 HD
ENDROOT
BRANCH   1   5
ATOM      5  C   UNL     1       1.605   7.005  20.988  0.00  0.00    +0.000 C 
BRANCH   5   6
ATOM      6  C   UNL     1       1.473   8.319  20.218  0.00  0.00    +0.000 C 
BRANCH   6  10
ATOM      7  C   UNL     1      -0.917  11.291  22.343  0.00  0.00    +0.000 A 
ATOM      8  C   UNL     1      -0.641  11.408  20.969  0.00  0.00    +0.000 A 
ATOM      9  C   UNL     1       0.125  10.453  20.286  0.00  0.00    +0.000 A 
ATOM     10  C   UNL     1       0.651   9.347  20.959  0.00  0.00    +0.000 A 
ATOM     11  C   UNL     1       0.395   9.218  22.327  0.00  0.00    +0.000 A 
ATOM     12  C   UNL     1      -0.381  10.171  23.005  0.00  0.00    +0.000 A 
BRANCH   7  17
ATOM     13  N   UNL     1      -3.918  15.307  24.962  0.00  0.00    +0.000 N 
ATOM     14  C   UNL     1      -3.204  14.275  24.359  0.00  0.00    +0.000 A 
ATOM     15  C   UNL     1      -3.837  13.114  23.961  0.00  0.00    +0.000 A 
ATOM     16  C   UNL     1      -3.092  12.119  23.319  0.00  0.00    +0.000 A 
ATOM     17  C   UNL     1      -1.730  12.303  23.053  0.00  0.00    +0.000 A 
ATOM     18  C   UNL     1      -1.203  13.519  23.496  0.00  0.00    +0.000 A 
ATOM     19  N   UNL     1      -1.899  14.495  24.139  0.00  0.00    +0.000 NA
ATOM     20  H   UNL     1      -4.470  14.982  25.746  0.00  0.00    +0.000 HD
ATOM     21  H   UNL     1      -3.247  16.021  25.228  0.00  0.00    +0.000 HD
ENDBRANCH   7  17
ENDBRANCH   6  10
ENDBRANCH   5   6
ENDBRANCH   1   5
BRANCH   3  22
ATOM     22  C   UNL     1       0.834   3.487  19.734  0.00  0.00    +0.000 C 
BRANCH  22  23
ATOM     23  C   UNL     1       1.912   2.492  20.191  0.00  0.00    +0.000 C 
BRANCH  23  24
ATOM     24  N   UNL     1       3.258   2.944  19.783  0.00  0.00    +0.000 NA
ATOM     25  H   UNL     1       4.041   2.648  20.370  0.00  0.00    +0.000 HD
BRANCH  24  26
ATOM     26  S   UNL     1       3.670   2.740  18.149  0.00  0.00    +0.000 S 
ATOM     27  O   UNL     1       4.227   1.408  18.053  0.00  0.00    +0.000 OA
ATOM     28  O   UNL     1       2.523   3.126  17.362  0.00  0.00    +0.000 OA
BRANCH  26  29
ATOM     29  C   UNL     1       5.023   3.889  17.948  0.00  0.00    +0.000 A 
ATOM     30  C   UNL     1       5.484   4.467  19.147  0.00  0.00    +0.000 A 
ATOM     31  C   UNL     1       6.509   5.405  19.132  0.00  0.00    +0.000 A 
ATOM     32  C   UNL     1       7.077   5.774  17.921  0.00  0.00    +0.000 A 
ATOM     33  C   UNL     1       6.652   5.193  16.715  0.00  0.00    +0.000 A 
ATOM     34  C   UNL     1       7.249   5.573  15.509  0.00  0.00    +0.000 A 
ATOM     35  N   UNL     1       6.939   5.067  14.299  0.00  0.00    +0.000 NA
ATOM     36  C   UNL     1       5.992   4.115  14.284  0.00  0.00    +0.000 A 
ATOM     37  C   UNL     1       5.326   3.668  15.418  0.00  0.00    +0.000 A 
ATOM     38  C   UNL     1       5.626   4.214  16.693  0.00  0.00    +0.000 A 
ENDBRANCH  26  29
ENDBRANCH  24  26
ENDBRANCH  23  24
ENDBRANCH  22  23
ENDBRANCH   3  22
TORSDOF 9
ENDMDL
MODEL 3
REMARK VINA RESULT:      -8.1      1.661      2.072
REMARK  Name = 
REMARK  9 active torsions:
REMARK  status: ('A' for Active; 'I' for Inactive)
REMARK    1  A    between atoms: C_5  and  C_6
REMARK    2  A    between atoms: C_9  and  C_10
REMARK    3  A    between atoms: C_10  and  C_11
REMARK    4  A    between atoms: C_11  and  C_12
REMARK    5  A    between atoms: N_14  and  C_15
REMARK    6  A    between atoms: C_15  and  C_16
REMARK    7  A    between atoms: C_16  and  N_17
REMARK    8  A    between atoms: N_17  and  S_18
REMARK    9  A    between atoms: S_18  and  C_21
REMARK                            x       y       z     vdW  Elec       q    Type
REMARK                         _______ _______ _______ _____ _____    ______ ____
ROOT
ATOM      1  C   UNL     1       6.595   6.865  17.476  0.00  0.00    +0.000 C 
ATOM      2  O   UNL     1       6.952   6.097  18.364  0.00  0.00    +0.000 OA
ATOM      3  N   UNL     1       7.187   8.094  17.274  0.00  0.00    +0.000 N 
ATOM      4  H   UNL     1       6.897   8.663  16.488  0.00  0.00    +0.000 HD
ENDROOT
BRANCH   1   5
ATOM      5  C   UNL     1       5.508   6.526  16.471  0.00  0.00    +0.000 C 
BRANCH   5   6
ATOM      6  C   UNL     1       4.377   5.734  17.126  0.00  0.00    +0.000 C 
BRANCH   6  10
ATOM      7  C   UNL     1       1.838   8.219  19.663  0.00  0.00    +0.000 A 
ATOM      8  C   UNL     1       2.297   6.958  20.084  0.00  0.00    +0.000 A 
ATOM      9  C   UNL     1       3.113   6.161  19.270  0.00  0.00    +0.000 A 
ATOM     10  C   UNL     1       3.494   6.596  17.998  0.00  0.00    +0.000 A 
ATOM     11  C   UNL     1       3.040   7.843  17.559  0.00  0.00    +0.000 A 
ATOM     12  C   UNL     1       2.231   8.642  18.381  0.00  0.00    +0.000 A 
BRANCH   7  17
ATOM     13  N   UNL     1      -1.280  11.441  23.112  0.00  0.00    +0.000 N 
ATOM     14  C   UNL     1      -0.568  10.629  22.233  0.00  0.00    +0.000 A 
ATOM     15  C   UNL     1      -0.766  10.716  20.870  0.00  0.00    +0.000 A 
ATOM     16  C   UNL     1       0.001   9.914  20.019  0.00  0.00    +0.000 A 
ATOM     17  C   UNL     1       0.979   9.055  20.533  0.00  0.00    +0.000 A 
ATOM     18  C   UNL     1       1.094   9.059  21.925  0.00  0.00    +0.000 A 
ATOM     19  N   UNL     1       0.348   9.814  22.777  0.00  0.00    +0.000 NA
ATOM     20  H   UNL     1      -2.279  11.394  22.951  0.00  0.00    +0.000 HD
ATOM     21  H   UNL     1      -1.025  11.161  24.054  0.00  0.00    +0.000 HD
ENDBRANCH   7  17
ENDBRANCH   6  10
ENDBRANCH   5   6
ENDBRANCH   1   5
BRANCH   3  22
ATOM     22  C   UNL     1       8.292   8.561  18.101  0.00  0.00    +0.000 C 
BRANCH  22  23
ATOM     23  C   UNL     1       8.447  10.089  18.066  0.00  0.00    +0.000 C 
BRANCH  23  24
ATOM     24  N   UNL     1       9.321  10.560  19.160  0.00  0.00    +0.000 NA
ATOM     25  H   UNL     1       9.692   9.847  19.792  0.00  0.00    +0.000 HD
BRANCH  24  26
ATOM     26  S   UNL     1      10.558  11.641  18.739  0.00  0.00    +0.000 S 
ATOM     27  O   UNL     1      11.603  11.437  19.720  0.00  0.00    +0.000 OA
ATOM     28  O   UNL     1      10.819  11.473  17.329  0.00  0.00    +0.000 OA
BRANCH  26  29
ATOM     29  C   UNL     1       9.817  13.229  19.087  0.00  0.00    +0.000 A 
ATOM     30  C   UNL     1       8.843  13.210  20.105  0.00  0.00    +0.000 A 
ATOM     31  C   UNL     1       8.162  14.369  20.454  0.00  0.00    +0.000 A 
ATOM     32  C   UNL     1       8.443  15.553  19.786  0.00  0.00    +0.000 A 
ATOM     33  C   UNL     1       9.427  15.602  18.785  0.00  0.00    +0.000 A 
ATOM     34  C   UNL     1       9.701  16.809  18.135  0.00  0.00    +0.000 A 
ATOM     35  N   UNL     1      10.636  16.978  17.179  0.00  0.00    +0.000 NA
ATOM     36  C   UNL     1      11.355  15.891  16.859  0.00  0.00    +0.000 A 
ATOM     37  C   UNL     1      11.162  14.639  17.432  0.00  0.00    +0.000 A 
ATOM     38  C   UNL     1      10.161  14.445  18.419  0.00  0.00    +0.000 A 
ENDBRANCH  26  29
ENDBRANCH  24  26
ENDBRANCH  23  24
ENDBRANCH  22  23
ENDBRANCH   3  22
TORSDOF 9
ENDMDL
MODEL 4
REMARK VINA RESULT:      -8.0      7.283     11.706
REMARK  Name = 
REMARK  9 active torsions:
REMARK  status: ('A' for Active; 'I' for Inactive)
REMARK    1  A    between atoms: C_5  and  C_6
REMARK    2  A    between atoms: C_9  and  C_10
REMARK    3  A    between atoms: C_10  and  C_11
REMARK    4  A    between atoms: C_11  and  C_12
REMARK    5  A    between atoms: N_14  and  C_15
REMARK    6  A    between atoms: C_15  and  C_16
REMARK    7  A    between atoms: C_16  and  N_17
REMARK    8  A    between atoms: N_17  and  S_18
REMARK    9  A    between atoms: S_18  and  C_21
REMARK                            x       y       z     vdW  Elec       q    Type
REMARK                         _______ _______ _______ _____ _____    ______ ____
ROOT
ATOM      1  C   UNL     1      -0.061  11.691  21.829  0.00  0.00    +0.000 C 
ATOM      2  O   UNL     1       0.081  12.642  21.067  0.00  0.00    +0.000 OA
ATOM      3  N   UNL     1      -0.866  11.749  22.947  0.00  0.00    +0.000 N 
ATOM      4  H   UNL     1      -0.998  10.916  23.508  0.00  0.00    +0.000 HD
ENDROOT
BRANCH   1   5
ATOM      5  C   UNL     1       0.583  10.335  21.596  0.00  0.00    +0.000 C 
BRANCH   5   6
ATOM      6  C   UNL     1       0.890  10.116  20.115  0.00  0.00    +0.000 C 
BRANCH   6  10
ATOM      7  C   UNL     1       2.238   6.055  19.249  0.00  0.00    +0.000 A 
ATOM      8  C   UNL     1       2.364   7.093  18.309  0.00  0.00    +0.000 A 
ATOM      9  C   UNL     1       1.933   8.397  18.588  0.00  0.00    +0.000 A 
ATOM     10  C   UNL     1       1.350   8.708  19.819  0.00  0.00    +0.000 A 
ATOM     11  C   UNL     1       1.208   7.687  20.763  0.00  0.00    +0.000 A 
ATOM     12  C   UNL     1       1.650   6.385  20.484  0.00  0.00    +0.000 A 
BRANCH   7  17
ATOM     13  N   UNL     1       4.082   0.795  18.286  0.00  0.00    +0.000 N 
ATOM     14  C   UNL     1       3.618   2.096  18.459  0.00  0.00    +0.000 A 
ATOM     15  C   UNL     1       2.416   2.499  17.912  0.00  0.00    +0.000 A 
ATOM     16  C   UNL     1       1.964   3.802  18.146  0.00  0.00    +0.000 A 
ATOM     17  C   UNL     1       2.700   4.681  18.947  0.00  0.00    +0.000 A 
ATOM     18  C   UNL     1       3.894   4.161  19.451  0.00  0.00    +0.000 A 
ATOM     19  N   UNL     1       4.367   2.904  19.224  0.00  0.00    +0.000 NA
ATOM     20  H   UNL     1       4.089   0.518  17.312  0.00  0.00    +0.000 HD
ATOM     21  H   UNL     1       5.003   0.746  18.710  0.00  0.00    +0.000 HD
ENDBRANCH   7  17
ENDBRANCH   6  10
ENDBRANCH   5   6
ENDBRANCH   1   5
BRANCH   3  22
ATOM     22  C   UNL     1      -1.616  12.949  23.294  0.00  0.00    +0.000 C 
BRANCH  22  23
ATOM     23  C   UNL     1      -3.078  12.644  23.654  0.00  0.00    +0.000 C 
BRANCH  23  24
ATOM     24  N   UNL     1      -3.849  12.251  22.457  0.00  0.00    +0.000 NA
ATOM     25  H   UNL     1      -4.372  11.374  22.515  0.00  0.00    +0.000 HD
BRANCH  24  26
ATOM     26  S   UNL     1      -4.824  13.445  21.750  0.00  0.00    +0.000 S 
ATOM     27  O   UNL     1      -5.965  13.587  22.629  0.00  0.00    +0.000 OA
ATOM     28  O   UNL     1      -3.975  14.572  21.445  0.00  0.00    +0.000 OA
BRANCH  26  29
ATOM     29  C   UNL     1      -5.405  12.638  20.265  0.00  0.00    +0.000 A 
ATOM     30  C   UNL     1      -6.806  12.521  20.172  0.00  0.00    +0.000 A 
ATOM     31  C   UNL     1      -7.392  11.882  19.087  0.00  0.00    +0.000 A 
ATOM     32  C   UNL     1      -6.584  11.352  18.090  0.00  0.00    +0.000 A 
ATOM     33  C   UNL     1      -5.187  11.479  18.148  0.00  0.00    +0.000 A 
ATOM     34  C   UNL     1      -4.396  10.947  17.125  0.00  0.00    +0.000 A 
ATOM     35  N   UNL     1      -3.051  11.029  17.065  0.00  0.00    +0.000 NA
ATOM     36  C   UNL     1      -2.456  11.691  18.069  0.00  0.00    +0.000 A 
ATOM     37  C   UNL     1      -3.141  12.250  19.141  0.00  0.00    +0.000 A 
ATOM     38  C   UNL     1      -4.554  12.146  19.228  0.00  0.00    +0.000 A 
ENDBRANCH  26  29
ENDBRANCH  24  26
ENDBRANCH  23  24
ENDBRANCH  22  23
ENDBRANCH   3  22
TORSDOF 9
ENDMDL
MODEL 5
REMARK VINA RESULT:      -8.0      6.338      8.390
REMARK  Name = 
REMARK  9 active torsions:
REMARK  status: ('A' for Active; 'I' for Inactive)
REMARK    1  A    between atoms: C_5  and  C_6
REMARK    2  A    between atoms: C_9  and  C_10
REMARK    3  A    between atoms: C_10  and  C_11
REMARK    4  A    between atoms: C_11  and  C_12
REMARK    5  A    between atoms: N_14  and  C_15
REMARK    6  A    between atoms: C_15  and  C_16
REMARK    7  A    between atoms: C_16  and  N_17
REMARK    8  A    between atoms: N_17  and  S_18
REMARK    9  A    between atoms: S_18  and  C_21
REMARK                            x       y       z     vdW  Elec       q    Type
REMARK                         _______ _______ _______ _____ _____    ______ ____
ROOT
ATOM      1  C   UNL     1       1.662   8.773  18.818  0.00  0.00    +0.000 C 
ATOM      2  O   UNL     1       1.699   8.502  20.014  0.00  0.00    +0.000 OA
ATOM      3  N   UNL     1       2.265   7.986  17.858  0.00  0.00    +0.000 N 
ATOM      4  H   UNL     1       2.152   8.220  16.880  0.00  0.00    +0.000 HD
ENDROOT
BRANCH   1   5
ATOM      5  C   UNL     1       0.905   9.965  18.257  0.00  0.00    +0.000 C 
BRANCH   5   6
ATOM      6  C   UNL     1       1.139  11.215  19.105  0.00  0.00    +0.000 C 
BRANCH   6  10
ATOM      7  C   UNL     1      -2.320  12.226  21.569  0.00  0.00    +0.000 A 
ATOM      8  C   UNL     1      -2.246  12.589  20.212  0.00  0.00    +0.000 A 
ATOM      9  C   UNL     1      -1.136  12.263  19.421  0.00  0.00    +0.000 A 
ATOM     10  C   UNL     1      -0.053  11.567  19.963  0.00  0.00    +0.000 A 
ATOM     11  C   UNL     1      -0.104  11.206  21.313  0.00  0.00    +0.000 A 
ATOM     12  C   UNL     1      -1.222  11.525  22.099  0.00  0.00    +0.000 A 
BRANCH   7  17
ATOM     13  N   UNL     1      -6.947  13.475  24.573  0.00  0.00    +0.000 N 
ATOM     14  C   UNL     1      -5.773  13.203  23.876  0.00  0.00    +0.000 A 
ATOM     15  C   UNL     1      -4.655  12.723  24.530  0.00  0.00    +0.000 A 
ATOM     16  C   UNL     1      -3.510  12.421  23.786  0.00  0.00    +0.000 A 
ATOM     17  C   UNL     1      -3.499  12.571  22.395  0.00  0.00    +0.000 A 
ATOM     18  C   UNL     1      -4.688  13.056  21.845  0.00  0.00    +0.000 A 
ATOM     19  N   UNL     1      -5.810  13.376  22.546  0.00  0.00    +0.000 NA
ATOM     20  H   UNL     1      -6.786  14.076  25.372  0.00  0.00    +0.000 HD
ATOM     21  H   UNL     1      -7.603  13.876  23.911  0.00  0.00    +0.000 HD
ENDBRANCH   7  17
ENDBRANCH   6  10
ENDBRANCH   5   6
ENDBRANCH   1   5
BRANCH   3  22
ATOM     22  C   UNL     1       2.981   6.765  18.204  0.00  0.00    +0.000 C 
BRANCH  22  23
ATOM     23  C   UNL     1       2.038   5.567  18.397  0.00  0.00    +0.000 C 
BRANCH  23  24
ATOM     24  N   UNL     1       2.521   4.386  17.652  0.00  0.00    +0.000 NA
ATOM     25  H   UNL     1       2.803   4.538  16.682  0.00  0.00    +0.000 HD
BRANCH  24  26
ATOM     26  S   UNL     1       3.672   3.411  18.429  0.00  0.00    +0.000 S 
ATOM     27  O   UNL     1       3.408   3.552  19.845  0.00  0.00    +0.000 OA
ATOM     28  O   UNL     1       3.641   2.115  17.792  0.00  0.00    +0.000 OA
BRANCH  26  29
ATOM     29  C   UNL     1       5.199   4.275  18.092  0.00  0.00    +0.000 A 
ATOM     30  C   UNL     1       5.852   4.777  19.234  0.00  0.00    +0.000 A 
ATOM     31  C   UNL     1       7.031   5.501  19.114  0.00  0.00    +0.000 A 
ATOM     32  C   UNL     1       7.565   5.731  17.853  0.00  0.00    +0.000 A 
ATOM     33  C   UNL     1       6.946   5.219  16.702  0.00  0.00    +0.000 A 
ATOM     34  C   UNL     1       7.509   5.454  15.444  0.00  0.00    +0.000 A 
ATOM     35  N   UNL     1       7.016   4.993  14.277  0.00  0.00    +0.000 NA
ATOM     36  C   UNL     1       5.908   4.241  14.362  0.00  0.00    +0.000 A 
ATOM     37  C   UNL     1       5.259   3.951  15.556  0.00  0.00    +0.000 A 
ATOM     38  C   UNL     1       5.754   4.454  16.787  0.00  0.00    +0.000 A 
ENDBRANCH  26  29
ENDBRANCH  24  26
ENDBRANCH  23  24
ENDBRANCH  22  23
ENDBRANCH   3  22
TORSDOF 9
ENDMDL
MODEL 6
REMARK VINA RESULT:      -8.0      6.413      8.809
REMARK  Name = 
REMARK  9 active torsions:
REMARK  status: ('A' for Active; 'I' for Inactive)
REMARK    1  A    between atoms: C_5  and  C_6
REMARK    2  A    between atoms: C_9  and  C_10
REMARK    3  A    between atoms: C_10  and  C_11
REMARK    4  A    between atoms: C_11  and  C_12
REMARK    5  A    between atoms: N_14  and  C_15
REMARK    6  A    between atoms: C_15  and  C_16
REMARK    7  A    between atoms: C_16  and  N_17
REMARK    8  A    between atoms: N_17  and  S_18
REMARK    9  A    between atoms: S_18  and  C_21
REMARK                            x       y       z     vdW  Elec       q    Type
REMARK                         _______ _______ _______ _____ _____    ______ ____
ROOT
ATOM      1  C   UNL     1       1.328   8.186  20.611  0.00  0.00    +0.000 C 
ATOM      2  O   UNL     1       1.505   8.664  19.495  0.00  0.00    +0.000 OA
ATOM      3  N   UNL     1       1.701   6.898  20.935  0.00  0.00    +0.000 N 
ATOM      4  H   UNL     1       1.589   6.573  21.887  0.00  0.00    +0.000 HD
ENDROOT
BRANCH   1   5
ATOM      5  C   UNL     1       0.736   8.971  21.768  0.00  0.00    +0.000 C 
BRANCH   5   6
ATOM      6  C   UNL     1       0.801  10.476  21.506  0.00  0.00    +0.000 C 
BRANCH   6  10
ATOM      7  C   UNL     1      -3.008  12.481  22.235  0.00  0.00    +0.000 A 
ATOM      8  C   UNL     1      -2.287  11.861  23.272  0.00  0.00    +0.000 A 
ATOM      9  C   UNL     1      -1.064  11.219  23.038  0.00  0.00    +0.000 A 
ATOM     10  C   UNL     1      -0.520  11.166  21.752  0.00  0.00    +0.000 A 
ATOM     11  C   UNL     1      -1.226  11.769  20.707  0.00  0.00    +0.000 A 
ATOM     12  C   UNL     1      -2.447  12.420  20.947  0.00  0.00    +0.000 A 
BRANCH   7  17
ATOM     13  N   UNL     1      -7.830  15.252  23.265  0.00  0.00    +0.000 N 
ATOM     14  C   UNL     1      -6.677  14.514  23.013  0.00  0.00    +0.000 A 
ATOM     15  C   UNL     1      -6.642  13.578  21.998  0.00  0.00    +0.000 A 
ATOM     16  C   UNL     1      -5.451  12.889  21.749  0.00  0.00    +0.000 A 
ATOM     17  C   UNL     1      -4.298  13.160  22.493  0.00  0.00    +0.000 A 
ATOM     18  C   UNL     1      -4.452  14.131  23.487  0.00  0.00    +0.000 A 
ATOM     19  N   UNL     1      -5.603  14.803  23.763  0.00  0.00    +0.000 NA
ATOM     20  H   UNL     1      -8.645  14.662  23.374  0.00  0.00    +0.000 HD
ATOM     21  H   UNL     1      -7.649  15.820  24.087  0.00  0.00    +0.000 HD
ENDBRANCH   7  17
ENDBRANCH   6  10
ENDBRANCH   5   6
ENDBRANCH   1   5
BRANCH   3  22
ATOM     22  C   UNL     1       2.345   6.018  19.969  0.00  0.00    +0.000 C 
BRANCH  22  23
ATOM     23  C   UNL     1       1.951   4.546  20.163  0.00  0.00    +0.000 C 
BRANCH  23  24
ATOM     24  N   UNL     1       3.094   3.650  19.895  0.00  0.00    +0.000 NA
ATOM     25  H   UNL     1       3.128   2.776  20.423  0.00  0.00    +0.000 HD
BRANCH  24  26
ATOM     26  S   UNL     1       3.457   3.340  18.267  0.00  0.00    +0.000 S 
ATOM     27  O   UNL     1       3.746   1.923  18.196  0.00  0.00    +0.000 OA
ATOM     28  O   UNL     1       2.405   3.925  17.470  0.00  0.00    +0.000 OA
BRANCH  26  29
ATOM     29  C   UNL     1       5.007   4.202  18.047  0.00  0.00    +0.000 A 
ATOM     30  C   UNL     1       5.601   4.652  19.242  0.00  0.00    +0.000 A 
ATOM     31  C   UNL     1       6.791   5.368  19.215  0.00  0.00    +0.000 A 
ATOM     32  C   UNL     1       7.393   5.643  17.995  0.00  0.00    +0.000 A 
ATOM     33  C   UNL     1       6.834   5.182  16.792  0.00  0.00    +0.000 A 
ATOM     34  C   UNL     1       7.466   5.462  15.577  0.00  0.00    +0.000 A 
ATOM     35  N   UNL     1       7.033   5.053  14.367  0.00  0.00    +0.000 NA
ATOM     36  C   UNL     1       5.916   4.308  14.362  0.00  0.00    +0.000 A 
ATOM     37  C   UNL     1       5.201   3.978  15.507  0.00  0.00    +0.000 A 
ATOM     38  C   UNL     1       5.633   4.427  16.782  0.00  0.00    +0.000 A 
ENDBRANCH  26  29
ENDBRANCH  24  26
ENDBRANCH  23  24
ENDBRANCH  22  23
ENDBRANCH   3  22
TORSDOF 9
ENDMDL
MODEL 7
REMARK VINA RESULT:      -8.0      6.299      8.335
REMARK  Name = 
REMARK  9 active torsions:
REMARK  status: ('A' for Active; 'I' for Inactive)
REMARK    1  A    between atoms: C_5  and  C_6
REMARK    2  A    between atoms: C_9  and  C_10
REMARK    3  A    between atoms: C_10  and  C_11
REMARK    4  A    between atoms: C_11  and  C_12
REMARK    5  A    between atoms: N_14  and  C_15
REMARK    6  A    between atoms: C_15  and  C_16
REMARK    7  A    between atoms: C_16  and  N_17
REMARK    8  A    between atoms: N_17  and  S_18
REMARK    9  A    between atoms: S_18  and  C_21
REMARK                            x       y       z     vdW  Elec       q    Type
REMARK                         _______ _______ _______ _____ _____    ______ ____
ROOT
ATOM      1  C   UNL     1       2.113   7.141  19.810  0.00  0.00    +0.000 C 
ATOM      2  O   UNL     1       2.791   6.865  18.825  0.00  0.00    +0.000 OA
ATOM      3  N   UNL     1       1.836   6.224  20.803  0.00  0.00    +0.000 N 
ATOM      4  H   UNL     1       1.324   6.521  21.624  0.00  0.00    +0.000 HD
ENDROOT
BRANCH   1   5
ATOM      5  C   UNL     1       1.553   8.529  20.072  0.00  0.00    +0.000 C 
BRANCH   5   6
ATOM      6  C   UNL     1       1.622   8.880  21.558  0.00  0.00    +0.000 C 
BRANCH   6  10
ATOM      7  C   UNL     1      -1.420  11.770  22.764  0.00  0.00    +0.000 A 
ATOM      8  C   UNL     1      -1.247  10.550  23.443  0.00  0.00    +0.000 A 
ATOM      9  C   UNL     1      -0.269   9.623  23.056  0.00  0.00    +0.000 A 
ATOM     10  C   UNL     1       0.568   9.882  21.968  0.00  0.00    +0.000 A 
ATOM     11  C   UNL     1       0.405  11.084  21.275  0.00  0.00    +0.000 A 
ATOM     12  C   UNL     1      -0.569  12.014  21.671  0.00  0.00    +0.000 A 
BRANCH   7  17
ATOM     13  N   UNL     1      -5.311  15.613  24.205  0.00  0.00    +0.000 N 
ATOM     14  C   UNL     1      -4.363  14.639  23.908  0.00  0.00    +0.000 A 
ATOM     15  C   UNL     1      -4.652  13.297  24.064  0.00  0.00    +0.000 A 
ATOM     16  C   UNL     1      -3.686  12.348  23.713  0.00  0.00    +0.000 A 
ATOM     17  C   UNL     1      -2.453  12.744  23.183  0.00  0.00    +0.000 A 
ATOM     18  C   UNL     1      -2.278  14.125  23.065  0.00  0.00    +0.000 A 
ATOM     19  N   UNL     1      -3.192  15.070  23.416  0.00  0.00    +0.000 NA
ATOM     20  H   UNL     1      -5.702  15.497  25.132  0.00  0.00    +0.000 HD
ATOM     21  H   UNL     1      -4.863  16.516  24.083  0.00  0.00    +0.000 HD
ENDBRANCH   7  17
ENDBRANCH   6  10
ENDBRANCH   5   6
ENDBRANCH   1   5
BRANCH   3  22
ATOM     22  C   UNL     1       2.345   4.860  20.754  0.00  0.00    +0.000 C 
BRANCH  22  23
ATOM     23  C   UNL     1       1.598   3.991  19.730  0.00  0.00    +0.000 C 
BRANCH  23  24
ATOM     24  N   UNL     1       2.403   3.798  18.508  0.00  0.00    +0.000 NA
ATOM     25  H   UNL     1       2.627   4.636  17.967  0.00  0.00    +0.000 HD
BRANCH  24  26
ATOM     26  S   UNL     1       3.790   2.832  18.651  0.00  0.00    +0.000 S 
ATOM     27  O   UNL     1       3.872   2.476  20.052  0.00  0.00    +0.000 OA
ATOM     28  O   UNL     1       3.718   1.816  17.628  0.00  0.00    +0.000 OA
BRANCH  26  29
ATOM     29  C   UNL     1       5.106   3.997  18.330  0.00  0.00    +0.000 A 
ATOM     30  C   UNL     1       5.699   4.544  19.484  0.00  0.00    +0.000 A 
ATOM     31  C   UNL     1       6.711   5.490  19.380  0.00  0.00    +0.000 A 
ATOM     32  C   UNL     1       7.134   5.900  18.123  0.00  0.00    +0.000 A 
ATOM     33  C   UNL     1       6.575   5.351  16.957  0.00  0.00    +0.000 A 
ATOM     34  C   UNL     1       7.027   5.772  15.703  0.00  0.00    +0.000 A 
ATOM     35  N   UNL     1       6.581   5.299  14.522  0.00  0.00    +0.000 NA
ATOM     36  C   UNL     1       5.644   4.341  14.587  0.00  0.00    +0.000 A 
ATOM     37  C   UNL     1       5.115   3.854  15.777  0.00  0.00    +0.000 A 
ATOM     38  C   UNL     1       5.558   4.365  17.024  0.00  0.00    +0.000 A 
ENDBRANCH  26  29
ENDBRANCH  24  26
ENDBRANCH  23  24
ENDBRANCH  22  23
ENDBRANCH   3  22
TORSDOF 9
ENDMDL
MODEL 8
REMARK VINA RESULT:      -8.0      6.753     10.028
REMARK  Name = 
REMARK  9 active torsions:
REMARK  status: ('A' for Active; 'I' for Inactive)
REMARK    1  A    between atoms: C_5  and  C_6
REMARK    2  A    between atoms: C_9  and  C_10
REMARK    3  A    between atoms: C_10  and  C_11
REMARK    4  A    between atoms: C_11  and  C_12
REMARK    5  A    between atoms: N_14  and  C_15
REMARK    6  A    between atoms: C_15  and  C_16
REMARK    7  A    between atoms: C_16  and  N_17
REMARK    8  A    between atoms: N_17  and  S_18
REMARK    9  A    between atoms: S_18  and  C_21
REMARK                            x       y       z     vdW  Elec       q    Type
REMARK                         _______ _______ _______ _____ _____    ______ ____
ROOT
ATOM      1  C   UNL     1       1.554   4.540  20.918  0.00  0.00    +0.000 C 
ATOM      2  O   UNL     1       2.524   4.427  21.660  0.00  0.00    +0.000 OA
ATOM      3  N   UNL     1       1.099   5.763  20.470  0.00  0.00    +0.000 N 
ATOM      4  H   UNL     1       0.333   5.796  19.808  0.00  0.00    +0.000 HD
ENDROOT
BRANCH   1   5
ATOM      5  C   UNL     1       0.786   3.351  20.366  0.00  0.00    +0.000 C 
BRANCH   5   6
ATOM      6  C   UNL     1       1.736   2.275  19.841  0.00  0.00    +0.000 C 
BRANCH   6  10
ATOM      7  C   UNL     1       4.573   3.803  16.895  0.00  0.00    +0.000 A 
ATOM      8  C   UNL     1       4.994   3.318  18.147  0.00  0.00    +0.000 A 
ATOM      9  C   UNL     1       4.083   2.826  19.092  0.00  0.00    +0.000 A 
ATOM     10  C   UNL     1       2.713   2.810  18.820  0.00  0.00    +0.000 A 
ATOM     11  C   UNL     1       2.274   3.295  17.585  0.00  0.00    +0.000 A 
ATOM     12  C   UNL     1       3.191   3.778  16.638  0.00  0.00    +0.000 A 
BRANCH   7  17
ATOM     13  N   UNL     1       8.426   5.765  13.250  0.00  0.00    +0.000 N 
ATOM     14  C   UNL     1       7.432   5.296  14.103  0.00  0.00    +0.000 A 
ATOM     15  C   UNL     1       6.491   4.386  13.663  0.00  0.00    +0.000 A 
ATOM     16  C   UNL     1       5.535   3.907  14.565  0.00  0.00    +0.000 A 
ATOM     17  C   UNL     1       5.544   4.316  15.902  0.00  0.00    +0.000 A 
ATOM     18  C   UNL     1       6.546   5.232  16.232  0.00  0.00    +0.000 A 
ATOM     19  N   UNL     1       7.476   5.729  15.372  0.00  0.00    +0.000 NA
ATOM     20  H   UNL     1       8.048   6.122  12.381  0.00  0.00    +0.000 HD
ATOM     21  H   UNL     1       8.955   6.466  13.760  0.00  0.00    +0.000 HD
ENDBRANCH   7  17
ENDBRANCH   6  10
ENDBRANCH   5   6
ENDBRANCH   1   5
BRANCH   3  22
ATOM     22  C   UNL     1       1.753   7.010  20.843  0.00  0.00    +0.000 C 
BRANCH  22  23
ATOM     23  C   UNL     1       0.748   8.133  21.140  0.00  0.00    +0.000 C 
BRANCH  23  24
ATOM     24  N   UNL     1       1.200   9.417  20.565  0.00  0.00    +0.000 NA
ATOM     25  H   UNL     1       1.167   9.502  19.548  0.00  0.00    +0.000 HD
BRANCH  24  26
ATOM     26  S   UNL     1       0.583  10.830  21.271  0.00  0.00    +0.000 S 
ATOM     27  O   UNL     1       0.098  10.433  22.576  0.00  0.00    +0.000 OA
ATOM     28  O   UNL     1       1.587  11.858  21.133  0.00  0.00    +0.000 OA
BRANCH  26  29
ATOM     29  C   UNL     1      -0.851  11.170  20.262  0.00  0.00    +0.000 A 
ATOM     30  C   UNL     1      -0.842  10.543  19.000  0.00  0.00    +0.000 A 
ATOM     31  C   UNL     1      -1.878  10.749  18.099  0.00  0.00    +0.000 A 
ATOM     32  C   UNL     1      -2.929  11.585  18.449  0.00  0.00    +0.000 A 
ATOM     33  C   UNL     1      -2.974  12.202  19.711  0.00  0.00    +0.000 A 
ATOM     34  C   UNL     1      -4.050  13.030  20.044  0.00  0.00    +0.000 A 
ATOM     35  N   UNL     1      -4.209  13.653  21.229  0.00  0.00    +0.000 NA
ATOM     36  C   UNL     1      -3.254  13.428  22.145  0.00  0.00    +0.000 A 
ATOM     37  C   UNL     1      -2.137  12.632  21.919  0.00  0.00    +0.000 A 
ATOM     38  C   UNL     1      -1.947  11.995  20.666  0.00  0.00    +0.000 A 
ENDBRANCH  26  29
ENDBRANCH  24  26
ENDBRANCH  23  24
ENDBRANCH  22  23
ENDBRANCH   3  22
TORSDOF 9
ENDMDL
MODEL 9
REMARK VINA RESULT:      -8.0      3.837      9.645
REMARK  Name = 
REMARK  9 active torsions:
REMARK  status: ('A' for Active; 'I' for Inactive)
REMARK    1  A    between atoms: C_5  and  C_6
REMARK    2  A    between atoms: C_9  and  C_10
REMARK    3  A    between atoms: C_10  and  C_11
REMARK    4  A    between atoms: C_11  and  C_12
REMARK    5  A    between atoms: N_14  and  C_15
REMARK    6  A    between atoms: C_15  and  C_16
REMARK    7  A    between atoms: C_16  and  N_17
REMARK    8  A    between atoms: N_17  and  S_18
REMARK    9  A    between atoms: S_18  and  C_21
REMARK                            x       y       z     vdW  Elec       q    Type
REMARK                         _______ _______ _______ _____ _____    ______ ____
ROOT
ATOM      1  C   UNL     1       9.130  10.750  18.577  0.00  0.00    +0.000 C 
ATOM      2  O   UNL     1       8.725  11.464  17.665  0.00  0.00    +0.000 OA
ATOM      3  N   UNL     1       8.745   9.433  18.716  0.00  0.00    +0.000 N 
ATOM      4  H   UNL     1       9.157   8.870  19.450  0.00  0.00    +0.000 HD
ENDROOT
BRANCH   1   5
ATOM      5  C   UNL     1      10.139  11.216  19.613  0.00  0.00    +0.000 C 
BRANCH   5   6
ATOM      6  C   UNL     1      10.033  12.722  19.849  0.00  0.00    +0.000 C 
BRANCH   6  10
ATOM      7  C   UNL     1       8.090  13.679  23.639  0.00  0.00    +0.000 A 
ATOM      8  C   UNL     1       8.115  12.368  23.131  0.00  0.00    +0.000 A 
ATOM      9  C   UNL     1       8.740  12.061  21.914  0.00  0.00    +0.000 A 
ATOM     10  C   UNL     1       9.358  13.060  21.158  0.00  0.00    +0.000 A 
ATOM     11  C   UNL     1       9.335  14.371  21.642  0.00  0.00    +0.000 A 
ATOM     12  C   UNL     1       8.717  14.672  22.866  0.00  0.00    +0.000 A 
BRANCH   7  17
ATOM     13  N   UNL     1       5.659  15.065  28.554  0.00  0.00    +0.000 N 
ATOM     14  C   UNL     1       6.241  14.662  27.356  0.00  0.00    +0.000 A 
ATOM     15  C   UNL     1       5.541  13.884  26.455  0.00  0.00    +0.000 A 
ATOM     16  C   UNL     1       6.146  13.537  25.243  0.00  0.00    +0.000 A 
ATOM     17  C   UNL     1       7.431  13.993  24.927  0.00  0.00    +0.000 A 
ATOM     18  C   UNL     1       8.036  14.778  25.912  0.00  0.00    +0.000 A 
ATOM     19  N   UNL     1       7.478  15.115  27.107  0.00  0.00    +0.000 NA
ATOM     20  H   UNL     1       5.268  14.287  29.071  0.00  0.00    +0.000 HD
ATOM     21  H   UNL     1       6.370  15.564  29.081  0.00  0.00    +0.000 HD
ENDBRANCH   7  17
ENDBRANCH   6  10
ENDBRANCH   5   6
ENDBRANCH   1   5
BRANCH   3  22
ATOM     22  C   UNL     1       7.834   8.795  17.776  0.00  0.00    +0.000 C 
BRANCH  22  23
ATOM     23  C   UNL     1       7.937   7.262  17.807  0.00  0.00    +0.000 C 
BRANCH  23  24
ATOM     24  N   UNL     1       7.084   6.651  16.767  0.00  0.00    +0.000 NA
ATOM     25  H   UNL     1       7.438   6.676  15.809  0.00  0.00    +0.000 HD
BRANCH  24  26
ATOM     26  S   UNL     1       6.462   5.108  17.099  0.00  0.00    +0.000 S 
ATOM     27  O   UNL     1       6.506   4.393  15.841  0.00  0.00    +0.000 OA
ATOM     28  O   UNL     1       7.148   4.605  18.264  0.00  0.00    +0.000 OA
BRANCH  26  29
ATOM     29  C   UNL     1       4.743   5.453  17.444  0.00  0.00    +0.000 A 
ATOM     30  C   UNL     1       4.427   6.823  17.536  0.00  0.00    +0.000 A 
ATOM     31  C   UNL     1       3.134   7.232  17.835  0.00  0.00    +0.000 A 
ATOM     32  C   UNL     1       2.149   6.278  18.050  0.00  0.00    +0.000 A 
ATOM     33  C   UNL     1       2.433   4.907  17.939  0.00  0.00    +0.000 A 
ATOM     34  C   UNL     1       1.421   3.967  18.147  0.00  0.00    +0.000 A 
ATOM     35  N   UNL     1       1.573   2.631  18.045  0.00  0.00    +0.000 NA
ATOM     36  C   UNL     1       2.797   2.202  17.700  0.00  0.00    +0.000 A 
ATOM     37  C   UNL     1       3.879   3.046  17.478  0.00  0.00    +0.000 A 
ATOM     38  C   UNL     1       3.736   4.452  17.610  0.00  0.00    +0.000 A 
ENDBRANCH  26  29
ENDBRANCH  24  26
ENDBRANCH  23  24
ENDBRANCH  22  23
ENDBRANCH   3  22
TORSDOF 9
ENDMDL
