MODEL 1
REMARK VINA RESULT:      -7.7      0.000      0.000
REMARK  Name = 
REMARK  6 active torsions:
REMARK  status: ('A' for Active; 'I' for Inactive)
REMARK    1  A    between atoms: C_9  and  C_10
REMARK    2  A    between atoms: C_10  and  O_11
REMARK    3  A    between atoms: O_11  and  C_12
REMARK    4  A    between atoms: C_12  and  C_13
REMARK    5  A    between atoms: C_18  and  C_19
REMARK    6  A    between atoms: C_18  and  C_20
REMARK                            x       y       z     vdW  Elec       q    Type
REMARK                         _______ _______ _______ _____ _____    ______ ____
ROOT
ATOM      1  C   UNL     1       2.852   5.278  20.423  0.00  0.00    +0.000 C 
ATOM      2  C   UNL     1       3.413   5.971  19.431  0.00  0.00    +0.000 C 
ATOM      3  C   UNL     1       2.726   7.213  18.923  0.00  0.00    +0.000 C 
ATOM      4  O   UNL     1       1.852   7.788  19.567  0.00  0.00    +0.000 OA
ATOM      5  C   UNL     1       3.200   7.675  17.572  0.00  0.00    +0.000 C 
ATOM      6  C   UNL     1       4.287   6.747  16.998  0.00  0.00    +0.000 C 
ATOM      7  C   UNL     1       5.478   6.611  18.064  0.00  0.00    +0.000 C 
ATOM      8  C   UNL     1       4.589   5.437  18.611  0.00  0.00    +0.000 C 
ATOM      9  C   UNL     1       4.163   5.095  17.088  0.00  0.00    +0.000 C 
ATOM     10  C   UNL     1       5.030   4.597  15.904  0.00  0.00    +0.000 C 
ATOM     11  C   UNL     1       6.472   4.335  16.254  0.00  0.00    +0.000 C 
ATOM     12  C   UNL     1       7.215   5.640  16.412  0.00  0.00    +0.000 C 
ATOM     13  C   UNL     1       6.983   6.360  17.746  0.00  0.00    +0.000 C 
ATOM     14  C   UNL     1       7.731   7.708  17.614  0.00  0.00    +0.000 C 
ATOM     15  C   UNL     1       7.654   5.602  18.918  0.00  0.00    +0.000 C 
ENDROOT
BRANCH   9  16
ATOM     16  C   UNL     1       3.084   4.002  17.387  0.00  0.00    +0.000 C 
BRANCH  16  17
ATOM     17  O   UNL     1       3.556   2.648  17.298  0.00  0.00    +0.000 OA
BRANCH  17  18
ATOM     18  C   UNL     1       3.159   1.812  18.281  0.00  0.00    +0.000 C 
ATOM     19  C   UNL     1       1.762   2.147  18.698  0.00  0.00    +0.000 C 
ATOM     20  O   UNL     1       3.835   0.910  18.751  0.00  0.00    +0.000 OA
ENDBRANCH  17  18
ENDBRANCH  16  17
ENDBRANCH   9  16
TORSDOF 3
ENDMDL
MODEL 2
REMARK VINA RESULT:      -7.4      1.115      1.458
REMARK  Name = 
REMARK  6 active torsions:
REMARK  status: ('A' for Active; 'I' for Inactive)
REMARK    1  A    between atoms: C_9  and  C_10
REMARK    2  A    between atoms: C_10  and  O_11
REMARK    3  A    between atoms: O_11  and  C_12
REMARK    4  A    between atoms: C_12  and  C_13
REMARK    5  A    between atoms: C_18  and  C_19
REMARK    6  A    between atoms: C_18  and  C_20
REMARK                            x       y       z     vdW  Elec       q    Type
REMARK                         _______ _______ _______ _____ _____    ______ ____
ROOT
ATOM      1  C   UNL     1       3.464   4.393  20.688  0.00  0.00    +0.000 C 
ATOM      2  C   UNL     1       3.800   5.199  19.680  0.00  0.00    +0.000 C 
ATOM      3  C   UNL     1       2.846   6.289  19.261  0.00  0.00    +0.000 C 
ATOM      4  O   UNL     1       1.928   6.668  19.982  0.00  0.00    +0.000 OA
ATOM      5  C   UNL     1       3.116   6.857  17.894  0.00  0.00    +0.000 C 
ATOM      6  C   UNL     1       4.317   6.172  17.216  0.00  0.00    +0.000 C 
ATOM      7  C   UNL     1       5.589   6.258  18.190  0.00  0.00    +0.000 C 
ATOM      8  C   UNL     1       4.992   4.922  18.763  0.00  0.00    +0.000 C 
ATOM      9  C   UNL     1       4.527   4.527  17.264  0.00  0.00    +0.000 C 
ATOM     10  C   UNL     1       5.383   4.230  16.006  0.00  0.00    +0.000 C 
ATOM     11  C   UNL     1       6.871   4.254  16.244  0.00  0.00    +0.000 C 
ATOM     12  C   UNL     1       7.353   5.677  16.388  0.00  0.00    +0.000 C 
ATOM     13  C   UNL     1       7.085   6.315  17.757  0.00  0.00    +0.000 C 
ATOM     14  C   UNL     1       7.541   7.787  17.614  0.00  0.00    +0.000 C 
ATOM     15  C   UNL     1       7.979   5.686  18.855  0.00  0.00    +0.000 C 
ENDROOT
BRANCH   9  16
ATOM     16  C   UNL     1       3.710   3.238  17.605  0.00  0.00    +0.000 C 
BRANCH  16  17
ATOM     17  O   UNL     1       2.476   3.096  16.883  0.00  0.00    +0.000 OA
BRANCH  17  18
ATOM     18  C   UNL     1       1.362   3.526  17.514  0.00  0.00    +0.000 C 
ATOM     19  C   UNL     1       1.051   2.622  18.666  0.00  0.00    +0.000 C 
ATOM     20  O   UNL     1       0.712   4.510  17.200  0.00  0.00    +0.000 OA
ENDBRANCH  17  18
ENDBRANCH  16  17
ENDBRANCH   9  16
TORSDOF 3
ENDMDL
MODEL 3
REMARK VINA RESULT:      -7.3      2.259      4.827
REMARK  Name = 
REMARK  6 active torsions:
REMARK  status: ('A' for Active; 'I' for Inactive)
REMARK    1  A    between atoms: C_9  and  C_10
REMARK    2  A    between atoms: C_10  and  O_11
REMARK    3  A    between atoms: O_11  and  C_12
REMARK    4  A    between atoms: C_12  and  C_13
REMARK    5  A    between atoms: C_18  and  C_19
REMARK    6  A    between atoms: C_18  and  C_20
REMARK                            x       y       z     vdW  Elec       q    Type
REMARK                         _______ _______ _______ _____ _____    ______ ____
ROOT
ATOM      1  C   UNL     1       4.834   6.984  16.377  0.00  0.00    +0.000 C 
ATOM      2  C   UNL     1       4.913   6.151  17.415  0.00  0.00    +0.000 C 
ATOM      3  C   UNL     1       6.194   6.083  18.207  0.00  0.00    +0.000 C 
ATOM      4  O   UNL     1       7.049   6.961  18.144  0.00  0.00    +0.000 OA
ATOM      5  C   UNL     1       6.326   4.856  19.067  0.00  0.00    +0.000 C 
ATOM      6  C   UNL     1       5.109   3.923  18.927  0.00  0.00    +0.000 C 
ATOM      7  C   UNL     1       3.772   4.756  19.230  0.00  0.00    +0.000 C 
ATOM      8  C   UNL     1       3.859   5.077  17.695  0.00  0.00    +0.000 C 
ATOM      9  C   UNL     1       4.433   3.584  17.450  0.00  0.00    +0.000 C 
ATOM     10  C   UNL     1       3.748   2.211  17.667  0.00  0.00    +0.000 C 
ATOM     11  C   UNL     1       2.310   2.295  18.112  0.00  0.00    +0.000 C 
ATOM     12  C   UNL     1       2.237   2.699  19.564  0.00  0.00    +0.000 C 
ATOM     13  C   UNL     1       2.446   4.196  19.830  0.00  0.00    +0.000 C 
ATOM     14  C   UNL     1       2.459   4.335  21.371  0.00  0.00    +0.000 C 
ATOM     15  C   UNL     1       1.242   5.030  19.327  0.00  0.00    +0.000 C 
ENDROOT
BRANCH   9  16
ATOM     16  C   UNL     1       4.780   3.714  15.930  0.00  0.00    +0.000 C 
BRANCH  16  17
ATOM     17  O   UNL     1       6.166   3.515  15.608  0.00  0.00    +0.000 OA
BRANCH  17  18
ATOM     18  C   UNL     1       6.665   4.285  14.618  0.00  0.00    +0.000 C 
ATOM     19  C   UNL     1       6.111   3.840  13.301  0.00  0.00    +0.000 C 
ATOM     20  O   UNL     1       7.443   5.212  14.774  0.00  0.00    +0.000 OA
ENDBRANCH  17  18
ENDBRANCH  16  17
ENDBRANCH   9  16
TORSDOF 3
ENDMDL
MODEL 4
REMARK VINA RESULT:      -7.3      2.599      5.185
REMARK  Name = 
REMARK  6 active torsions:
REMARK  status: ('A' for Active; 'I' for Inactive)
REMARK    1  A    between atoms: C_9  and  C_10
REMARK    2  A    between atoms: C_10  and  O_11
REMARK    3  A    between atoms: O_11  and  C_12
REMARK    4  A    between atoms: C_12  and  C_13
REMARK    5  A    between atoms: C_18  and  C_19
REMARK    6  A    between atoms: C_18  and  C_20
REMARK                            x       y       z     vdW  Elec       q    Type
REMARK                         _______ _______ _______ _____ _____    ______ ____
ROOT
ATOM      1  C   UNL     1       6.079   4.401  14.574  0.00  0.00    +0.000 C 
ATOM      2  C   UNL     1       5.291   4.871  15.542  0.00  0.00    +0.000 C 
ATOM      3  C   UNL     1       4.951   6.339  15.565  0.00  0.00    +0.000 C 
ATOM      4  O   UNL     1       5.102   7.062  14.585  0.00  0.00    +0.000 OA
ATOM      5  C   UNL     1       4.420   6.831  16.885  0.00  0.00    +0.000 C 
ATOM      6  C   UNL     1       4.360   5.706  17.935  0.00  0.00    +0.000 C 
ATOM      7  C   UNL     1       3.515   4.479  17.340  0.00  0.00    +0.000 C 
ATOM      8  C   UNL     1       4.914   4.046  16.774  0.00  0.00    +0.000 C 
ATOM      9  C   UNL     1       5.600   4.619  18.123  0.00  0.00    +0.000 C 
ATOM     10  C   UNL     1       5.451   4.144  19.591  0.00  0.00    +0.000 C 
ATOM     11  C   UNL     1       4.584   2.923  19.766  0.00  0.00    +0.000 C 
ATOM     12  C   UNL     1       3.129   3.290  19.606  0.00  0.00    +0.000 C 
ATOM     13  C   UNL     1       2.660   3.461  18.155  0.00  0.00    +0.000 C 
ATOM     14  C   UNL     1       1.198   3.957  18.259  0.00  0.00    +0.000 C 
ATOM     15  C   UNL     1       2.608   2.101  17.417  0.00  0.00    +0.000 C 
ENDROOT
BRANCH   9  16
ATOM     16  C   UNL     1       7.100   4.450  17.713  0.00  0.00    +0.000 C 
BRANCH  16  17
ATOM     17  O   UNL     1       7.759   5.665  17.320  0.00  0.00    +0.000 OA
BRANCH  17  18
ATOM     18  C   UNL     1       7.929   6.592  18.288  0.00  0.00    +0.000 C 
ATOM     19  C   UNL     1       7.760   7.963  17.712  0.00  0.00    +0.000 C 
ATOM     20  O   UNL     1       8.175   6.348  19.458  0.00  0.00    +0.000 OA
ENDBRANCH  17  18
ENDBRANCH  16  17
ENDBRANCH   9  16
TORSDOF 3
ENDMDL
MODEL 5
REMARK VINA RESULT:      -7.2      1.882      4.788
REMARK  Name = 
REMARK  6 active torsions:
REMARK  status: ('A' for Active; 'I' for Inactive)
REMARK    1  A    between atoms: C_9  and  C_10
REMARK    2  A    between atoms: C_10  and  O_11
REMARK    3  A    between atoms: O_11  and  C_12
REMARK    4  A    between atoms: C_12  and  C_13
REMARK    5  A    between atoms: C_18  and  C_19
REMARK    6  A    between atoms: C_18  and  C_20
REMARK                            x       y       z     vdW  Elec       q    Type
REMARK                         _______ _______ _______ _____ _____    ______ ____
ROOT
ATOM      1  C   UNL     1       4.460   6.872  16.609  0.00  0.00    +0.000 C 
ATOM      2  C   UNL     1       3.672   6.382  17.566  0.00  0.00    +0.000 C 
ATOM      3  C   UNL     1       2.840   7.331  18.390  0.00  0.00    +0.000 C 
ATOM      4  O   UNL     1       2.614   8.483  18.034  0.00  0.00    +0.000 OA
ATOM      5  C   UNL     1       2.321   6.745  19.676  0.00  0.00    +0.000 C 
ATOM      6  C   UNL     1       2.781   5.287  19.868  0.00  0.00    +0.000 C 
ATOM      7  C   UNL     1       2.363   4.431  18.577  0.00  0.00    +0.000 C 
ATOM      8  C   UNL     1       3.752   4.930  18.040  0.00  0.00    +0.000 C 
ATOM      9  C   UNL     1       4.338   4.812  19.544  0.00  0.00    +0.000 C 
ATOM     10  C   UNL     1       4.532   3.560  20.437  0.00  0.00    +0.000 C 
ATOM     11  C   UNL     1       4.178   2.256  19.769  0.00  0.00    +0.000 C 
ATOM     12  C   UNL     1       2.679   2.109  19.675  0.00  0.00    +0.000 C 
ATOM     13  C   UNL     1       2.020   2.910  18.545  0.00  0.00    +0.000 C 
ATOM     14  C   UNL     1       0.498   2.704  18.736  0.00  0.00    +0.000 C 
ATOM     15  C   UNL     1       2.369   2.317  17.157  0.00  0.00    +0.000 C 
ENDROOT
BRANCH   9  16
ATOM     16  C   UNL     1       5.744   5.450  19.298  0.00  0.00    +0.000 C 
BRANCH  16  17
ATOM     17  O   UNL     1       6.759   4.527  18.869  0.00  0.00    +0.000 OA
BRANCH  17  18
ATOM     18  C   UNL     1       7.574   4.953  17.880  0.00  0.00    +0.000 C 
ATOM     19  C   UNL     1       7.727   6.440  17.954  0.00  0.00    +0.000 C 
ATOM     20  O   UNL     1       8.114   4.233  17.056  0.00  0.00    +0.000 OA
ENDBRANCH  17  18
ENDBRANCH  16  17
ENDBRANCH   9  16
TORSDOF 3
ENDMDL
MODEL 6
REMARK VINA RESULT:      -7.2      2.107      5.213
REMARK  Name = 
REMARK  6 active torsions:
REMARK  status: ('A' for Active; 'I' for Inactive)
REMARK    1  A    between atoms: C_9  and  C_10
REMARK    2  A    between atoms: C_10  and  O_11
REMARK    3  A    between atoms: O_11  and  C_12
REMARK    4  A    between atoms: C_12  and  C_13
REMARK    5  A    between atoms: C_18  and  C_19
REMARK    6  A    between atoms: C_18  and  C_20
REMARK                            x       y       z     vdW  Elec       q    Type
REMARK                         _______ _______ _______ _____ _____    ______ ____
ROOT
ATOM      1  C   UNL     1       6.998   6.171  18.441  0.00  0.00    +0.000 C 
ATOM      2  C   UNL     1       6.203   5.277  17.852  0.00  0.00    +0.000 C 
ATOM      3  C   UNL     1       6.486   4.869  16.428  0.00  0.00    +0.000 C 
ATOM      4  O   UNL     1       7.570   5.075  15.891  0.00  0.00    +0.000 OA
ATOM      5  C   UNL     1       5.331   4.198  15.736  0.00  0.00    +0.000 C 
ATOM      6  C   UNL     1       4.096   4.094  16.650  0.00  0.00    +0.000 C 
ATOM      7  C   UNL     1       4.514   3.364  18.016  0.00  0.00    +0.000 C 
ATOM      8  C   UNL     1       4.873   4.828  18.458  0.00  0.00    +0.000 C 
ATOM      9  C   UNL     1       3.605   5.360  17.604  0.00  0.00    +0.000 C 
ATOM     10  C   UNL     1       2.091   5.100  17.809  0.00  0.00    +0.000 C 
ATOM     11  C   UNL     1       1.760   4.278  19.028  0.00  0.00    +0.000 C 
ATOM     12  C   UNL     1       2.103   2.828  18.789  0.00  0.00    +0.000 C 
ATOM     13  C   UNL     1       3.593   2.487  18.917  0.00  0.00    +0.000 C 
ATOM     14  C   UNL     1       3.705   1.000  18.503  0.00  0.00    +0.000 C 
ATOM     15  C   UNL     1       4.063   2.565  20.391  0.00  0.00    +0.000 C 
ENDROOT
BRANCH   9  16
ATOM     16  C   UNL     1       3.853   6.898  17.751  0.00  0.00    +0.000 C 
BRANCH  16  17
ATOM     17  O   UNL     1       2.725   7.725  17.421  0.00  0.00    +0.000 OA
BRANCH  17  18
ATOM     18  C   UNL     1       2.205   8.455  18.431  0.00  0.00    +0.000 C 
ATOM     19  C   UNL     1       1.883   9.834  17.946  0.00  0.00    +0.000 C 
ATOM     20  O   UNL     1       2.015   8.049  19.566  0.00  0.00    +0.000 OA
ENDBRANCH  17  18
ENDBRANCH  16  17
ENDBRANCH   9  16
TORSDOF 3
ENDMDL
MODEL 7
REMARK VINA RESULT:      -7.2      1.791      3.769
REMARK  Name = 
REMARK  6 active torsions:
REMARK  status: ('A' for Active; 'I' for Inactive)
REMARK    1  A    between atoms: C_9  and  C_10
REMARK    2  A    between atoms: C_10  and  O_11
REMARK    3  A    between atoms: O_11  and  C_12
REMARK    4  A    between atoms: C_12  and  C_13
REMARK    5  A    between atoms: C_18  and  C_19
REMARK    6  A    between atoms: C_18  and  C_20
REMARK                            x       y       z     vdW  Elec       q    Type
REMARK                         _______ _______ _______ _____ _____    ______ ____
ROOT
ATOM      1  C   UNL     1       1.096   4.719  17.525  0.00  0.00    +0.000 C 
ATOM      2  C   UNL     1       2.280   4.107  17.510  0.00  0.00    +0.000 C 
ATOM      3  C   UNL     1       2.348   2.631  17.814  0.00  0.00    +0.000 C 
ATOM      4  O   UNL     1       1.358   1.908  17.771  0.00  0.00    +0.000 OA
ATOM      5  C   UNL     1       3.722   2.136  18.173  0.00  0.00    +0.000 C 
ATOM      6  C   UNL     1       4.762   3.272  18.166  0.00  0.00    +0.000 C 
ATOM      7  C   UNL     1       4.719   4.014  16.744  0.00  0.00    +0.000 C 
ATOM      8  C   UNL     1       3.604   4.870  17.447  0.00  0.00    +0.000 C 
ATOM      9  C   UNL     1       4.438   4.758  18.830  0.00  0.00    +0.000 C 
ATOM     10  C   UNL     1       5.839   5.312  19.190  0.00  0.00    +0.000 C 
ATOM     11  C   UNL     1       6.485   6.131  18.102  0.00  0.00    +0.000 C 
ATOM     12  C   UNL     1       6.988   5.229  17.000  0.00  0.00    +0.000 C 
ATOM     13  C   UNL     1       5.909   4.726  16.033  0.00  0.00    +0.000 C 
ATOM     14  C   UNL     1       6.638   3.734  15.095  0.00  0.00    +0.000 C 
ATOM     15  C   UNL     1       5.382   5.870  15.133  0.00  0.00    +0.000 C 
ENDROOT
BRANCH   9  16
ATOM     16  C   UNL     1       3.396   5.427  19.785  0.00  0.00    +0.000 C 
BRANCH  16  17
ATOM     17  O   UNL     1       3.130   4.698  20.994  0.00  0.00    +0.000 OA
BRANCH  17  18
ATOM     18  C   UNL     1       1.945   4.054  21.055  0.00  0.00    +0.000 C 
ATOM     19  C   UNL     1       2.138   2.689  21.639  0.00  0.00    +0.000 C 
ATOM     20  O   UNL     1       0.874   4.519  20.697  0.00  0.00    +0.000 OA
ENDBRANCH  17  18
ENDBRANCH  16  17
ENDBRANCH   9  16
TORSDOF 3
ENDMDL
MODEL 8
REMARK VINA RESULT:      -7.2      2.339      4.885
REMARK  Name = 
REMARK  6 active torsions:
REMARK  status: ('A' for Active; 'I' for Inactive)
REMARK    1  A    between atoms: C_9  and  C_10
REMARK    2  A    between atoms: C_10  and  O_11
REMARK    3  A    between atoms: O_11  and  C_12
REMARK    4  A    between atoms: C_12  and  C_13
REMARK    5  A    between atoms: C_18  and  C_19
REMARK    6  A    between atoms: C_18  and  C_20
REMARK                            x       y       z     vdW  Elec       q    Type
REMARK                         _______ _______ _______ _____ _____    ______ ____
ROOT
ATOM      1  C   UNL     1       6.371   7.306  17.276  0.00  0.00    +0.000 C 
ATOM      2  C   UNL     1       5.885   6.317  18.027  0.00  0.00    +0.000 C 
ATOM      3  C   UNL     1       6.841   5.430  18.782  0.00  0.00    +0.000 C 
ATOM      4  O   UNL     1       8.007   5.751  18.990  0.00  0.00    +0.000 OA
ATOM      5  C   UNL     1       6.244   4.129  19.248  0.00  0.00    +0.000 C 
ATOM      6  C   UNL     1       4.770   3.991  18.824  0.00  0.00    +0.000 C 
ATOM      7  C   UNL     1       3.954   5.273  19.339  0.00  0.00    +0.000 C 
ATOM      8  C   UNL     1       4.421   5.877  17.966  0.00  0.00    +0.000 C 
ATOM      9  C   UNL     1       4.255   4.410  17.303  0.00  0.00    +0.000 C 
ATOM     10  C   UNL     1       2.979   3.553  17.100  0.00  0.00    +0.000 C 
ATOM     11  C   UNL     1       1.701   4.225  17.530  0.00  0.00    +0.000 C 
ATOM     12  C   UNL     1       1.601   4.239  19.036  0.00  0.00    +0.000 C 
ATOM     13  C   UNL     1       2.445   5.316  19.730  0.00  0.00    +0.000 C 
ATOM     14  C   UNL     1       2.281   5.044  21.245  0.00  0.00    +0.000 C 
ATOM     15  C   UNL     1       1.871   6.731  19.476  0.00  0.00    +0.000 C 
ENDROOT
BRANCH   9  16
ATOM     16  C   UNL     1       4.855   4.721  15.893  0.00  0.00    +0.000 C 
BRANCH  16  17
ATOM     17  O   UNL     1       6.065   4.012  15.582  0.00  0.00    +0.000 OA
BRANCH  17  18
ATOM     18  C   UNL     1       6.774   4.474  14.529  0.00  0.00    +0.000 C 
ATOM     19  C   UNL     1       6.304   3.812  13.272  0.00  0.00    +0.000 C 
ATOM     20  O   UNL     1       7.658   5.313  14.592  0.00  0.00    +0.000 OA
ENDBRANCH  17  18
ENDBRANCH  16  17
ENDBRANCH   9  16
TORSDOF 3
ENDMDL
MODEL 9
REMARK VINA RESULT:      -7.0      1.636      3.714
REMARK  Name = 
REMARK  6 active torsions:
REMARK  status: ('A' for Active; 'I' for Inactive)
REMARK    1  A    between atoms: C_9  and  C_10
REMARK    2  A    between atoms: C_10  and  O_11
REMARK    3  A    between atoms: O_11  and  C_12
REMARK    4  A    between atoms: C_12  and  C_13
REMARK    5  A    between atoms: C_18  and  C_19
REMARK    6  A    between atoms: C_18  and  C_20
REMARK                            x       y       z     vdW  Elec       q    Type
REMARK                         _______ _______ _______ _____ _____    ______ ____
ROOT
ATOM      1  C   UNL     1       2.414   2.039  17.705  0.00  0.00    +0.000 C 
ATOM      2  C   UNL     1       3.506   2.772  17.925  0.00  0.00    +0.000 C 
ATOM      3  C   UNL     1       4.318   2.524  19.171  0.00  0.00    +0.000 C 
ATOM      4  O   UNL     1       4.209   1.495  19.830  0.00  0.00    +0.000 OA
ATOM      5  C   UNL     1       5.260   3.642  19.529  0.00  0.00    +0.000 C 
ATOM      6  C   UNL     1       5.164   4.814  18.534  0.00  0.00    +0.000 C 
ATOM      7  C   UNL     1       5.394   4.257  17.046  0.00  0.00    +0.000 C 
ATOM      8  C   UNL     1       3.842   4.020  17.108  0.00  0.00    +0.000 C 
ATOM      9  C   UNL     1       3.704   5.376  17.982  0.00  0.00    +0.000 C 
ATOM     10  C   UNL     1       4.002   6.844  17.588  0.00  0.00    +0.000 C 
ATOM     11  C   UNL     1       4.421   7.032  16.152  0.00  0.00    +0.000 C 
ATOM     12  C   UNL     1       5.842   6.562  15.958  0.00  0.00    +0.000 C 
ATOM     13  C   UNL     1       6.011   5.041  15.848  0.00  0.00    +0.000 C 
ATOM     14  C   UNL     1       7.539   4.807  15.791  0.00  0.00    +0.000 C 
ATOM     15  C   UNL     1       5.437   4.507  14.513  0.00  0.00    +0.000 C 
ENDROOT
BRANCH   9  16
ATOM     16  C   UNL     1       2.184   5.271  18.336  0.00  0.00    +0.000 C 
BRANCH  16  17
ATOM     17  O   UNL     1       1.850   5.650  19.681  0.00  0.00    +0.000 OA
BRANCH  17  18
ATOM     18  C   UNL     1       1.756   4.646  20.579  0.00  0.00    +0.000 C 
ATOM     19  C   UNL     1       0.666   3.705  20.174  0.00  0.00    +0.000 C 
ATOM     20  O   UNL     1       2.462   4.519  21.567  0.00  0.00    +0.000 OA
ENDBRANCH  17  18
ENDBRANCH  16  17
ENDBRANCH   9  16
TORSDOF 3
ENDMDL
