MODEL 1
REMARK VINA RESULT:      -7.8      0.000      0.000
REMARK  Name = 
REMARK  6 active torsions:
REMARK  status: ('A' for Active; 'I' for Inactive)
REMARK    1  A    between atoms: C_1  and  N_2
REMARK    2  A    between atoms: C_3  and  C_5
REMARK    3  A    between atoms: C_5  and  S_6
REMARK    4  A    between atoms: S_6  and  C_7
REMARK    5  A    between atoms: N_9  and  C_10
REMARK    6  A    between atoms: C_10  and  C_11
REMARK                            x       y       z     vdW  Elec       q    Type
REMARK                         _______ _______ _______ _____ _____    ______ ____
ROOT
ATOM      1  C   UNL     1       4.022   4.396  17.473  0.00  0.00    +0.000 A 
ATOM      2  C   UNL     1       4.099   5.667  17.993  0.00  0.00    +0.000 A 
ATOM      3  N   UNL     1       3.102   5.802  18.931  0.00  0.00    +0.000 N 
ATOM      4  C   UNL     1       2.360   4.637  19.007  0.00  0.00    +0.000 A 
ATOM      5  C   UNL     1       1.237   4.301  19.783  0.00  0.00    +0.000 A 
ATOM      6  C   UNL     1       0.696   3.018  19.644  0.00  0.00    +0.000 A 
ATOM      7  C   UNL     1       1.248   2.099  18.760  0.00  0.00    +0.000 A 
ATOM      8  C   UNL     1       2.360   2.444  17.985  0.00  0.00    +0.000 A 
ATOM      9  C   UNL     1       2.931   3.732  18.104  0.00  0.00    +0.000 A 
ENDROOT
BRANCH   1  10
ATOM     10  S   UNL     1       5.001   3.689  16.206  0.00  0.00    +0.000 S 
BRANCH  10  11
ATOM     11  C   UNL     1       6.186   5.012  15.836  0.00  0.00    +0.000 C 
BRANCH  11  14
ATOM     12  C   UNL     1       6.615   3.550  12.352  0.00  0.00    +0.000 C 
ATOM     13  N   UNL     1       6.197   3.801  13.708  0.00  0.00    +0.000 N 
ATOM     14  C   UNL     1       6.778   4.810  14.452  0.00  0.00    +0.000 C 
ATOM     15  O   UNL     1       7.735   5.464  14.047  0.00  0.00    +0.000 OA
ATOM     16  H   UNL     1       5.335   3.385  14.045  0.00  0.00    +0.000 HD
ENDBRANCH  11  14
ENDBRANCH  10  11
ENDBRANCH   1  10
BRANCH   3  17
ATOM     17  C   UNL     1       2.787   7.055  19.616  0.00  0.00    +0.000 C 
BRANCH  17  18
ATOM     18  C   UNL     1       2.213   8.139  18.710  0.00  0.00    +0.000 C 
ATOM     19  O   UNL     1       2.555   8.260  17.531  0.00  0.00    +0.000 OA
ATOM     20  N   UNL     1       1.245   8.982  19.287  0.00  0.00    +0.000 N 
ATOM     21  C   UNL     1       0.509   9.895  18.408  0.00  0.00    +0.000 C 
ATOM     22  C   UNL     1       1.023  11.331  18.494  0.00  0.00    +0.000 C 
ATOM     23  C   UNL     1       0.554  12.090  19.734  0.00  0.00    +0.000 C 
ATOM     24  C   UNL     1       0.932  11.437  21.061  0.00  0.00    +0.000 C 
ATOM     25  C   UNL     1       0.182  10.129  21.305  0.00  0.00    +0.000 C 
ATOM     26  C   UNL     1       0.870   8.906  20.701  0.00  0.00    +0.000 C 
ENDBRANCH  17  18
ENDBRANCH   3  17
TORSDOF 5
ENDMDL
MODEL 2
REMARK VINA RESULT:      -7.8      1.499      1.924
REMARK  Name = 
REMARK  6 active torsions:
REMARK  status: ('A' for Active; 'I' for Inactive)
REMARK    1  A    between atoms: C_1  and  N_2
REMARK    2  A    between atoms: C_3  and  C_5
REMARK    3  A    between atoms: C_5  and  S_6
REMARK    4  A    between atoms: S_6  and  C_7
REMARK    5  A    between atoms: N_9  and  C_10
REMARK    6  A    between atoms: C_10  and  C_11
REMARK                            x       y       z     vdW  Elec       q    Type
REMARK                         _______ _______ _______ _____ _____    ______ ____
ROOT
ATOM      1  C   UNL     1       3.860   4.733  17.606  0.00  0.00    +0.000 A 
ATOM      2  C   UNL     1       3.810   5.999  18.140  0.00  0.00    +0.000 A 
ATOM      3  N   UNL     1       2.816   6.019  19.090  0.00  0.00    +0.000 N 
ATOM      4  C   UNL     1       2.200   4.782  19.159  0.00  0.00    +0.000 A 
ATOM      5  C   UNL     1       1.127   4.322  19.943  0.00  0.00    +0.000 A 
ATOM      6  C   UNL     1       0.722   2.991  19.794  0.00  0.00    +0.000 A 
ATOM      7  C   UNL     1       1.357   2.145  18.893  0.00  0.00    +0.000 A 
ATOM      8  C   UNL     1       2.418   2.613  18.111  0.00  0.00    +0.000 A 
ATOM      9  C   UNL     1       2.852   3.951  18.240  0.00  0.00    +0.000 A 
ENDROOT
BRANCH   1  10
ATOM     10  S   UNL     1       4.893   4.147  16.320  0.00  0.00    +0.000 S 
BRANCH  10  11
ATOM     11  C   UNL     1       5.678   5.666  15.717  0.00  0.00    +0.000 C 
BRANCH  11  14
ATOM     12  C   UNL     1       7.945   7.867  17.832  0.00  0.00    +0.000 C 
ATOM     13  N   UNL     1       6.929   7.384  16.932  0.00  0.00    +0.000 N 
ATOM     14  C   UNL     1       6.844   6.043  16.615  0.00  0.00    +0.000 C 
ATOM     15  O   UNL     1       7.676   5.220  16.988  0.00  0.00    +0.000 OA
ATOM     16  H   UNL     1       6.147   7.988  16.699  0.00  0.00    +0.000 HD
ENDBRANCH  11  14
ENDBRANCH  10  11
ENDBRANCH   1  10
BRANCH   3  17
ATOM     17  C   UNL     1       2.379   7.225  19.792  0.00  0.00    +0.000 C 
BRANCH  17  18
ATOM     18  C   UNL     1       1.898   8.346  18.878  0.00  0.00    +0.000 C 
ATOM     19  O   UNL     1       2.313   8.477  17.723  0.00  0.00    +0.000 OA
ATOM     20  N   UNL     1       0.931   9.214  19.416  0.00  0.00    +0.000 N 
ATOM     21  C   UNL     1       0.280  10.171  18.516  0.00  0.00    +0.000 C 
ATOM     22  C   UNL     1       0.840  11.584  18.661  0.00  0.00    +0.000 C 
ATOM     23  C   UNL     1       0.328  12.336  19.887  0.00  0.00    +0.000 C 
ATOM     24  C   UNL     1       0.604  11.645  21.220  0.00  0.00    +0.000 C 
ATOM     25  C   UNL     1      -0.207  10.362  21.393  0.00  0.00    +0.000 C 
ATOM     26  C   UNL     1       0.471   9.125  20.804  0.00  0.00    +0.000 C 
ENDBRANCH  17  18
ENDBRANCH   3  17
TORSDOF 5
ENDMDL
MODEL 3
REMARK VINA RESULT:      -7.7      1.314      1.920
REMARK  Name = 
REMARK  6 active torsions:
REMARK  status: ('A' for Active; 'I' for Inactive)
REMARK    1  A    between atoms: C_1  and  N_2
REMARK    2  A    between atoms: C_3  and  C_5
REMARK    3  A    between atoms: C_5  and  S_6
REMARK    4  A    between atoms: S_6  and  C_7
REMARK    5  A    between atoms: N_9  and  C_10
REMARK    6  A    between atoms: C_10  and  C_11
REMARK                            x       y       z     vdW  Elec       q    Type
REMARK                         _______ _______ _______ _____ _____    ______ ____
ROOT
ATOM      1  C   UNL     1       4.752   5.084  17.682  0.00  0.00    +0.000 A 
ATOM      2  C   UNL     1       4.229   6.322  17.973  0.00  0.00    +0.000 A 
ATOM      3  N   UNL     1       2.925   6.146  18.376  0.00  0.00    +0.000 N 
ATOM      4  C   UNL     1       2.589   4.806  18.324  0.00  0.00    +0.000 A 
ATOM      5  C   UNL     1       1.383   4.139  18.605  0.00  0.00    +0.000 A 
ATOM      6  C   UNL     1       1.347   2.748  18.464  0.00  0.00    +0.000 A 
ATOM      7  C   UNL     1       2.469   2.040  18.052  0.00  0.00    +0.000 A 
ATOM      8  C   UNL     1       3.662   2.710  17.766  0.00  0.00    +0.000 A 
ATOM      9  C   UNL     1       3.731   4.115  17.901  0.00  0.00    +0.000 A 
ENDROOT
BRANCH   1  10
ATOM     10  S   UNL     1       6.349   4.707  17.071  0.00  0.00    +0.000 S 
BRANCH  10  11
ATOM     11  C   UNL     1       5.985   3.731  15.587  0.00  0.00    +0.000 C 
BRANCH  11  14
ATOM     12  C   UNL     1       7.088   4.126  11.970  0.00  0.00    +0.000 C 
ATOM     13  N   UNL     1       6.509   3.643  13.197  0.00  0.00    +0.000 N 
ATOM     14  C   UNL     1       6.720   4.308  14.389  0.00  0.00    +0.000 C 
ATOM     15  O   UNL     1       7.483   5.265  14.488  0.00  0.00    +0.000 OA
ATOM     16  H   UNL     1       5.774   2.943  13.156  0.00  0.00    +0.000 HD
ENDBRANCH  11  14
ENDBRANCH  10  11
ENDBRANCH   1  10
BRANCH   3  17
ATOM     17  C   UNL     1       1.999   7.243  18.654  0.00  0.00    +0.000 C 
BRANCH  17  18
ATOM     18  C   UNL     1       1.730   7.480  20.135  0.00  0.00    +0.000 C 
ATOM     19  O   UNL     1       1.779   6.569  20.967  0.00  0.00    +0.000 OA
ATOM     20  N   UNL     1       1.447   8.806  20.511  0.00  0.00    +0.000 N 
ATOM     21  C   UNL     1       1.394   9.126  21.940  0.00  0.00    +0.000 C 
ATOM     22  C   UNL     1      -0.037   9.249  22.459  0.00  0.00    +0.000 C 
ATOM     23  C   UNL     1      -0.720  10.567  22.104  0.00  0.00    +0.000 C 
ATOM     24  C   UNL     1      -0.798  10.861  20.607  0.00  0.00    +0.000 C 
ATOM     25  C   UNL     1       0.571  11.148  19.995  0.00  0.00    +0.000 C 
ATOM     26  C   UNL     1       1.314   9.894  19.538  0.00  0.00    +0.000 C 
ENDBRANCH  17  18
ENDBRANCH   3  17
TORSDOF 5
ENDMDL
MODEL 4
REMARK VINA RESULT:      -7.7      2.263      2.897
REMARK  Name = 
REMARK  6 active torsions:
REMARK  status: ('A' for Active; 'I' for Inactive)
REMARK    1  A    between atoms: C_1  and  N_2
REMARK    2  A    between atoms: C_3  and  C_5
REMARK    3  A    between atoms: C_5  and  S_6
REMARK    4  A    between atoms: S_6  and  C_7
REMARK    5  A    between atoms: N_9  and  C_10
REMARK    6  A    between atoms: C_10  and  C_11
REMARK                            x       y       z     vdW  Elec       q    Type
REMARK                         _______ _______ _______ _____ _____    ______ ____
ROOT
ATOM      1  C   UNL     1       4.654   5.123  16.924  0.00  0.00    +0.000 A 
ATOM      2  C   UNL     1       4.177   6.375  17.233  0.00  0.00    +0.000 A 
ATOM      3  N   UNL     1       2.966   6.222  17.867  0.00  0.00    +0.000 N 
ATOM      4  C   UNL     1       2.639   4.881  17.949  0.00  0.00    +0.000 A 
ATOM      5  C   UNL     1       1.507   4.231  18.474  0.00  0.00    +0.000 A 
ATOM      6  C   UNL     1       1.460   2.834  18.418  0.00  0.00    +0.000 A 
ATOM      7  C   UNL     1       2.500   2.104  17.856  0.00  0.00    +0.000 A 
ATOM      8  C   UNL     1       3.618   2.757  17.328  0.00  0.00    +0.000 A 
ATOM      9  C   UNL     1       3.696   4.168  17.371  0.00  0.00    +0.000 A 
ENDROOT
BRANCH   1  10
ATOM     10  S   UNL     1       6.123   4.712  16.064  0.00  0.00    +0.000 S 
BRANCH  10  11
ATOM     11  C   UNL     1       7.346   4.604  17.397  0.00  0.00    +0.000 C 
BRANCH  11  14
ATOM     12  C   UNL     1       7.824   8.365  17.675  0.00  0.00    +0.000 C 
ATOM     13  N   UNL     1       7.716   7.014  17.186  0.00  0.00    +0.000 N 
ATOM     14  C   UNL     1       7.521   5.960  18.057  0.00  0.00    +0.000 C 
ATOM     15  O   UNL     1       7.537   6.098  19.278  0.00  0.00    +0.000 OA
ATOM     16  H   UNL     1       7.567   6.857  16.195  0.00  0.00    +0.000 HD
ENDBRANCH  11  14
ENDBRANCH  10  11
ENDBRANCH   1  10
BRANCH   3  17
ATOM     17  C   UNL     1       2.092   7.333  18.241  0.00  0.00    +0.000 C 
BRANCH  17  18
ATOM     18  C   UNL     1       1.912   7.514  19.744  0.00  0.00    +0.000 C 
ATOM     19  O   UNL     1       2.080   6.588  20.543  0.00  0.00    +0.000 OA
ATOM     20  N   UNL     1       1.569   8.808  20.177  0.00  0.00    +0.000 N 
ATOM     21  C   UNL     1       1.595   9.087  21.616  0.00  0.00    +0.000 C 
ATOM     22  C   UNL     1       0.199   9.099  22.235  0.00  0.00    +0.000 C 
ATOM     23  C   UNL     1      -0.593  10.377  21.966  0.00  0.00    +0.000 C 
ATOM     24  C   UNL     1      -0.794  10.702  20.488  0.00  0.00    +0.000 C 
ATOM     25  C   UNL     1       0.507  11.097  19.792  0.00  0.00    +0.000 C 
ATOM     26  C   UNL     1       1.297   9.908  19.249  0.00  0.00    +0.000 C 
ENDBRANCH  17  18
ENDBRANCH   3  17
TORSDOF 5
ENDMDL
MODEL 5
REMARK VINA RESULT:      -7.6      2.093      2.566
REMARK  Name = 
REMARK  6 active torsions:
REMARK  status: ('A' for Active; 'I' for Inactive)
REMARK    1  A    between atoms: C_1  and  N_2
REMARK    2  A    between atoms: C_3  and  C_5
REMARK    3  A    between atoms: C_5  and  S_6
REMARK    4  A    between atoms: S_6  and  C_7
REMARK    5  A    between atoms: N_9  and  C_10
REMARK    6  A    between atoms: C_10  and  C_11
REMARK                            x       y       z     vdW  Elec       q    Type
REMARK                         _______ _______ _______ _____ _____    ______ ____
ROOT
ATOM      1  C   UNL     1       4.795   4.909  18.405  0.00  0.00    +0.000 A 
ATOM      2  C   UNL     1       4.370   6.067  19.012  0.00  0.00    +0.000 A 
ATOM      3  N   UNL     1       3.055   5.896  19.379  0.00  0.00    +0.000 N 
ATOM      4  C   UNL     1       2.614   4.644  18.991  0.00  0.00    +0.000 A 
ATOM      5  C   UNL     1       1.358   4.023  19.113  0.00  0.00    +0.000 A 
ATOM      6  C   UNL     1       1.211   2.722  18.620  0.00  0.00    +0.000 A 
ATOM      7  C   UNL     1       2.276   2.059  18.022  0.00  0.00    +0.000 A 
ATOM      8  C   UNL     1       3.519   2.686  17.896  0.00  0.00    +0.000 A 
ATOM      9  C   UNL     1       3.699   3.999  18.386  0.00  0.00    +0.000 A 
ENDROOT
BRANCH   1  10
ATOM     10  S   UNL     1       6.358   4.579  17.690  0.00  0.00    +0.000 S 
BRANCH  10  11
ATOM     11  C   UNL     1       6.751   6.140  16.856  0.00  0.00    +0.000 C 
BRANCH  11  14
ATOM     12  C   UNL     1       8.430   9.296  18.151  0.00  0.00    +0.000 C 
ATOM     13  N   UNL     1       7.725   8.332  17.345  0.00  0.00    +0.000 N 
ATOM     14  C   UNL     1       7.583   7.025  17.768  0.00  0.00    +0.000 C 
ATOM     15  O   UNL     1       8.131   6.593  18.778  0.00  0.00    +0.000 OA
ATOM     16  H   UNL     1       7.149   8.657  16.575  0.00  0.00    +0.000 HD
ENDBRANCH  11  14
ENDBRANCH  10  11
ENDBRANCH   1  10
BRANCH   3  17
ATOM     17  C   UNL     1       2.218   6.954  19.944  0.00  0.00    +0.000 C 
BRANCH  17  18
ATOM     18  C   UNL     1       1.993   8.141  19.015  0.00  0.00    +0.000 C 
ATOM     19  O   UNL     1       2.567   8.244  17.927  0.00  0.00    +0.000 OA
ATOM     20  N   UNL     1       1.070   9.107  19.455  0.00  0.00    +0.000 N 
ATOM     21  C   UNL     1       0.656  10.151  18.512  0.00  0.00    +0.000 C 
ATOM     22  C   UNL     1       1.352  11.485  18.776  0.00  0.00    +0.000 C 
ATOM     23  C   UNL     1       0.774  12.269  19.952  0.00  0.00    +0.000 C 
ATOM     24  C   UNL     1       0.792  11.525  21.285  0.00  0.00    +0.000 C 
ATOM     25  C   UNL     1      -0.176  10.343  21.309  0.00  0.00    +0.000 C 
ATOM     26  C   UNL     1       0.426   9.047  20.770  0.00  0.00    +0.000 C 
ENDBRANCH  17  18
ENDBRANCH   3  17
TORSDOF 5
ENDMDL
MODEL 6
REMARK VINA RESULT:      -7.6      3.681      8.218
REMARK  Name = 
REMARK  6 active torsions:
REMARK  status: ('A' for Active; 'I' for Inactive)
REMARK    1  A    between atoms: C_1  and  N_2
REMARK    2  A    between atoms: C_3  and  C_5
REMARK    3  A    between atoms: C_5  and  S_6
REMARK    4  A    between atoms: S_6  and  C_7
REMARK    5  A    between atoms: N_9  and  C_10
REMARK    6  A    between atoms: C_10  and  C_11
REMARK                            x       y       z     vdW  Elec       q    Type
REMARK                         _______ _______ _______ _____ _____    ______ ____
ROOT
ATOM      1  C   UNL     1      -0.364  10.758  19.238  0.00  0.00    +0.000 A 
ATOM      2  C   UNL     1       0.564   9.778  18.975  0.00  0.00    +0.000 A 
ATOM      3  N   UNL     1       0.880   9.165  20.166  0.00  0.00    +0.000 N 
ATOM      4  C   UNL     1       0.184   9.755  21.204  0.00  0.00    +0.000 A 
ATOM      5  C   UNL     1       0.191   9.505  22.588  0.00  0.00    +0.000 A 
ATOM      6  C   UNL     1      -0.641  10.278  23.405  0.00  0.00    +0.000 A 
ATOM      7  C   UNL     1      -1.450  11.272  22.868  0.00  0.00    +0.000 A 
ATOM      8  C   UNL     1      -1.445  11.521  21.492  0.00  0.00    +0.000 A 
ATOM      9  C   UNL     1      -0.617  10.756  20.640  0.00  0.00    +0.000 A 
ENDROOT
BRANCH   1  10
ATOM     10  S   UNL     1      -1.081  11.891  18.113  0.00  0.00    +0.000 S 
BRANCH  10  11
ATOM     11  C   UNL     1      -2.848  11.502  18.228  0.00  0.00    +0.000 C 
BRANCH  11  14
ATOM     12  C   UNL     1      -2.886  10.194  14.658  0.00  0.00    +0.000 C 
ATOM     13  N   UNL     1      -2.481  10.627  15.972  0.00  0.00    +0.000 N 
ATOM     14  C   UNL     1      -3.399  11.162  16.854  0.00  0.00    +0.000 C 
ATOM     15  O   UNL     1      -4.563  11.396  16.539  0.00  0.00    +0.000 OA
ATOM     16  H   UNL     1      -1.575  10.343  16.328  0.00  0.00    +0.000 HD
ENDBRANCH  11  14
ENDBRANCH  10  11
ENDBRANCH   1  10
BRANCH   3  17
ATOM     17  C   UNL     1       1.925   8.151  20.312  0.00  0.00    +0.000 C 
BRANCH  17  18
ATOM     18  C   UNL     1       2.112   7.259  19.090  0.00  0.00    +0.000 C 
ATOM     19  O   UNL     1       2.124   7.711  17.942  0.00  0.00    +0.000 OA
ATOM     20  N   UNL     1       2.299   5.888  19.345  0.00  0.00    +0.000 N 
ATOM     21  C   UNL     1       2.696   5.024  18.229  0.00  0.00    +0.000 C 
ATOM     22  C   UNL     1       1.529   4.207  17.680  0.00  0.00    +0.000 C 
ATOM     23  C   UNL     1       1.158   2.995  18.532  0.00  0.00    +0.000 C 
ATOM     24  C   UNL     1       0.786   3.322  19.976  0.00  0.00    +0.000 C 
ATOM     25  C   UNL     1       1.982   3.809  20.792  0.00  0.00    +0.000 C 
ATOM     26  C   UNL     1       2.221   5.315  20.691  0.00  0.00    +0.000 C 
ENDBRANCH  17  18
ENDBRANCH   3  17
TORSDOF 5
ENDMDL
MODEL 7
REMARK VINA RESULT:      -7.5      1.108      1.224
REMARK  Name = 
REMARK  6 active torsions:
REMARK  status: ('A' for Active; 'I' for Inactive)
REMARK    1  A    between atoms: C_1  and  N_2
REMARK    2  A    between atoms: C_3  and  C_5
REMARK    3  A    between atoms: C_5  and  S_6
REMARK    4  A    between atoms: S_6  and  C_7
REMARK    5  A    between atoms: N_9  and  C_10
REMARK    6  A    between atoms: C_10  and  C_11
REMARK                            x       y       z     vdW  Elec       q    Type
REMARK                         _______ _______ _______ _____ _____    ______ ____
ROOT
ATOM      1  C   UNL     1       4.969   4.853  18.642  0.00  0.00    +0.000 A 
ATOM      2  C   UNL     1       4.498   6.009  19.218  0.00  0.00    +0.000 A 
ATOM      3  N   UNL     1       3.144   5.864  19.413  0.00  0.00    +0.000 N 
ATOM      4  C   UNL     1       2.726   4.632  18.944  0.00  0.00    +0.000 A 
ATOM      5  C   UNL     1       1.451   4.042  18.892  0.00  0.00    +0.000 A 
ATOM      6  C   UNL     1       1.337   2.755  18.355  0.00  0.00    +0.000 A 
ATOM      7  C   UNL     1       2.453   2.077  17.878  0.00  0.00    +0.000 A 
ATOM      8  C   UNL     1       3.716   2.674  17.925  0.00  0.00    +0.000 A 
ATOM      9  C   UNL     1       3.864   3.972  18.464  0.00  0.00    +0.000 A 
ENDROOT
BRANCH   1  10
ATOM     10  S   UNL     1       6.602   4.497  18.121  0.00  0.00    +0.000 S 
BRANCH  10  11
ATOM     11  C   UNL     1       6.939   5.827  16.935  0.00  0.00    +0.000 C 
BRANCH  11  14
ATOM     12  C   UNL     1       6.117   3.919  13.751  0.00  0.00    +0.000 C 
ATOM     13  N   UNL     1       6.713   4.366  14.985  0.00  0.00    +0.000 N 
ATOM     14  C   UNL     1       6.276   5.520  15.604  0.00  0.00    +0.000 C 
ATOM     15  O   UNL     1       5.449   6.273  15.095  0.00  0.00    +0.000 OA
ATOM     16  H   UNL     1       7.300   3.726  15.511  0.00  0.00    +0.000 HD
ENDBRANCH  11  14
ENDBRANCH  10  11
ENDBRANCH   1  10
BRANCH   3  17
ATOM     17  C   UNL     1       2.267   6.931  19.894  0.00  0.00    +0.000 C 
BRANCH  17  18
ATOM     18  C   UNL     1       2.068   8.075  18.906  0.00  0.00    +0.000 C 
ATOM     19  O   UNL     1       2.616   8.092  17.800  0.00  0.00    +0.000 OA
ATOM     20  N   UNL     1       1.200   9.104  19.313  0.00  0.00    +0.000 N 
ATOM     21  C   UNL     1       0.807  10.112  18.324  0.00  0.00    +0.000 C 
ATOM     22  C   UNL     1       1.566  11.426  18.496  0.00  0.00    +0.000 C 
ATOM     23  C   UNL     1       1.055  12.298  19.640  0.00  0.00    +0.000 C 
ATOM     24  C   UNL     1       1.078  11.628  21.011  0.00  0.00    +0.000 C 
ATOM     25  C   UNL     1       0.060  10.494  21.126  0.00  0.00    +0.000 C 
ATOM     26  C   UNL     1       0.590   9.145  20.645  0.00  0.00    +0.000 C 
ENDBRANCH  17  18
ENDBRANCH   3  17
TORSDOF 5
ENDMDL
MODEL 8
REMARK VINA RESULT:      -7.5      1.426      1.966
REMARK  Name = 
REMARK  6 active torsions:
REMARK  status: ('A' for Active; 'I' for Inactive)
REMARK    1  A    between atoms: C_1  and  N_2
REMARK    2  A    between atoms: C_3  and  C_5
REMARK    3  A    between atoms: C_5  and  S_6
REMARK    4  A    between atoms: S_6  and  C_7
REMARK    5  A    between atoms: N_9  and  C_10
REMARK    6  A    between atoms: C_10  and  C_11
REMARK                            x       y       z     vdW  Elec       q    Type
REMARK                         _______ _______ _______ _____ _____    ______ ____
ROOT
ATOM      1  C   UNL     1       5.046   5.221  18.046  0.00  0.00    +0.000 A 
ATOM      2  C   UNL     1       4.519   6.488  18.134  0.00  0.00    +0.000 A 
ATOM      3  N   UNL     1       3.151   6.373  18.224  0.00  0.00    +0.000 N 
ATOM      4  C   UNL     1       2.782   5.042  18.170  0.00  0.00    +0.000 A 
ATOM      5  C   UNL     1       1.518   4.427  18.193  0.00  0.00    +0.000 A 
ATOM      6  C   UNL     1       1.458   3.031  18.126  0.00  0.00    +0.000 A 
ATOM      7  C   UNL     1       2.616   2.269  18.033  0.00  0.00    +0.000 A 
ATOM      8  C   UNL     1       3.870   2.888  18.001  0.00  0.00    +0.000 A 
ATOM      9  C   UNL     1       3.963   4.296  18.070  0.00  0.00    +0.000 A 
ENDROOT
BRANCH   1  10
ATOM     10  S   UNL     1       6.724   4.763  17.854  0.00  0.00    +0.000 S 
BRANCH  10  11
ATOM     11  C   UNL     1       7.154   5.494  16.251  0.00  0.00    +0.000 C 
BRANCH  11  14
ATOM     12  C   UNL     1       6.821   4.173  12.702  0.00  0.00    +0.000 C 
ATOM     13  N   UNL     1       7.066   5.001  13.855  0.00  0.00    +0.000 N 
ATOM     14  C   UNL     1       6.772   4.548  15.126  0.00  0.00    +0.000 C 
ATOM     15  O   UNL     1       6.198   3.482  15.333  0.00  0.00    +0.000 OA
ATOM     16  H   UNL     1       7.649   5.826  13.757  0.00  0.00    +0.000 HD
ENDBRANCH  11  14
ENDBRANCH  10  11
ENDBRANCH   1  10
BRANCH   3  17
ATOM     17  C   UNL     1       2.232   7.511  18.211  0.00  0.00    +0.000 C 
BRANCH  17  18
ATOM     18  C   UNL     1       1.768   7.960  19.592  0.00  0.00    +0.000 C 
ATOM     19  O   UNL     1       1.746   7.196  20.561  0.00  0.00    +0.000 OA
ATOM     20  N   UNL     1       1.388   9.310  19.710  0.00  0.00    +0.000 N 
ATOM     21  C   UNL     1       1.141   9.846  21.052  0.00  0.00    +0.000 C 
ATOM     22  C   UNL     1      -0.348   9.964  21.370  0.00  0.00    +0.000 C 
ATOM     23  C   UNL     1      -1.031  11.168  20.726  0.00  0.00    +0.000 C 
ATOM     24  C   UNL     1      -0.930  11.219  19.204  0.00  0.00    +0.000 C 
ATOM     25  C   UNL     1       0.494  11.487  18.720  0.00  0.00    +0.000 C 
ATOM     26  C   UNL     1       1.337  10.222  18.565  0.00  0.00    +0.000 C 
ENDBRANCH  17  18
ENDBRANCH   3  17
TORSDOF 5
ENDMDL
MODEL 9
REMARK VINA RESULT:      -7.4      2.401      4.298
REMARK  Name = 
REMARK  6 active torsions:
REMARK  status: ('A' for Active; 'I' for Inactive)
REMARK    1  A    between atoms: C_1  and  N_2
REMARK    2  A    between atoms: C_3  and  C_5
REMARK    3  A    between atoms: C_5  and  S_6
REMARK    4  A    between atoms: S_6  and  C_7
REMARK    5  A    between atoms: N_9  and  C_10
REMARK    6  A    between atoms: C_10  and  C_11
REMARK                            x       y       z     vdW  Elec       q    Type
REMARK                         _______ _______ _______ _____ _____    ______ ____
ROOT
ATOM      1  C   UNL     1       2.838   4.253  17.644  0.00  0.00    +0.000 A 
ATOM      2  C   UNL     1       2.241   5.242  18.390  0.00  0.00    +0.000 A 
ATOM      3  N   UNL     1       3.056   6.350  18.354  0.00  0.00    +0.000 N 
ATOM      4  C   UNL     1       4.192   6.080  17.613  0.00  0.00    +0.000 A 
ATOM      5  C   UNL     1       5.317   6.869  17.317  0.00  0.00    +0.000 A 
ATOM      6  C   UNL     1       6.326   6.314  16.522  0.00  0.00    +0.000 A 
ATOM      7  C   UNL     1       6.224   5.015  16.040  0.00  0.00    +0.000 A 
ATOM      8  C   UNL     1       5.106   4.233  16.345  0.00  0.00    +0.000 A 
ATOM      9  C   UNL     1       4.069   4.766  17.144  0.00  0.00    +0.000 A 
ENDROOT
BRANCH   1  10
ATOM     10  S   UNL     1       2.280   2.614  17.386  0.00  0.00    +0.000 S 
BRANCH  10  11
ATOM     11  C   UNL     1       3.450   1.637  18.366  0.00  0.00    +0.000 C 
BRANCH  11  14
ATOM     12  C   UNL     1       2.370   2.876  21.794  0.00  0.00    +0.000 C 
ATOM     13  N   UNL     1       2.387   2.396  20.436  0.00  0.00    +0.000 N 
ATOM     14  C   UNL     1       3.579   2.223  19.762  0.00  0.00    +0.000 C 
ATOM     15  O   UNL     1       4.662   2.563  20.232  0.00  0.00    +0.000 OA
ATOM     16  H   UNL     1       1.546   1.981  20.048  0.00  0.00    +0.000 HD
ENDBRANCH  11  14
ENDBRANCH  10  11
ENDBRANCH   1  10
BRANCH   3  17
ATOM     17  C   UNL     1       2.818   7.566  19.130  0.00  0.00    +0.000 C 
BRANCH  17  18
ATOM     18  C   UNL     1       1.989   8.622  18.407  0.00  0.00    +0.000 C 
ATOM     19  O   UNL     1       2.191   8.922  17.227  0.00  0.00    +0.000 OA
ATOM     20  N   UNL     1       0.959   9.221  19.154  0.00  0.00    +0.000 N 
ATOM     21  C   UNL     1       0.001  10.079  18.450  0.00  0.00    +0.000 C 
ATOM     22  C   UNL     1       0.280  11.565  18.665  0.00  0.00    +0.000 C 
ATOM     23  C   UNL     1      -0.183  12.099  20.018  0.00  0.00    +0.000 C 
ATOM     24  C   UNL     1       0.424  11.388  21.225  0.00  0.00    +0.000 C 
ATOM     25  C   UNL     1      -0.076   9.952  21.371  0.00  0.00    +0.000 C 
ATOM     26  C   UNL     1       0.741   8.935  20.575  0.00  0.00    +0.000 C 
ENDBRANCH  17  18
ENDBRANCH   3  17
TORSDOF 5
ENDMDL
