MODEL 1
REMARK VINA RESULT:      -7.7      0.000      0.000
REMARK  Name = 
REMARK  14 active torsions:
REMARK  status: ('A' for Active; 'I' for Inactive)
REMARK    1  A    between atoms: C_1  and  C_2
REMARK    2  A    between atoms: C_2  and  O_3
REMARK    3  A    between atoms: O_3  and  C_4
REMARK    4  A    between atoms: C_7  and  C_8
REMARK    5  A    between atoms: C_8  and  C_9
REMARK    6  A    between atoms: C_9  and  C_10
REMARK    7  A    between atoms: N_12  and  C_13
REMARK    8  A    between atoms: C_16  and  N_17
REMARK    9  A    between atoms: C_18  and  C_20
REMARK   10  A    between atoms: C_20  and  O_21
REMARK   11  A    between atoms: C_20  and  C_22
REMARK   12  A    between atoms: C_22  and  N_23
REMARK   13  A    between atoms: C_22  and  C_24
REMARK   14  A    between atoms: C_24  and  C_25
REMARK                            x       y       z     vdW  Elec       q    Type
REMARK                         _______ _______ _______ _____ _____    ______ ____
ROOT
ATOM      1  C   UNL     1       2.306   7.127  19.378  0.00  0.00    +0.000 A 
ATOM      2  C   UNL     1       2.365   8.041  18.325  0.00  0.00    +0.000 A 
ATOM      3  C   UNL     1       1.680   9.267  18.406  0.00  0.00    +0.000 A 
ATOM      4  C   UNL     1       0.978   9.622  19.560  0.00  0.00    +0.000 A 
ATOM      5  C   UNL     1       1.002   8.739  20.646  0.00  0.00    +0.000 A 
ATOM      6  C   UNL     1       1.619   7.485  20.540  0.00  0.00    +0.000 A 
ENDROOT
BRANCH   1   9
ATOM      7  C   UNL     1       2.333   4.784  18.551  0.00  0.00    +0.000 C 
ATOM      8  O   UNL     1       1.439   4.883  17.718  0.00  0.00    +0.000 OA
ATOM      9  N   UNL     1       2.846   5.827  19.302  0.00  0.00    +0.000 N 
ATOM     10  H   UNL     1       3.778   5.706  19.675  0.00  0.00    +0.000 HD
BRANCH   7  11
ATOM     11  C   UNL     1       2.983   3.445  18.845  0.00  0.00    +0.000 C 
BRANCH  11  12
ATOM     12  C   UNL     1       4.011   3.131  17.765  0.00  0.00    +0.000 C 
BRANCH  12  16
ATOM     13  C   UNL     1       6.811   6.387  17.253  0.00  0.00    +0.000 A 
ATOM     14  C   UNL     1       5.857   6.115  16.270  0.00  0.00    +0.000 A 
ATOM     15  C   UNL     1       4.962   5.055  16.428  0.00  0.00    +0.000 A 
ATOM     16  C   UNL     1       5.012   4.242  17.565  0.00  0.00    +0.000 A 
ATOM     17  C   UNL     1       6.002   4.487  18.523  0.00  0.00    +0.000 A 
ATOM     18  C   UNL     1       6.897   5.552  18.368  0.00  0.00    +0.000 A 
BRANCH  13  19
ATOM     19  O   UNL     1       7.606   7.470  17.010  0.00  0.00    +0.000 OA
BRANCH  19  21
ATOM     20  C   UNL     1       8.243   9.555  17.967  0.00  0.00    +0.000 C 
ATOM     21  C   UNL     1       8.258   8.047  18.140  0.00  0.00    +0.000 C 
ENDBRANCH  19  21
ENDBRANCH  13  19
ENDBRANCH  12  16
ENDBRANCH  11  12
ENDBRANCH   7  11
ENDBRANCH   1   9
BRANCH   4  22
ATOM     22  N   UNL     1       0.209  10.802  19.696  0.00  0.00    +0.000 N 
ATOM     23  C   UNL     1       0.503  11.918  20.460  0.00  0.00    +0.000 C 
ATOM     24  O   UNL     1       1.478  12.033  21.205  0.00  0.00    +0.000 OA
ATOM     25  H   UNL     1      -0.627  10.887  19.113  0.00  0.00    +0.000 HD
BRANCH  23  26
ATOM     26  C   UNL     1      -0.414  13.158  20.198  0.00  0.00    +0.000 C 
BRANCH  26  27
ATOM     27  O   UNL     1      -1.777  12.753  20.350  0.00  0.00    +0.000 OA
ATOM     28  H   UNL     1      -2.292  13.583  20.422  0.00  0.00    +0.000 HD
ENDBRANCH  26  27
BRANCH  26  29
ATOM     29  C   UNL     1      -0.196  13.817  18.807  0.00  0.00    +0.000 C 
BRANCH  29  30
ATOM     30  N   UNL     1      -0.901  13.016  17.774  0.00  0.00    +0.000 NA
ATOM     31  H   UNL     1      -0.383  13.102  16.895  0.00  0.00    +0.000 HD
ATOM     32  H   UNL     1      -1.803  13.458  17.585  0.00  0.00    +0.000 HD
ENDBRANCH  29  30
BRANCH  29  33
ATOM     33  C   UNL     1       1.306  14.005  18.400  0.00  0.00    +0.000 C 
BRANCH  33  34
ATOM     34  C   UNL     1       1.921  15.385  18.802  0.00  0.00    +0.000 C 
ATOM     35  C   UNL     1       2.566  15.373  20.198  0.00  0.00    +0.000 C 
ATOM     36  C   UNL     1       3.852  14.552  20.223  0.00  0.00    +0.000 C 
ATOM     37  C   UNL     1       4.879  15.148  19.266  0.00  0.00    +0.000 C 
ATOM     38  C   UNL     1       4.329  15.273  17.847  0.00  0.00    +0.000 C 
ATOM     39  C   UNL     1       2.951  15.934  17.788  0.00  0.00    +0.000 C 
ENDBRANCH  33  34
ENDBRANCH  29  33
ENDBRANCH  26  29
ENDBRANCH  23  26
ENDBRANCH   4  22
TORSDOF 13
ENDMDL
MODEL 2
REMARK VINA RESULT:      -7.6      1.497      2.288
REMARK  Name = 
REMARK  14 active torsions:
REMARK  status: ('A' for Active; 'I' for Inactive)
REMARK    1  A    between atoms: C_1  and  C_2
REMARK    2  A    between atoms: C_2  and  O_3
REMARK    3  A    between atoms: O_3  and  C_4
REMARK    4  A    between atoms: C_7  and  C_8
REMARK    5  A    between atoms: C_8  and  C_9
REMARK    6  A    between atoms: C_9  and  C_10
REMARK    7  A    between atoms: N_12  and  C_13
REMARK    8  A    between atoms: C_16  and  N_17
REMARK    9  A    between atoms: C_18  and  C_20
REMARK   10  A    between atoms: C_20  and  O_21
REMARK   11  A    between atoms: C_20  and  C_22
REMARK   12  A    between atoms: C_22  and  N_23
REMARK   13  A    between atoms: C_22  and  C_24
REMARK   14  A    between atoms: C_24  and  C_25
REMARK                            x       y       z     vdW  Elec       q    Type
REMARK                         _______ _______ _______ _____ _____    ______ ____
ROOT
ATOM      1  C   UNL     1       2.368   7.017  19.097  0.00  0.00    +0.000 A 
ATOM      2  C   UNL     1       1.824   7.304  20.350  0.00  0.00    +0.000 A 
ATOM      3  C   UNL     1       1.222   8.552  20.596  0.00  0.00    +0.000 A 
ATOM      4  C   UNL     1       1.102   9.503  19.581  0.00  0.00    +0.000 A 
ATOM      5  C   UNL     1       1.567   9.170  18.303  0.00  0.00    +0.000 A 
ATOM      6  C   UNL     1       2.236   7.959  18.075  0.00  0.00    +0.000 A 
ENDROOT
BRANCH   1   9
ATOM      7  C   UNL     1       2.638   4.728  18.166  0.00  0.00    +0.000 C 
ATOM      8  O   UNL     1       1.567   4.653  17.575  0.00  0.00    +0.000 OA
ATOM      9  N   UNL     1       3.110   5.849  18.828  0.00  0.00    +0.000 N 
ATOM     10  H   UNL     1       4.110   5.911  18.964  0.00  0.00    +0.000 HD
BRANCH   7  11
ATOM     11  C   UNL     1       3.582   3.542  18.229  0.00  0.00    +0.000 C 
BRANCH  11  12
ATOM     12  C   UNL     1       4.685   3.715  17.191  0.00  0.00    +0.000 C 
BRANCH  12  16
ATOM     13  C   UNL     1       7.518   6.852  18.108  0.00  0.00    +0.000 A 
ATOM     14  C   UNL     1       7.337   5.784  18.988  0.00  0.00    +0.000 A 
ATOM     15  C   UNL     1       6.413   4.778  18.701  0.00  0.00    +0.000 A 
ATOM     16  C   UNL     1       5.645   4.828  17.533  0.00  0.00    +0.000 A 
ATOM     17  C   UNL     1       5.792   5.926  16.678  0.00  0.00    +0.000 A 
ATOM     18  C   UNL     1       6.722   6.933  16.964  0.00  0.00    +0.000 A 
BRANCH  13  19
ATOM     19  O   UNL     1       8.475   7.754  18.472  0.00  0.00    +0.000 OA
BRANCH  19  21
ATOM     20  C   UNL     1       9.069  10.007  18.961  0.00  0.00    +0.000 C 
ATOM     21  C   UNL     1       8.285   9.097  18.033  0.00  0.00    +0.000 C 
ENDBRANCH  19  21
ENDBRANCH  13  19
ENDBRANCH  12  16
ENDBRANCH  11  12
ENDBRANCH   7  11
ENDBRANCH   1   9
BRANCH   4  22
ATOM     22  N   UNL     1       0.574  10.803  19.763  0.00  0.00    +0.000 N 
ATOM     23  C   UNL     1      -0.721  11.230  19.519  0.00  0.00    +0.000 C 
ATOM     24  O   UNL     1      -1.619  10.538  19.036  0.00  0.00    +0.000 OA
ATOM     25  H   UNL     1       1.184  11.502  20.192  0.00  0.00    +0.000 HD
BRANCH  23  26
ATOM     26  C   UNL     1      -1.058  12.658  20.064  0.00  0.00    +0.000 C 
BRANCH  26  27
ATOM     27  O   UNL     1      -2.435  12.681  20.450  0.00  0.00    +0.000 OA
ATOM     28  H   UNL     1      -2.743  13.595  20.271  0.00  0.00    +0.000 HD
ENDBRANCH  26  27
BRANCH  26  29
ATOM     29  C   UNL     1      -0.758  13.801  19.054  0.00  0.00    +0.000 C 
BRANCH  29  30
ATOM     30  N   UNL     1      -0.743  13.243  17.678  0.00  0.00    +0.000 NA
ATOM     31  H   UNL     1      -0.112  12.437  17.668  0.00  0.00    +0.000 HD
ATOM     32  H   UNL     1      -0.299  13.925  17.059  0.00  0.00    +0.000 HD
ENDBRANCH  29  30
BRANCH  29  33
ATOM     33  C   UNL     1       0.574  14.581  19.326  0.00  0.00    +0.000 C 
BRANCH  33  34
ATOM     34  C   UNL     1       0.377  16.052  19.821  0.00  0.00    +0.000 C 
ATOM     35  C   UNL     1       1.638  16.916  19.659  0.00  0.00    +0.000 C 
ATOM     36  C   UNL     1       1.933  17.223  18.193  0.00  0.00    +0.000 C 
ATOM     37  C   UNL     1       0.779  18.003  17.573  0.00  0.00    +0.000 C 
ATOM     38  C   UNL     1      -0.552  17.272  17.729  0.00  0.00    +0.000 C 
ATOM     39  C   UNL     1      -0.812  16.784  19.156  0.00  0.00    +0.000 C 
ENDBRANCH  33  34
ENDBRANCH  29  33
ENDBRANCH  26  29
ENDBRANCH  23  26
ENDBRANCH   4  22
TORSDOF 13
ENDMDL
MODEL 3
REMARK VINA RESULT:      -7.6      2.825      4.604
REMARK  Name = 
REMARK  14 active torsions:
REMARK  status: ('A' for Active; 'I' for Inactive)
REMARK    1  A    between atoms: C_1  and  C_2
REMARK    2  A    between atoms: C_2  and  O_3
REMARK    3  A    between atoms: O_3  and  C_4
REMARK    4  A    between atoms: C_7  and  C_8
REMARK    5  A    between atoms: C_8  and  C_9
REMARK    6  A    between atoms: C_9  and  C_10
REMARK    7  A    between atoms: N_12  and  C_13
REMARK    8  A    between atoms: C_16  and  N_17
REMARK    9  A    between atoms: C_18  and  C_20
REMARK   10  A    between atoms: C_20  and  O_21
REMARK   11  A    between atoms: C_20  and  C_22
REMARK   12  A    between atoms: C_22  and  N_23
REMARK   13  A    between atoms: C_22  and  C_24
REMARK   14  A    between atoms: C_24  and  C_25
REMARK                            x       y       z     vdW  Elec       q    Type
REMARK                         _______ _______ _______ _____ _____    ______ ____
ROOT
ATOM      1  C   UNL     1       2.270   6.464  18.703  0.00  0.00    +0.000 A 
ATOM      2  C   UNL     1       1.868   6.484  20.040  0.00  0.00    +0.000 A 
ATOM      3  C   UNL     1       1.487   7.693  20.651  0.00  0.00    +0.000 A 
ATOM      4  C   UNL     1       1.445   8.884  19.922  0.00  0.00    +0.000 A 
ATOM      5  C   UNL     1       1.760   8.836  18.559  0.00  0.00    +0.000 A 
ATOM      6  C   UNL     1       2.214   7.649  17.967  0.00  0.00    +0.000 A 
ENDROOT
BRANCH   1   9
ATOM      7  C   UNL     1       3.652   4.399  18.663  0.00  0.00    +0.000 C 
ATOM      8  O   UNL     1       3.935   4.355  19.855  0.00  0.00    +0.000 OA
ATOM      9  N   UNL     1       2.800   5.319  18.075  0.00  0.00    +0.000 N 
ATOM     10  H   UNL     1       2.378   5.053  17.196  0.00  0.00    +0.000 HD
BRANCH   7  11
ATOM     11  C   UNL     1       4.243   3.404  17.681  0.00  0.00    +0.000 C 
BRANCH  11  12
ATOM     12  C   UNL     1       4.978   4.155  16.577  0.00  0.00    +0.000 C 
BRANCH  12  16
ATOM     13  C   UNL     1       7.784   7.021  18.195  0.00  0.00    +0.000 A 
ATOM     14  C   UNL     1       6.825   7.420  17.261  0.00  0.00    +0.000 A 
ATOM     15  C   UNL     1       5.929   6.493  16.728  0.00  0.00    +0.000 A 
ATOM     16  C   UNL     1       5.980   5.149  17.109  0.00  0.00    +0.000 A 
ATOM     17  C   UNL     1       6.976   4.743  18.006  0.00  0.00    +0.000 A 
ATOM     18  C   UNL     1       7.873   5.673  18.545  0.00  0.00    +0.000 A 
BRANCH  13  19
ATOM     19  O   UNL     1       8.580   8.019  18.677  0.00  0.00    +0.000 OA
BRANCH  19  21
ATOM     20  C   UNL     1       9.235  10.296  18.918  0.00  0.00    +0.000 C 
ATOM     21  C   UNL     1       8.350   9.327  18.156  0.00  0.00    +0.000 C 
ENDBRANCH  19  21
ENDBRANCH  13  19
ENDBRANCH  12  16
ENDBRANCH  11  12
ENDBRANCH   7  11
ENDBRANCH   1   9
BRANCH   4  22
ATOM     22  N   UNL     1       1.139  10.149  20.476  0.00  0.00    +0.000 N 
ATOM     23  C   UNL     1      -0.076  10.812  20.449  0.00  0.00    +0.000 C 
ATOM     24  O   UNL     1      -1.089  10.416  19.870  0.00  0.00    +0.000 OA
ATOM     25  H   UNL     1       1.868  10.609  21.027  0.00  0.00    +0.000 HD
BRANCH  23  26
ATOM     26  C   UNL     1      -0.161  12.073  21.371  0.00  0.00    +0.000 C 
BRANCH  26  27
ATOM     27  O   UNL     1       1.152  12.622  21.510  0.00  0.00    +0.000 OA
ATOM     28  H   UNL     1       1.753  11.979  21.078  0.00  0.00    +0.000 HD
ENDBRANCH  26  27
BRANCH  26  29
ATOM     29  C   UNL     1      -0.780  11.787  22.768  0.00  0.00    +0.000 C 
BRANCH  29  30
ATOM     30  N   UNL     1      -0.396  10.419  23.199  0.00  0.00    +0.000 NA
ATOM     31  H   UNL     1      -1.143   9.776  22.923  0.00  0.00    +0.000 HD
ATOM     32  H   UNL     1      -0.399  10.391  24.221  0.00  0.00    +0.000 HD
ENDBRANCH  29  30
BRANCH  29  33
ATOM     33  C   UNL     1      -2.337  11.949  22.841  0.00  0.00    +0.000 C 
BRANCH  33  34
ATOM     34  C   UNL     1      -2.823  13.219  23.614  0.00  0.00    +0.000 C 
ATOM     35  C   UNL     1      -3.220  14.376  22.683  0.00  0.00    +0.000 C 
ATOM     36  C   UNL     1      -4.512  14.081  21.927  0.00  0.00    +0.000 C 
ATOM     37  C   UNL     1      -5.665  13.884  22.905  0.00  0.00    +0.000 C 
ATOM     38  C   UNL     1      -5.362  12.795  23.932  0.00  0.00    +0.000 C 
ATOM     39  C   UNL     1      -3.991  12.950  24.592  0.00  0.00    +0.000 C 
ENDBRANCH  33  34
ENDBRANCH  29  33
ENDBRANCH  26  29
ENDBRANCH  23  26
ENDBRANCH   4  22
TORSDOF 13
ENDMDL
MODEL 4
REMARK VINA RESULT:      -7.6      3.105      4.077
REMARK  Name = 
REMARK  14 active torsions:
REMARK  status: ('A' for Active; 'I' for Inactive)
REMARK    1  A    between atoms: C_1  and  C_2
REMARK    2  A    between atoms: C_2  and  O_3
REMARK    3  A    between atoms: O_3  and  C_4
REMARK    4  A    between atoms: C_7  and  C_8
REMARK    5  A    between atoms: C_8  and  C_9
REMARK    6  A    between atoms: C_9  and  C_10
REMARK    7  A    between atoms: N_12  and  C_13
REMARK    8  A    between atoms: C_16  and  N_17
REMARK    9  A    between atoms: C_18  and  C_20
REMARK   10  A    between atoms: C_20  and  O_21
REMARK   11  A    between atoms: C_20  and  C_22
REMARK   12  A    between atoms: C_22  and  N_23
REMARK   13  A    between atoms: C_22  and  C_24
REMARK   14  A    between atoms: C_24  and  C_25
REMARK                            x       y       z     vdW  Elec       q    Type
REMARK                         _______ _______ _______ _____ _____    ______ ____
ROOT
ATOM      1  C   UNL     1       2.100   7.186  20.078  0.00  0.00    +0.000 A 
ATOM      2  C   UNL     1       2.302   7.713  18.801  0.00  0.00    +0.000 A 
ATOM      3  C   UNL     1       1.639   8.888  18.402  0.00  0.00    +0.000 A 
ATOM      4  C   UNL     1       0.815   9.583  19.290  0.00  0.00    +0.000 A 
ATOM      5  C   UNL     1       0.691   9.098  20.597  0.00  0.00    +0.000 A 
ATOM      6  C   UNL     1       1.288   7.886  20.972  0.00  0.00    +0.000 A 
ENDROOT
BRANCH   1   9
ATOM      7  C   UNL     1       1.895   4.763  20.590  0.00  0.00    +0.000 C 
ATOM      8  O   UNL     1       0.751   4.595  20.183  0.00  0.00    +0.000 OA
ATOM      9  N   UNL     1       2.616   5.940  20.488  0.00  0.00    +0.000 N 
ATOM     10  H   UNL     1       3.624   5.863  20.528  0.00  0.00    +0.000 HD
BRANCH   7  11
ATOM     11  C   UNL     1       2.654   3.642  21.277  0.00  0.00    +0.000 C 
BRANCH  11  12
ATOM     12  C   UNL     1       3.059   2.597  20.244  0.00  0.00    +0.000 C 
BRANCH  12  16
ATOM     13  C   UNL     1       5.399   4.153  16.957  0.00  0.00    +0.000 A 
ATOM     14  C   UNL     1       5.852   4.284  18.271  0.00  0.00    +0.000 A 
ATOM     15  C   UNL     1       5.091   3.795  19.334  0.00  0.00    +0.000 A 
ATOM     16  C   UNL     1       3.859   3.176  19.104  0.00  0.00    +0.000 A 
ATOM     17  C   UNL     1       3.385   3.092  17.790  0.00  0.00    +0.000 A 
ATOM     18  C   UNL     1       4.149   3.579  16.723  0.00  0.00    +0.000 A 
BRANCH  13  19
ATOM     19  O   UNL     1       6.243   4.632  15.998  0.00  0.00    +0.000 OA
BRANCH  19  21
ATOM     20  C   UNL     1       6.284   3.997  13.703  0.00  0.00    +0.000 C 
ATOM     21  C   UNL     1       5.663   4.928  14.729  0.00  0.00    +0.000 C 
ENDBRANCH  19  21
ENDBRANCH  13  19
ENDBRANCH  12  16
ENDBRANCH  11  12
ENDBRANCH   7  11
ENDBRANCH   1   9
BRANCH   4  22
ATOM     22  N   UNL     1       0.061  10.731  18.947  0.00  0.00    +0.000 N 
ATOM     23  C   UNL     1      -1.143  10.778  18.266  0.00  0.00    +0.000 C 
ATOM     24  O   UNL     1      -1.729   9.804  17.789  0.00  0.00    +0.000 OA
ATOM     25  H   UNL     1       0.393  11.632  19.298  0.00  0.00    +0.000 HD
BRANCH  23  26
ATOM     26  C   UNL     1      -1.850  12.174  18.269  0.00  0.00    +0.000 C 
BRANCH  26  27
ATOM     27  O   UNL     1      -0.945  13.140  17.729  0.00  0.00    +0.000 OA
ATOM     28  H   UNL     1      -1.490  13.932  17.537  0.00  0.00    +0.000 HD
ENDBRANCH  26  27
BRANCH  26  29
ATOM     29  C   UNL     1      -2.348  12.621  19.672  0.00  0.00    +0.000 C 
BRANCH  29  30
ATOM     30  N   UNL     1      -3.741  13.121  19.556  0.00  0.00    +0.000 NA
ATOM     31  H   UNL     1      -4.238  12.887  20.420  0.00  0.00    +0.000 HD
ATOM     32  H   UNL     1      -4.218  12.580  18.832  0.00  0.00    +0.000 HD
ENDBRANCH  29  30
BRANCH  29  33
ATOM     33  C   UNL     1      -1.452  13.700  20.372  0.00  0.00    +0.000 C 
BRANCH  33  34
ATOM     34  C   UNL     1      -0.802  13.234  21.716  0.00  0.00    +0.000 C 
ATOM     35  C   UNL     1      -0.790  14.332  22.792  0.00  0.00    +0.000 C 
ATOM     36  C   UNL     1      -2.191  14.622  23.324  0.00  0.00    +0.000 C 
ATOM     37  C   UNL     1      -2.781  13.374  23.970  0.00  0.00    +0.000 C 
ATOM     38  C   UNL     1      -2.788  12.185  23.013  0.00  0.00    +0.000 C 
ATOM     39  C   UNL     1      -1.444  11.962  22.316  0.00  0.00    +0.000 C 
ENDBRANCH  33  34
ENDBRANCH  29  33
ENDBRANCH  26  29
ENDBRANCH  23  26
ENDBRANCH   4  22
TORSDOF 13
ENDMDL
MODEL 5
REMARK VINA RESULT:      -7.6      3.290     10.963
REMARK  Name = 
REMARK  14 active torsions:
REMARK  status: ('A' for Active; 'I' for Inactive)
REMARK    1  A    between atoms: C_1  and  C_2
REMARK    2  A    between atoms: C_2  and  O_3
REMARK    3  A    between atoms: O_3  and  C_4
REMARK    4  A    between atoms: C_7  and  C_8
REMARK    5  A    between atoms: C_8  and  C_9
REMARK    6  A    between atoms: C_9  and  C_10
REMARK    7  A    between atoms: N_12  and  C_13
REMARK    8  A    between atoms: C_16  and  N_17
REMARK    9  A    between atoms: C_18  and  C_20
REMARK   10  A    between atoms: C_20  and  O_21
REMARK   11  A    between atoms: C_20  and  C_22
REMARK   12  A    between atoms: C_22  and  N_23
REMARK   13  A    between atoms: C_22  and  C_24
REMARK   14  A    between atoms: C_24  and  C_25
REMARK                            x       y       z     vdW  Elec       q    Type
REMARK                         _______ _______ _______ _____ _____    ______ ____
ROOT
ATOM      1  C   UNL     1       0.783   9.799  19.546  0.00  0.00    +0.000 A 
ATOM      2  C   UNL     1       1.237   9.494  18.261  0.00  0.00    +0.000 A 
ATOM      3  C   UNL     1       2.044   8.364  18.041  0.00  0.00    +0.000 A 
ATOM      4  C   UNL     1       2.358   7.492  19.086  0.00  0.00    +0.000 A 
ATOM      5  C   UNL     1       1.822   7.755  20.351  0.00  0.00    +0.000 A 
ATOM      6  C   UNL     1       1.082   8.922  20.589  0.00  0.00    +0.000 A 
ENDROOT
BRANCH   1   9
ATOM      7  C   UNL     1      -1.144  11.358  19.364  0.00  0.00    +0.000 C 
ATOM      8  O   UNL     1      -1.894  10.634  18.719  0.00  0.00    +0.000 OA
ATOM      9  N   UNL     1       0.096  10.990  19.858  0.00  0.00    +0.000 N 
ATOM     10  H   UNL     1       0.451  11.521  20.642  0.00  0.00    +0.000 HD
BRANCH   7  11
ATOM     11  C   UNL     1      -1.527  12.791  19.688  0.00  0.00    +0.000 C 
BRANCH  11  12
ATOM     12  C   UNL     1      -1.344  13.039  21.181  0.00  0.00    +0.000 C 
BRANCH  12  16
ATOM     13  C   UNL     1      -5.021  12.567  23.409  0.00  0.00    +0.000 A 
ATOM     14  C   UNL     1      -5.052  12.748  22.025  0.00  0.00    +0.000 A 
ATOM     15  C   UNL     1      -3.866  12.915  21.307  0.00  0.00    +0.000 A 
ATOM     16  C   UNL     1      -2.630  12.915  21.960  0.00  0.00    +0.000 A 
ATOM     17  C   UNL     1      -2.607  12.784  23.353  0.00  0.00    +0.000 A 
ATOM     18  C   UNL     1      -3.794  12.612  24.074  0.00  0.00    +0.000 A 
BRANCH  13  19
ATOM     19  O   UNL     1      -6.236  12.375  24.000  0.00  0.00    +0.000 OA
BRANCH  19  21
ATOM     20  C   UNL     1      -7.845  14.124  24.130  0.00  0.00    +0.000 C 
ATOM     21  C   UNL     1      -7.366  12.928  23.328  0.00  0.00    +0.000 C 
ENDBRANCH  19  21
ENDBRANCH  13  19
ENDBRANCH  12  16
ENDBRANCH  11  12
ENDBRANCH   7  11
ENDBRANCH   1   9
BRANCH   4  22
ATOM     22  N   UNL     1       3.217   6.374  18.962  0.00  0.00    +0.000 N 
ATOM     23  C   UNL     1       4.253   6.201  18.059  0.00  0.00    +0.000 C 
ATOM     24  O   UNL     1       4.554   6.990  17.163  0.00  0.00    +0.000 OA
ATOM     25  H   UNL     1       3.123   5.630  19.657  0.00  0.00    +0.000 HD
BRANCH  23  26
ATOM     26  C   UNL     1       5.178   4.971  18.344  0.00  0.00    +0.000 C 
BRANCH  26  27
ATOM     27  O   UNL     1       6.502   5.291  17.910  0.00  0.00    +0.000 OA
ATOM     28  H   UNL     1       6.524   5.080  16.953  0.00  0.00    +0.000 HD
ENDBRANCH  26  27
BRANCH  26  29
ATOM     29  C   UNL     1       4.692   3.654  17.678  0.00  0.00    +0.000 C 
BRANCH  29  30
ATOM     30  N   UNL     1       5.353   3.505  16.356  0.00  0.00    +0.000 NA
ATOM     31  H   UNL     1       6.217   2.972  16.490  0.00  0.00    +0.000 HD
ATOM     32  H   UNL     1       5.667   4.428  16.048  0.00  0.00    +0.000 HD
ENDBRANCH  29  30
BRANCH  29  33
ATOM     33  C   UNL     1       3.138   3.538  17.511  0.00  0.00    +0.000 C 
BRANCH  33  34
ATOM     34  C   UNL     1       2.484   2.363  18.308  0.00  0.00    +0.000 C 
ATOM     35  C   UNL     1       3.211   2.050  19.626  0.00  0.00    +0.000 C 
ATOM     36  C   UNL     1       3.006   3.151  20.663  0.00  0.00    +0.000 C 
ATOM     37  C   UNL     1       1.526   3.293  20.998  0.00  0.00    +0.000 C 
ATOM     38  C   UNL     1       0.681   3.544  19.751  0.00  0.00    +0.000 C 
ATOM     39  C   UNL     1       0.981   2.568  18.611  0.00  0.00    +0.000 C 
ENDBRANCH  33  34
ENDBRANCH  29  33
ENDBRANCH  26  29
ENDBRANCH  23  26
ENDBRANCH   4  22
TORSDOF 13
ENDMDL
MODEL 6
REMARK VINA RESULT:      -7.5      2.084      2.701
REMARK  Name = 
REMARK  14 active torsions:
REMARK  status: ('A' for Active; 'I' for Inactive)
REMARK    1  A    between atoms: C_1  and  C_2
REMARK    2  A    between atoms: C_2  and  O_3
REMARK    3  A    between atoms: O_3  and  C_4
REMARK    4  A    between atoms: C_7  and  C_8
REMARK    5  A    between atoms: C_8  and  C_9
REMARK    6  A    between atoms: C_9  and  C_10
REMARK    7  A    between atoms: N_12  and  C_13
REMARK    8  A    between atoms: C_16  and  N_17
REMARK    9  A    between atoms: C_18  and  C_20
REMARK   10  A    between atoms: C_20  and  O_21
REMARK   11  A    between atoms: C_20  and  C_22
REMARK   12  A    between atoms: C_22  and  N_23
REMARK   13  A    between atoms: C_22  and  C_24
REMARK   14  A    between atoms: C_24  and  C_25
REMARK                            x       y       z     vdW  Elec       q    Type
REMARK                         _______ _______ _______ _____ _____    ______ ____
ROOT
ATOM      1  C   UNL     1       1.964   6.942  20.300  0.00  0.00    +0.000 A 
ATOM      2  C   UNL     1       1.127   7.604  21.199  0.00  0.00    +0.000 A 
ATOM      3  C   UNL     1       0.639   8.890  20.904  0.00  0.00    +0.000 A 
ATOM      4  C   UNL     1       0.931   9.506  19.685  0.00  0.00    +0.000 A 
ATOM      5  C   UNL     1       1.695   8.796  18.751  0.00  0.00    +0.000 A 
ATOM      6  C   UNL     1       2.246   7.547  19.074  0.00  0.00    +0.000 A 
ENDROOT
BRANCH   1   9
ATOM      7  C   UNL     1       1.981   4.485  20.672  0.00  0.00    +0.000 C 
ATOM      8  O   UNL     1       0.827   4.249  20.331  0.00  0.00    +0.000 OA
ATOM      9  N   UNL     1       2.601   5.720  20.596  0.00  0.00    +0.000 N 
ATOM     10  H   UNL     1       3.612   5.722  20.565  0.00  0.00    +0.000 HD
BRANCH   7  11
ATOM     11  C   UNL     1       2.869   3.391  21.236  0.00  0.00    +0.000 C 
BRANCH  11  12
ATOM     12  C   UNL     1       3.283   2.445  20.115  0.00  0.00    +0.000 C 
BRANCH  12  16
ATOM     13  C   UNL     1       5.235   4.561  16.888  0.00  0.00    +0.000 A 
ATOM     14  C   UNL     1       4.077   3.819  16.648  0.00  0.00    +0.000 A 
ATOM     15  C   UNL     1       3.455   3.124  17.686  0.00  0.00    +0.000 A 
ATOM     16  C   UNL     1       3.983   3.149  18.980  0.00  0.00    +0.000 A 
ATOM     17  C   UNL     1       5.172   3.853  19.206  0.00  0.00    +0.000 A 
ATOM     18  C   UNL     1       5.795   4.554  18.167  0.00  0.00    +0.000 A 
BRANCH  13  19
ATOM     19  O   UNL     1       5.734   5.231  15.809  0.00  0.00    +0.000 OA
BRANCH  19  21
ATOM     20  C   UNL     1       6.293   4.040  13.825  0.00  0.00    +0.000 C 
ATOM     21  C   UNL     1       6.824   4.615  15.125  0.00  0.00    +0.000 C 
ENDBRANCH  19  21
ENDBRANCH  13  19
ENDBRANCH  12  16
ENDBRANCH  11  12
ENDBRANCH   7  11
ENDBRANCH   1   9
BRANCH   4  22
ATOM     22  N   UNL     1       0.538  10.820  19.340  0.00  0.00    +0.000 N 
ATOM     23  C   UNL     1      -0.583  11.206  18.624  0.00  0.00    +0.000 C 
ATOM     24  O   UNL     1      -1.400  10.438  18.114  0.00  0.00    +0.000 OA
ATOM     25  H   UNL     1       1.095  11.591  19.716  0.00  0.00    +0.000 HD
BRANCH  23  26
ATOM     26  C   UNL     1      -0.874  12.743  18.631  0.00  0.00    +0.000 C 
BRANCH  26  27
ATOM     27  O   UNL     1      -0.981  13.190  17.277  0.00  0.00    +0.000 OA
ATOM     28  H   UNL     1      -1.091  14.163  17.328  0.00  0.00    +0.000 HD
ENDBRANCH  26  27
BRANCH  26  29
ATOM     29  C   UNL     1       0.191  13.579  19.396  0.00  0.00    +0.000 C 
BRANCH  29  30
ATOM     30  N   UNL     1      -0.060  13.466  20.855  0.00  0.00    +0.000 NA
ATOM     31  H   UNL     1      -0.552  14.310  21.161  0.00  0.00    +0.000 HD
ATOM     32  H   UNL     1       0.840  13.505  21.340  0.00  0.00    +0.000 HD
ENDBRANCH  29  30
BRANCH  29  33
ATOM     33  C   UNL     1       0.257  15.090  18.984  0.00  0.00    +0.000 C 
BRANCH  33  34
ATOM     34  C   UNL     1       1.524  15.849  19.496  0.00  0.00    +0.000 C 
ATOM     35  C   UNL     1       2.829  15.070  19.261  0.00  0.00    +0.000 C 
ATOM     36  C   UNL     1       3.199  15.013  17.782  0.00  0.00    +0.000 C 
ATOM     37  C   UNL     1       3.419  16.420  17.237  0.00  0.00    +0.000 C 
ATOM     38  C   UNL     1       2.207  17.318  17.470  0.00  0.00    +0.000 C 
ATOM     39  C   UNL     1       1.687  17.270  18.909  0.00  0.00    +0.000 C 
ENDBRANCH  33  34
ENDBRANCH  29  33
ENDBRANCH  26  29
ENDBRANCH  23  26
ENDBRANCH   4  22
TORSDOF 13
ENDMDL
MODEL 7
REMARK VINA RESULT:      -7.4      2.320      2.975
REMARK  Name = 
REMARK  14 active torsions:
REMARK  status: ('A' for Active; 'I' for Inactive)
REMARK    1  A    between atoms: C_1  and  C_2
REMARK    2  A    between atoms: C_2  and  O_3
REMARK    3  A    between atoms: O_3  and  C_4
REMARK    4  A    between atoms: C_7  and  C_8
REMARK    5  A    between atoms: C_8  and  C_9
REMARK    6  A    between atoms: C_9  and  C_10
REMARK    7  A    between atoms: N_12  and  C_13
REMARK    8  A    between atoms: C_16  and  N_17
REMARK    9  A    between atoms: C_18  and  C_20
REMARK   10  A    between atoms: C_20  and  O_21
REMARK   11  A    between atoms: C_20  and  C_22
REMARK   12  A    between atoms: C_22  and  N_23
REMARK   13  A    between atoms: C_22  and  C_24
REMARK   14  A    between atoms: C_24  and  C_25
REMARK                            x       y       z     vdW  Elec       q    Type
REMARK                         _______ _______ _______ _____ _____    ______ ____
ROOT
ATOM      1  C   UNL     1       2.188   6.910  20.137  0.00  0.00    +0.000 A 
ATOM      2  C   UNL     1       2.431   7.444  18.871  0.00  0.00    +0.000 A 
ATOM      3  C   UNL     1       1.874   8.682  18.500  0.00  0.00    +0.000 A 
ATOM      4  C   UNL     1       1.118   9.428  19.407  0.00  0.00    +0.000 A 
ATOM      5  C   UNL     1       0.957   8.928  20.704  0.00  0.00    +0.000 A 
ATOM      6  C   UNL     1       1.446   7.661  21.051  0.00  0.00    +0.000 A 
ENDROOT
BRANCH   1   9
ATOM      7  C   UNL     1       1.763   4.513  20.635  0.00  0.00    +0.000 C 
ATOM      8  O   UNL     1       0.596   4.462  20.265  0.00  0.00    +0.000 OA
ATOM      9  N   UNL     1       2.593   5.615  20.519  0.00  0.00    +0.000 N 
ATOM     10  H   UNL     1       3.589   5.440  20.524  0.00  0.00    +0.000 HD
BRANCH   7  11
ATOM     11  C   UNL     1       2.431   3.315  21.286  0.00  0.00    +0.000 C 
BRANCH  11  12
ATOM     12  C   UNL     1       2.950   2.374  20.204  0.00  0.00    +0.000 C 
BRANCH  12  16
ATOM     13  C   UNL     1       5.136   4.522  17.153  0.00  0.00    +0.000 A 
ATOM     14  C   UNL     1       3.902   3.938  16.859  0.00  0.00    +0.000 A 
ATOM     15  C   UNL     1       3.203   3.232  17.840  0.00  0.00    +0.000 A 
ATOM     16  C   UNL     1       3.728   3.088  19.127  0.00  0.00    +0.000 A 
ATOM     17  C   UNL     1       4.989   3.631  19.403  0.00  0.00    +0.000 A 
ATOM     18  C   UNL     1       5.689   4.342  18.422  0.00  0.00    +0.000 A 
BRANCH  13  19
ATOM     19  O   UNL     1       5.710   5.220  16.130  0.00  0.00    +0.000 OA
BRANCH  19  21
ATOM     20  C   UNL     1       6.473   3.957  14.262  0.00  0.00    +0.000 C 
ATOM     21  C   UNL     1       5.352   4.822  14.808  0.00  0.00    +0.000 C 
ENDBRANCH  19  21
ENDBRANCH  13  19
ENDBRANCH  12  16
ENDBRANCH  11  12
ENDBRANCH   7  11
ENDBRANCH   1   9
BRANCH   4  22
ATOM     22  N   UNL     1       0.468  10.645  19.092  0.00  0.00    +0.000 N 
ATOM     23  C   UNL     1      -0.743  10.813  18.443  0.00  0.00    +0.000 C 
ATOM     24  O   UNL     1      -1.430   9.904  17.975  0.00  0.00    +0.000 OA
ATOM     25  H   UNL     1       0.893  11.508  19.441  0.00  0.00    +0.000 HD
BRANCH  23  26
ATOM     26  C   UNL     1      -1.313  12.269  18.475  0.00  0.00    +0.000 C 
BRANCH  26  27
ATOM     27  O   UNL     1      -1.388  12.756  17.133  0.00  0.00    +0.000 OA
ATOM     28  H   UNL     1      -0.622  12.360  16.666  0.00  0.00    +0.000 HD
ENDBRANCH  26  27
BRANCH  26  29
ATOM     29  C   UNL     1      -0.491  13.245  19.362  0.00  0.00    +0.000 C 
BRANCH  29  30
ATOM     30  N   UNL     1      -1.342  13.718  20.484  0.00  0.00    +0.000 NA
ATOM     31  H   UNL     1      -2.185  14.142  20.087  0.00  0.00    +0.000 HD
ATOM     32  H   UNL     1      -0.861  14.491  20.949  0.00  0.00    +0.000 HD
ENDBRANCH  29  30
BRANCH  29  33
ATOM     33  C   UNL     1       0.112  14.475  18.598  0.00  0.00    +0.000 C 
BRANCH  33  34
ATOM     34  C   UNL     1       0.071  15.819  19.396  0.00  0.00    +0.000 C 
ATOM     35  C   UNL     1       1.450  16.487  19.521  0.00  0.00    +0.000 C 
ATOM     36  C   UNL     1       1.934  17.047  18.186  0.00  0.00    +0.000 C 
ATOM     37  C   UNL     1       0.969  18.113  17.678  0.00  0.00    +0.000 C 
ATOM     38  C   UNL     1      -0.460  17.586  17.573  0.00  0.00    +0.000 C 
ATOM     39  C   UNL     1      -0.929  16.855  18.832  0.00  0.00    +0.000 C 
ENDBRANCH  33  34
ENDBRANCH  29  33
ENDBRANCH  26  29
ENDBRANCH  23  26
ENDBRANCH   4  22
TORSDOF 13
ENDMDL
MODEL 8
REMARK VINA RESULT:      -7.4      2.924      4.477
REMARK  Name = 
REMARK  14 active torsions:
REMARK  status: ('A' for Active; 'I' for Inactive)
REMARK    1  A    between atoms: C_1  and  C_2
REMARK    2  A    between atoms: C_2  and  O_3
REMARK    3  A    between atoms: O_3  and  C_4
REMARK    4  A    between atoms: C_7  and  C_8
REMARK    5  A    between atoms: C_8  and  C_9
REMARK    6  A    between atoms: C_9  and  C_10
REMARK    7  A    between atoms: N_12  and  C_13
REMARK    8  A    between atoms: C_16  and  N_17
REMARK    9  A    between atoms: C_18  and  C_20
REMARK   10  A    between atoms: C_20  and  O_21
REMARK   11  A    between atoms: C_20  and  C_22
REMARK   12  A    between atoms: C_22  and  N_23
REMARK   13  A    between atoms: C_22  and  C_24
REMARK   14  A    between atoms: C_24  and  C_25
REMARK                            x       y       z     vdW  Elec       q    Type
REMARK                         _______ _______ _______ _____ _____    ______ ____
ROOT
ATOM      1  C   UNL     1       2.386   7.254  19.172  0.00  0.00    +0.000 A 
ATOM      2  C   UNL     1       1.745   7.820  20.275  0.00  0.00    +0.000 A 
ATOM      3  C   UNL     1       1.064   9.046  20.152  0.00  0.00    +0.000 A 
ATOM      4  C   UNL     1       0.964   9.690  18.917  0.00  0.00    +0.000 A 
ATOM      5  C   UNL     1       1.531   9.069  17.799  0.00  0.00    +0.000 A 
ATOM      6  C   UNL     1       2.275   7.888  17.933  0.00  0.00    +0.000 A 
ENDROOT
BRANCH   1   9
ATOM      7  C   UNL     1       2.755   4.801  19.317  0.00  0.00    +0.000 C 
ATOM      8  O   UNL     1       1.598   4.440  19.134  0.00  0.00    +0.000 OA
ATOM      9  N   UNL     1       3.204   6.110  19.259  0.00  0.00    +0.000 N 
ATOM     10  H   UNL     1       4.189   6.247  19.076  0.00  0.00    +0.000 HD
BRANCH   7  11
ATOM     11  C   UNL     1       3.847   3.798  19.642  0.00  0.00    +0.000 C 
BRANCH  11  12
ATOM     12  C   UNL     1       5.210   4.457  19.468  0.00  0.00    +0.000 C 
BRANCH  12  16
ATOM     13  C   UNL     1       6.634   4.384  15.385  0.00  0.00    +0.000 A 
ATOM     14  C   UNL     1       5.352   3.926  15.694  0.00  0.00    +0.000 A 
ATOM     15  C   UNL     1       4.896   3.936  17.014  0.00  0.00    +0.000 A 
ATOM     16  C   UNL     1       5.718   4.393  18.049  0.00  0.00    +0.000 A 
ATOM     17  C   UNL     1       7.020   4.803  17.741  0.00  0.00    +0.000 A 
ATOM     18  C   UNL     1       7.476   4.797  16.418  0.00  0.00    +0.000 A 
BRANCH  13  19
ATOM     19  O   UNL     1       6.957   4.365  14.059  0.00  0.00    +0.000 OA
BRANCH  19  21
ATOM     20  C   UNL     1       6.739   3.388  11.898  0.00  0.00    +0.000 C 
ATOM     21  C   UNL     1       6.015   3.749  13.182  0.00  0.00    +0.000 C 
ENDBRANCH  19  21
ENDBRANCH  13  19
ENDBRANCH  12  16
ENDBRANCH  11  12
ENDBRANCH   7  11
ENDBRANCH   1   9
BRANCH   4  22
ATOM     22  N   UNL     1       0.358  10.954  18.724  0.00  0.00    +0.000 N 
ATOM     23  C   UNL     1      -0.993  11.234  18.608  0.00  0.00    +0.000 C 
ATOM     24  O   UNL     1      -1.894  10.395  18.598  0.00  0.00    +0.000 OA
ATOM     25  H   UNL     1       0.968  11.775  18.740  0.00  0.00    +0.000 HD
BRANCH  23  26
ATOM     26  C   UNL     1      -1.358  12.754  18.660  0.00  0.00    +0.000 C 
BRANCH  26  27
ATOM     27  O   UNL     1      -0.598  13.437  17.660  0.00  0.00    +0.000 OA
ATOM     28  H   UNL     1      -0.420  12.771  16.964  0.00  0.00    +0.000 HD
ENDBRANCH  26  27
BRANCH  26  29
ATOM     29  C   UNL     1      -1.133  13.407  20.053  0.00  0.00    +0.000 C 
BRANCH  29  30
ATOM     30  N   UNL     1       0.217  13.035  20.550  0.00  0.00    +0.000 NA
ATOM     31  H   UNL     1       0.625  13.855  21.008  0.00  0.00    +0.000 HD
ATOM     32  H   UNL     1       0.821  12.864  19.743  0.00  0.00    +0.000 HD
ENDBRANCH  29  30
BRANCH  29  33
ATOM     33  C   UNL     1      -2.214  13.045  21.129  0.00  0.00    +0.000 C 
BRANCH  33  34
ATOM     34  C   UNL     1      -1.647  12.817  22.568  0.00  0.00    +0.000 C 
ATOM     35  C   UNL     1      -1.425  14.127  23.343  0.00  0.00    +0.000 C 
ATOM     36  C   UNL     1      -2.744  14.786  23.735  0.00  0.00    +0.000 C 
ATOM     37  C   UNL     1      -3.546  13.863  24.647  0.00  0.00    +0.000 C 
ATOM     38  C   UNL     1      -3.779  12.495  24.011  0.00  0.00    +0.000 C 
ATOM     39  C   UNL     1      -2.505  11.869  23.439  0.00  0.00    +0.000 C 
ENDBRANCH  33  34
ENDBRANCH  29  33
ENDBRANCH  26  29
ENDBRANCH  23  26
ENDBRANCH   4  22
TORSDOF 13
ENDMDL
MODEL 9
REMARK VINA RESULT:      -7.4      2.385      2.954
REMARK  Name = 
REMARK  14 active torsions:
REMARK  status: ('A' for Active; 'I' for Inactive)
REMARK    1  A    between atoms: C_1  and  C_2
REMARK    2  A    between atoms: C_2  and  O_3
REMARK    3  A    between atoms: O_3  and  C_4
REMARK    4  A    between atoms: C_7  and  C_8
REMARK    5  A    between atoms: C_8  and  C_9
REMARK    6  A    between atoms: C_9  and  C_10
REMARK    7  A    between atoms: N_12  and  C_13
REMARK    8  A    between atoms: C_16  and  N_17
REMARK    9  A    between atoms: C_18  and  C_20
REMARK   10  A    between atoms: C_20  and  O_21
REMARK   11  A    between atoms: C_20  and  C_22
REMARK   12  A    between atoms: C_22  and  N_23
REMARK   13  A    between atoms: C_22  and  C_24
REMARK   14  A    between atoms: C_24  and  C_25
REMARK                            x       y       z     vdW  Elec       q    Type
REMARK                         _______ _______ _______ _____ _____    ______ ____
ROOT
ATOM      1  C   UNL     1       2.183   6.987  20.060  0.00  0.00    +0.000 A 
ATOM      2  C   UNL     1       2.401   7.494  18.778  0.00  0.00    +0.000 A 
ATOM      3  C   UNL     1       1.800   8.702  18.378  0.00  0.00    +0.000 A 
ATOM      4  C   UNL     1       1.025   9.447  19.269  0.00  0.00    +0.000 A 
ATOM      5  C   UNL     1       0.888   8.977  20.580  0.00  0.00    +0.000 A 
ATOM      6  C   UNL     1       1.421   7.737  20.958  0.00  0.00    +0.000 A 
ENDROOT
BRANCH   1   9
ATOM      7  C   UNL     1       1.846   4.586  20.607  0.00  0.00    +0.000 C 
ATOM      8  O   UNL     1       0.685   4.482  20.227  0.00  0.00    +0.000 OA
ATOM      9  N   UNL     1       2.633   5.717  20.474  0.00  0.00    +0.000 N 
ATOM     10  H   UNL     1       3.635   5.580  20.492  0.00  0.00    +0.000 HD
BRANCH   7  11
ATOM     11  C   UNL     1       2.553   3.429  21.290  0.00  0.00    +0.000 C 
BRANCH  11  12
ATOM     12  C   UNL     1       3.095   2.472  20.235  0.00  0.00    +0.000 C 
BRANCH  12  16
ATOM     13  C   UNL     1       5.294   4.390  17.043  0.00  0.00    +0.000 A 
ATOM     14  C   UNL     1       5.802   4.381  18.343  0.00  0.00    +0.000 A 
ATOM     15  C   UNL     1       5.086   3.775  19.377  0.00  0.00    +0.000 A 
ATOM     16  C   UNL     1       3.846   3.176  19.132  0.00  0.00    +0.000 A 
ATOM     17  C   UNL     1       3.318   3.233  17.837  0.00  0.00    +0.000 A 
ATOM     18  C   UNL     1       4.036   3.837  16.799  0.00  0.00    +0.000 A 
BRANCH  13  19
ATOM     19  O   UNL     1       6.097   4.975  16.107  0.00  0.00    +0.000 OA
BRANCH  19  21
ATOM     20  C   UNL     1       6.307   3.965  13.961  0.00  0.00    +0.000 C 
ATOM     21  C   UNL     1       5.590   5.027  14.775  0.00  0.00    +0.000 C 
ENDBRANCH  19  21
ENDBRANCH  13  19
ENDBRANCH  12  16
ENDBRANCH  11  12
ENDBRANCH   7  11
ENDBRANCH   1   9
BRANCH   4  22
ATOM     22  N   UNL     1       0.332  10.632  18.926  0.00  0.00    +0.000 N 
ATOM     23  C   UNL     1      -0.865  10.743  18.239  0.00  0.00    +0.000 C 
ATOM     24  O   UNL     1      -1.497   9.802  17.756  0.00  0.00    +0.000 OA
ATOM     25  H   UNL     1       0.708  11.515  19.281  0.00  0.00    +0.000 HD
BRANCH  23  26
ATOM     26  C   UNL     1      -1.499  12.173  18.243  0.00  0.00    +0.000 C 
BRANCH  26  27
ATOM     27  O   UNL     1      -1.170  12.818  17.010  0.00  0.00    +0.000 OA
ATOM     28  H   UNL     1      -1.876  13.482  16.864  0.00  0.00    +0.000 HD
ENDBRANCH  26  27
BRANCH  26  29
ATOM     29  C   UNL     1      -1.059  13.050  19.449  0.00  0.00    +0.000 C 
BRANCH  29  30
ATOM     30  N   UNL     1      -2.266  13.618  20.102  0.00  0.00    +0.000 NA
ATOM     31  H   UNL     1      -2.735  14.230  19.428  0.00  0.00    +0.000 HD
ATOM     32  H   UNL     1      -1.962  14.246  20.849  0.00  0.00    +0.000 HD
ENDBRANCH  29  30
BRANCH  29  33
ATOM     33  C   UNL     1      -0.058  14.201  19.091  0.00  0.00    +0.000 C 
BRANCH  33  34
ATOM     34  C   UNL     1      -0.535  15.631  19.506  0.00  0.00    +0.000 C 
ATOM     35  C   UNL     1       0.175  16.162  20.762  0.00  0.00    +0.000 C 
ATOM     36  C   UNL     1       1.638  16.499  20.488  0.00  0.00    +0.000 C 
ATOM     37  C   UNL     1       1.742  17.588  19.427  0.00  0.00    +0.000 C 
ATOM     38  C   UNL     1       1.012  17.203  18.142  0.00  0.00    +0.000 C 
ATOM     39  C   UNL     1      -0.408  16.687  18.384  0.00  0.00    +0.000 C 
ENDBRANCH  33  34
ENDBRANCH  29  33
ENDBRANCH  26  29
ENDBRANCH  23  26
ENDBRANCH   4  22
TORSDOF 13
ENDMDL
