MODEL 1
REMARK VINA RESULT:      -8.4      0.000      0.000
REMARK  Name = 
REMARK  5 active torsions:
REMARK  status: ('A' for Active; 'I' for Inactive)
REMARK    1  A    between atoms: C_1  and  C_2
REMARK    2  A    between atoms: C_4  and  C_5
REMARK    3  A    between atoms: N_7  and  N_8
REMARK    4  A    between atoms: C_9  and  C_10
REMARK    5  A    between atoms: C_13  and  C_14
REMARK                            x       y       z     vdW  Elec       q    Type
REMARK                         _______ _______ _______ _____ _____    ______ ____
ROOT
ATOM      1  N   UNL     1       5.351   4.845  18.779  0.00  0.00    +0.000 NA
ATOM      2  C   UNL     1       4.402   4.261  19.438  0.00  0.00    +0.000 C 
ENDROOT
BRANCH   2   3
ATOM      3  C   UNL     1       3.312   5.095  19.873  0.00  0.00    +0.000 A 
ATOM      4  C   UNL     1       2.261   4.795  20.718  0.00  0.00    +0.000 A 
ATOM      5  C   UNL     1       1.458   5.947  20.791  0.00  0.00    +0.000 A 
ATOM      6  C   UNL     1       2.044   6.898  19.977  0.00  0.00    +0.000 A 
ATOM      7  O   UNL     1       3.196   6.385  19.429  0.00  0.00    +0.000 OA
BRANCH   6   8
ATOM      8  C   UNL     1       1.631   8.246  19.584  0.00  0.00    +0.000 A 
ATOM      9  C   UNL     1       1.978   8.730  18.309  0.00  0.00    +0.000 A 
ATOM     10  C   UNL     1       1.696  10.042  17.927  0.00  0.00    +0.000 A 
ATOM     11  C   UNL     1       1.049  10.895  18.816  0.00  0.00    +0.000 A 
ATOM     12  C   UNL     1       0.673  10.420  20.070  0.00  0.00    +0.000 A 
ATOM     13 BR   UNL     1      -0.203  11.587  21.275  0.00  0.00    +0.000 Br
ATOM     14  C   UNL     1       0.952   9.105  20.457  0.00  0.00    +0.000 A 
ENDBRANCH   6   8
ENDBRANCH   2   3
BRANCH   1  17
ATOM     15  C   UNL     1       7.470   4.730  17.647  0.00  0.00    +0.000 C 
ATOM     16  O   UNL     1       8.297   4.032  17.064  0.00  0.00    +0.000 OA
ATOM     17  N   UNL     1       6.395   4.115  18.300  0.00  0.00    +0.000 N 
ATOM     18  H   UNL     1       6.339   3.105  18.219  0.00  0.00    +0.000 HD
BRANCH  15  22
ATOM     19  C   UNL     1       8.528   9.650  18.383  0.00  0.00    +0.000 C 
ATOM     20  C   UNL     1       7.959   8.343  17.977  0.00  0.00    +0.000 A 
ATOM     21  C   UNL     1       8.272   7.046  18.457  0.00  0.00    +0.000 A 
ATOM     22  C   UNL     1       7.527   6.175  17.682  0.00  0.00    +0.000 A 
ATOM     23  N   UNL     1       6.790   6.992  16.871  0.00  0.00    +0.000 N 
ATOM     24  N   UNL     1       7.037   8.302  17.010  0.00  0.00    +0.000 NA
ATOM     25  H   UNL     1       6.146   6.683  16.151  0.00  0.00    +0.000 HD
ENDBRANCH  15  22
ENDBRANCH   1  17
TORSDOF 4
ENDMDL
MODEL 2
REMARK VINA RESULT:      -7.6      1.663      2.275
REMARK  Name = 
REMARK  5 active torsions:
REMARK  status: ('A' for Active; 'I' for Inactive)
REMARK    1  A    between atoms: C_1  and  C_2
REMARK    2  A    between atoms: C_4  and  C_5
REMARK    3  A    between atoms: N_7  and  N_8
REMARK    4  A    between atoms: C_9  and  C_10
REMARK    5  A    between atoms: C_13  and  C_14
REMARK                            x       y       z     vdW  Elec       q    Type
REMARK                         _______ _______ _______ _____ _____    ______ ____
ROOT
ATOM      1  N   UNL     1       4.142   3.973  17.678  0.00  0.00    +0.000 NA
ATOM      2  C   UNL     1       3.166   4.818  17.580  0.00  0.00    +0.000 C 
ENDROOT
BRANCH   2   3
ATOM      3  C   UNL     1       2.644   5.345  18.814  0.00  0.00    +0.000 A 
ATOM      4  C   UNL     1       2.318   4.684  19.982  0.00  0.00    +0.000 A 
ATOM      5  C   UNL     1       1.823   5.654  20.872  0.00  0.00    +0.000 A 
ATOM      6  C   UNL     1       1.854   6.864  20.206  0.00  0.00    +0.000 A 
ATOM      7  O   UNL     1       2.380   6.682  18.949  0.00  0.00    +0.000 OA
BRANCH   6   8
ATOM      8  C   UNL     1       1.394   8.203  20.577  0.00  0.00    +0.000 A 
ATOM      9  C   UNL     1       1.021   8.460  21.910  0.00  0.00    +0.000 A 
ATOM     10  C   UNL     1       0.481   9.690  22.290  0.00  0.00    +0.000 A 
ATOM     11  C   UNL     1       0.312  10.692  21.340  0.00  0.00    +0.000 A 
ATOM     12  C   UNL     1       0.705  10.461  20.023  0.00  0.00    +0.000 A 
ATOM     13 BR   UNL     1       0.469  11.828  18.736  0.00  0.00    +0.000 Br
ATOM     14  C   UNL     1       1.249   9.231  19.637  0.00  0.00    +0.000 A 
ENDBRANCH   6   8
ENDBRANCH   2   3
BRANCH   1  17
ATOM     15  C   UNL     1       5.962   3.912  16.107  0.00  0.00    +0.000 C 
ATOM     16  O   UNL     1       6.361   3.570  14.996  0.00  0.00    +0.000 OA
ATOM     17  N   UNL     1       4.714   3.462  16.553  0.00  0.00    +0.000 N 
ATOM     18  H   UNL     1       4.181   2.897  15.901  0.00  0.00    +0.000 HD
BRANCH  15  22
ATOM     19  C   UNL     1       8.255   7.748  18.537  0.00  0.00    +0.000 C 
ATOM     20  C   UNL     1       7.723   6.440  18.086  0.00  0.00    +0.000 A 
ATOM     21  C   UNL     1       7.088   6.109  16.861  0.00  0.00    +0.000 A 
ATOM     22  C   UNL     1       6.706   4.785  16.989  0.00  0.00    +0.000 A 
ATOM     23  N   UNL     1       7.190   4.411  18.211  0.00  0.00    +0.000 N 
ATOM     24  N   UNL     1       7.793   5.386  18.905  0.00  0.00    +0.000 NA
ATOM     25  H   UNL     1       7.067   3.500  18.639  0.00  0.00    +0.000 HD
ENDBRANCH  15  22
ENDBRANCH   1  17
TORSDOF 4
ENDMDL
MODEL 3
REMARK VINA RESULT:      -7.6      4.228      7.477
REMARK  Name = 
REMARK  5 active torsions:
REMARK  status: ('A' for Active; 'I' for Inactive)
REMARK    1  A    between atoms: C_1  and  C_2
REMARK    2  A    between atoms: C_4  and  C_5
REMARK    3  A    between atoms: N_7  and  N_8
REMARK    4  A    between atoms: C_9  and  C_10
REMARK    5  A    between atoms: C_13  and  C_14
REMARK                            x       y       z     vdW  Elec       q    Type
REMARK                         _______ _______ _______ _____ _____    ______ ____
ROOT
ATOM      1  N   UNL     1       1.958   7.281  20.519  0.00  0.00    +0.000 NA
ATOM      2  C   UNL     1       1.854   5.993  20.578  0.00  0.00    +0.000 C 
ENDROOT
BRANCH   2   3
ATOM      3  C   UNL     1       2.223   5.261  19.394  0.00  0.00    +0.000 A 
ATOM      4  C   UNL     1       1.491   4.346  18.664  0.00  0.00    +0.000 A 
ATOM      5  C   UNL     1       2.321   3.902  17.620  0.00  0.00    +0.000 A 
ATOM      6  C   UNL     1       3.531   4.554  17.764  0.00  0.00    +0.000 A 
ATOM      7  O   UNL     1       3.467   5.407  18.841  0.00  0.00    +0.000 OA
BRANCH   6   8
ATOM      8  C   UNL     1       4.800   4.443  17.043  0.00  0.00    +0.000 A 
ATOM      9  C   UNL     1       6.005   4.704  17.723  0.00  0.00    +0.000 A 
ATOM     10  C   UNL     1       7.231   4.710  17.055  0.00  0.00    +0.000 A 
ATOM     11  C   UNL     1       7.273   4.445  15.690  0.00  0.00    +0.000 A 
ATOM     12  C   UNL     1       6.092   4.155  15.011  0.00  0.00    +0.000 A 
ATOM     13 BR   UNL     1       6.157   3.797  13.154  0.00  0.00    +0.000 Br
ATOM     14  C   UNL     1       4.861   4.145  15.676  0.00  0.00    +0.000 A 
ENDBRANCH   6   8
ENDBRANCH   2   3
BRANCH   1  17
ATOM     15  C   UNL     1       1.002   9.265  21.488  0.00  0.00    +0.000 C 
ATOM     16  O   UNL     1       0.922  10.006  22.465  0.00  0.00    +0.000 OA
ATOM     17  N   UNL     1       1.665   8.038  21.612  0.00  0.00    +0.000 N 
ATOM     18  H   UNL     1       2.086   7.845  22.514  0.00  0.00    +0.000 HD
BRANCH  15  22
ATOM     19  C   UNL     1      -1.747  10.750  17.474  0.00  0.00    +0.000 C 
ATOM     20  C   UNL     1      -0.709  10.241  18.401  0.00  0.00    +0.000 A 
ATOM     21  C   UNL     1      -0.814   9.952  19.786  0.00  0.00    +0.000 A 
ATOM     22  C   UNL     1       0.462   9.597  20.187  0.00  0.00    +0.000 A 
ATOM     23  N   UNL     1       1.198   9.627  19.036  0.00  0.00    +0.000 N 
ATOM     24  N   UNL     1       0.529  10.025  17.945  0.00  0.00    +0.000 NA
ATOM     25  H   UNL     1       2.193   9.441  18.966  0.00  0.00    +0.000 HD
ENDBRANCH  15  22
ENDBRANCH   1  17
TORSDOF 4
ENDMDL
MODEL 4
REMARK VINA RESULT:      -7.6      3.555      5.688
REMARK  Name = 
REMARK  5 active torsions:
REMARK  status: ('A' for Active; 'I' for Inactive)
REMARK    1  A    between atoms: C_1  and  C_2
REMARK    2  A    between atoms: C_4  and  C_5
REMARK    3  A    between atoms: N_7  and  N_8
REMARK    4  A    between atoms: C_9  and  C_10
REMARK    5  A    between atoms: C_13  and  C_14
REMARK                            x       y       z     vdW  Elec       q    Type
REMARK                         _______ _______ _______ _____ _____    ______ ____
ROOT
ATOM      1  N   UNL     1       2.563   7.268  17.988  0.00  0.00    +0.000 NA
ATOM      2  C   UNL     1       2.572   8.558  18.099  0.00  0.00    +0.000 C 
ENDROOT
BRANCH   2   3
ATOM      3  C   UNL     1       1.367   9.171  18.594  0.00  0.00    +0.000 A 
ATOM      4  C   UNL     1       0.975   9.407  19.897  0.00  0.00    +0.000 A 
ATOM      5  C   UNL     1      -0.299  10.001  19.835  0.00  0.00    +0.000 A 
ATOM      6  C   UNL     1      -0.637  10.090  18.499  0.00  0.00    +0.000 A 
ATOM      7  O   UNL     1       0.395   9.601  17.732  0.00  0.00    +0.000 OA
BRANCH   6   8
ATOM      8  C   UNL     1      -1.855  10.533  17.820  0.00  0.00    +0.000 A 
ATOM      9  C   UNL     1      -2.816  11.270  18.537  0.00  0.00    +0.000 A 
ATOM     10  C   UNL     1      -4.037  11.627  17.962  0.00  0.00    +0.000 A 
ATOM     11  C   UNL     1      -4.315  11.259  16.650  0.00  0.00    +0.000 A 
ATOM     12  C   UNL     1      -3.361  10.555  15.918  0.00  0.00    +0.000 A 
ATOM     13 BR   UNL     1      -3.748  10.055  14.135  0.00  0.00    +0.000 Br
ATOM     14  C   UNL     1      -2.135  10.197  16.489  0.00  0.00    +0.000 A 
ENDBRANCH   6   8
ENDBRANCH   2   3
BRANCH   1  17
ATOM     15  C   UNL     1       4.167   5.497  18.253  0.00  0.00    +0.000 C 
ATOM     16  O   UNL     1       5.273   5.047  17.959  0.00  0.00    +0.000 OA
ATOM     17  N   UNL     1       3.679   6.613  17.566  0.00  0.00    +0.000 N 
ATOM     18  H   UNL     1       4.298   7.021  16.873  0.00  0.00    +0.000 HD
BRANCH  15  22
ATOM     19  C   UNL     1       1.452   2.631  21.461  0.00  0.00    +0.000 C 
ATOM     20  C   UNL     1       2.136   3.725  20.731  0.00  0.00    +0.000 A 
ATOM     21  C   UNL     1       2.787   3.688  19.471  0.00  0.00    +0.000 A 
ATOM     22  C   UNL     1       3.335   4.947  19.300  0.00  0.00    +0.000 A 
ATOM     23  N   UNL     1       2.923   5.646  20.400  0.00  0.00    +0.000 N 
ATOM     24  N   UNL     1       2.213   4.937  21.290  0.00  0.00    +0.000 NA
ATOM     25  H   UNL     1       3.166   6.607  20.613  0.00  0.00    +0.000 HD
ENDBRANCH  15  22
ENDBRANCH   1  17
TORSDOF 4
ENDMDL
MODEL 5
REMARK VINA RESULT:      -7.5      1.493      1.738
REMARK  Name = 
REMARK  5 active torsions:
REMARK  status: ('A' for Active; 'I' for Inactive)
REMARK    1  A    between atoms: C_1  and  C_2
REMARK    2  A    between atoms: C_4  and  C_5
REMARK    3  A    between atoms: N_7  and  N_8
REMARK    4  A    between atoms: C_9  and  C_10
REMARK    5  A    between atoms: C_13  and  C_14
REMARK                            x       y       z     vdW  Elec       q    Type
REMARK                         _______ _______ _______ _____ _____    ______ ____
ROOT
ATOM      1  N   UNL     1       4.327   4.503  17.145  0.00  0.00    +0.000 NA
ATOM      2  C   UNL     1       4.013   3.806  18.189  0.00  0.00    +0.000 C 
ENDROOT
BRANCH   2   3
ATOM      3  C   UNL     1       3.229   4.471  19.197  0.00  0.00    +0.000 A 
ATOM      4  C   UNL     1       2.673   3.962  20.354  0.00  0.00    +0.000 A 
ATOM      5  C   UNL     1       1.979   5.019  20.970  0.00  0.00    +0.000 A 
ATOM      6  C   UNL     1       2.128   6.126  20.156  0.00  0.00    +0.000 A 
ATOM      7  O   UNL     1       2.914   5.798  19.077  0.00  0.00    +0.000 OA
BRANCH   6   8
ATOM      8  C   UNL     1       1.571   7.477  20.223  0.00  0.00    +0.000 A 
ATOM      9  C   UNL     1       1.761   8.356  19.140  0.00  0.00    +0.000 A 
ATOM     10  C   UNL     1       1.338   9.685  19.199  0.00  0.00    +0.000 A 
ATOM     11  C   UNL     1       0.705  10.157  20.344  0.00  0.00    +0.000 A 
ATOM     12  C   UNL     1       0.482   9.290  21.411  0.00  0.00    +0.000 A 
ATOM     13 BR   UNL     1      -0.377   9.940  22.967  0.00  0.00    +0.000 Br
ATOM     14  C   UNL     1       0.903   7.957  21.357  0.00  0.00    +0.000 A 
ENDBRANCH   6   8
ENDBRANCH   2   3
BRANCH   1  17
ATOM     15  C   UNL     1       6.296   4.410  15.767  0.00  0.00    +0.000 C 
ATOM     16  O   UNL     1       6.819   3.998  14.734  0.00  0.00    +0.000 OA
ATOM     17  N   UNL     1       5.032   3.931  16.131  0.00  0.00    +0.000 N 
ATOM     18  H   UNL     1       4.594   3.284  15.485  0.00  0.00    +0.000 HD
BRANCH  15  22
ATOM     19  C   UNL     1       8.089   8.568  18.084  0.00  0.00    +0.000 C 
ATOM     20  C   UNL     1       7.705   7.194  17.683  0.00  0.00    +0.000 A 
ATOM     21  C   UNL     1       7.172   6.740  16.449  0.00  0.00    +0.000 A 
ATOM     22  C   UNL     1       6.906   5.395  16.633  0.00  0.00    +0.000 A 
ATOM     23  N   UNL     1       7.353   5.133  17.898  0.00  0.00    +0.000 N 
ATOM     24  N   UNL     1       7.825   6.196  18.564  0.00  0.00    +0.000 NA
ATOM     25  H   UNL     1       7.291   4.239  18.372  0.00  0.00    +0.000 HD
ENDBRANCH  15  22
ENDBRANCH   1  17
TORSDOF 4
ENDMDL
MODEL 6
REMARK VINA RESULT:      -7.5      1.468      2.543
REMARK  Name = 
REMARK  5 active torsions:
REMARK  status: ('A' for Active; 'I' for Inactive)
REMARK    1  A    between atoms: C_1  and  C_2
REMARK    2  A    between atoms: C_4  and  C_5
REMARK    3  A    between atoms: N_7  and  N_8
REMARK    4  A    between atoms: C_9  and  C_10
REMARK    5  A    between atoms: C_13  and  C_14
REMARK                            x       y       z     vdW  Elec       q    Type
REMARK                         _______ _______ _______ _____ _____    ______ ____
ROOT
ATOM      1  N   UNL     1       4.407   6.167  17.606  0.00  0.00    +0.000 NA
ATOM      2  C   UNL     1       3.620   6.238  18.631  0.00  0.00    +0.000 C 
ENDROOT
BRANCH   2   3
ATOM      3  C   UNL     1       2.731   7.369  18.686  0.00  0.00    +0.000 A 
ATOM      4  C   UNL     1       2.360   8.242  17.682  0.00  0.00    +0.000 A 
ATOM      5  C   UNL     1       1.498   9.187  18.264  0.00  0.00    +0.000 A 
ATOM      6  C   UNL     1       1.389   8.861  19.603  0.00  0.00    +0.000 A 
ATOM      7  O   UNL     1       2.128   7.730  19.860  0.00  0.00    +0.000 OA
BRANCH   6   8
ATOM      8  C   UNL     1       0.710   9.514  20.722  0.00  0.00    +0.000 A 
ATOM      9  C   UNL     1       0.223   8.731  21.786  0.00  0.00    +0.000 A 
ATOM     10  C   UNL     1      -0.519   9.296  22.825  0.00  0.00    +0.000 A 
ATOM     11  C   UNL     1      -0.778  10.663  22.823  0.00  0.00    +0.000 A 
ATOM     12  C   UNL     1      -0.275  11.455  21.793  0.00  0.00    +0.000 A 
ATOM     13 BR   UNL     1      -0.635  13.312  21.796  0.00  0.00    +0.000 Br
ATOM     14  C   UNL     1       0.470  10.894  20.750  0.00  0.00    +0.000 A 
ENDBRANCH   6   8
ENDBRANCH   2   3
BRANCH   1  17
ATOM     15  C   UNL     1       6.631   5.285  17.363  0.00  0.00    +0.000 C 
ATOM     16  O   UNL     1       7.339   4.331  17.048  0.00  0.00    +0.000 OA
ATOM     17  N   UNL     1       5.247   5.106  17.464  0.00  0.00    +0.000 N 
ATOM     18  H   UNL     1       4.895   4.184  17.227  0.00  0.00    +0.000 HD
BRANCH  15  22
ATOM     19  C   UNL     1       9.129   9.440  18.901  0.00  0.00    +0.000 C 
ATOM     20  C   UNL     1       8.219   8.458  18.264  0.00  0.00    +0.000 A 
ATOM     21  C   UNL     1       8.039   7.084  18.565  0.00  0.00    +0.000 A 
ATOM     22  C   UNL     1       7.147   6.612  17.618  0.00  0.00    +0.000 A 
ATOM     23  N   UNL     1       6.813   7.719  16.889  0.00  0.00    +0.000 N 
ATOM     24  N   UNL     1       7.452   8.844  17.241  0.00  0.00    +0.000 NA
ATOM     25  H   UNL     1       6.191   7.732  16.088  0.00  0.00    +0.000 HD
ENDBRANCH  15  22
ENDBRANCH   1  17
TORSDOF 4
ENDMDL
MODEL 7
REMARK VINA RESULT:      -7.4      3.583      5.668
REMARK  Name = 
REMARK  5 active torsions:
REMARK  status: ('A' for Active; 'I' for Inactive)
REMARK    1  A    between atoms: C_1  and  C_2
REMARK    2  A    between atoms: C_4  and  C_5
REMARK    3  A    between atoms: N_7  and  N_8
REMARK    4  A    between atoms: C_9  and  C_10
REMARK    5  A    between atoms: C_13  and  C_14
REMARK                            x       y       z     vdW  Elec       q    Type
REMARK                         _______ _______ _______ _____ _____    ______ ____
ROOT
ATOM      1  N   UNL     1       2.442   7.895  17.805  0.00  0.00    +0.000 NA
ATOM      2  C   UNL     1       2.424   9.108  18.257  0.00  0.00    +0.000 C 
ENDROOT
BRANCH   2   3
ATOM      3  C   UNL     1       1.148   9.616  18.690  0.00  0.00    +0.000 A 
ATOM      4  C   UNL     1       0.707   9.905  19.966  0.00  0.00    +0.000 A 
ATOM      5  C   UNL     1      -0.624  10.343  19.845  0.00  0.00    +0.000 A 
ATOM      6  C   UNL     1      -0.944  10.290  18.502  0.00  0.00    +0.000 A 
ATOM      7  O   UNL     1       0.150   9.864  17.786  0.00  0.00    +0.000 OA
BRANCH   6   8
ATOM      8  C   UNL     1      -2.191  10.537  17.778  0.00  0.00    +0.000 A 
ATOM      9  C   UNL     1      -2.304  10.124  16.436  0.00  0.00    +0.000 A 
ATOM     10  C   UNL     1      -3.434  10.427  15.674  0.00  0.00    +0.000 A 
ATOM     11  C   UNL     1      -4.480  11.143  16.247  0.00  0.00    +0.000 A 
ATOM     12  C   UNL     1      -4.395  11.531  17.583  0.00  0.00    +0.000 A 
ATOM     13 BR   UNL     1      -5.821  12.507  18.354  0.00  0.00    +0.000 Br
ATOM     14  C   UNL     1      -3.266  11.229  18.351  0.00  0.00    +0.000 A 
ENDBRANCH   6   8
ENDBRANCH   2   3
BRANCH   1  17
ATOM     15  C   UNL     1       4.102   6.168  18.026  0.00  0.00    +0.000 C 
ATOM     16  O   UNL     1       5.247   5.794  17.783  0.00  0.00    +0.000 OA
ATOM     17  N   UNL     1       3.618   7.331  17.415  0.00  0.00    +0.000 N 
ATOM     18  H   UNL     1       4.271   7.831  16.823  0.00  0.00    +0.000 HD
BRANCH  15  22
ATOM     19  C   UNL     1       1.085   2.940  20.547  0.00  0.00    +0.000 C 
ATOM     20  C   UNL     1       1.888   4.094  20.076  0.00  0.00    +0.000 A 
ATOM     21  C   UNL     1       2.527   4.285  18.824  0.00  0.00    +0.000 A 
ATOM     22  C   UNL     1       3.214   5.480  18.938  0.00  0.00    +0.000 A 
ATOM     23  N   UNL     1       2.886   5.939  20.183  0.00  0.00    +0.000 N 
ATOM     24  N   UNL     1       2.103   5.123  20.901  0.00  0.00    +0.000 NA
ATOM     25  H   UNL     1       3.238   6.790  20.609  0.00  0.00    +0.000 HD
ENDBRANCH  15  22
ENDBRANCH   1  17
TORSDOF 4
ENDMDL
MODEL 8
REMARK VINA RESULT:      -7.4      1.459      1.766
REMARK  Name = 
REMARK  5 active torsions:
REMARK  status: ('A' for Active; 'I' for Inactive)
REMARK    1  A    between atoms: C_1  and  C_2
REMARK    2  A    between atoms: C_4  and  C_5
REMARK    3  A    between atoms: N_7  and  N_8
REMARK    4  A    between atoms: C_9  and  C_10
REMARK    5  A    between atoms: C_13  and  C_14
REMARK                            x       y       z     vdW  Elec       q    Type
REMARK                         _______ _______ _______ _____ _____    ______ ____
ROOT
ATOM      1  N   UNL     1       3.877   4.853  17.236  0.00  0.00    +0.000 NA
ATOM      2  C   UNL     1       3.291   4.316  18.257  0.00  0.00    +0.000 C 
ENDROOT
BRANCH   2   3
ATOM      3  C   UNL     1       2.675   5.218  19.195  0.00  0.00    +0.000 A 
ATOM      4  C   UNL     1       2.222   4.976  20.476  0.00  0.00    +0.000 A 
ATOM      5  C   UNL     1       1.677   6.183  20.949  0.00  0.00    +0.000 A 
ATOM      6  C   UNL     1       1.807   7.108  19.931  0.00  0.00    +0.000 A 
ATOM      7  O   UNL     1       2.440   6.524  18.859  0.00  0.00    +0.000 OA
BRANCH   6   8
ATOM      8  C   UNL     1       1.355   8.494  19.797  0.00  0.00    +0.000 A 
ATOM      9  C   UNL     1       1.649   9.205  18.618  0.00  0.00    +0.000 A 
ATOM     10  C   UNL     1       1.329  10.557  18.485  0.00  0.00    +0.000 A 
ATOM     11  C   UNL     1       0.697  11.222  19.531  0.00  0.00    +0.000 A 
ATOM     12  C   UNL     1       0.372  10.523  20.691  0.00  0.00    +0.000 A 
ATOM     13 BR   UNL     1      -0.485  11.434  22.110  0.00  0.00    +0.000 Br
ATOM     14  C   UNL     1       0.689   9.167  20.829  0.00  0.00    +0.000 A 
ENDBRANCH   6   8
ENDBRANCH   2   3
BRANCH   1  17
ATOM     15  C   UNL     1       5.822   4.118  16.026  0.00  0.00    +0.000 C 
ATOM     16  O   UNL     1       6.272   3.535  15.041  0.00  0.00    +0.000 OA
ATOM     17  N   UNL     1       4.448   4.063  16.285  0.00  0.00    +0.000 N 
ATOM     18  H   UNL     1       3.882   3.566  15.605  0.00  0.00    +0.000 HD
BRANCH  15  22
ATOM     19  C   UNL     1       8.369   7.658  18.645  0.00  0.00    +0.000 C 
ATOM     20  C   UNL     1       7.766   6.411  18.116  0.00  0.00    +0.000 A 
ATOM     21  C   UNL     1       7.065   6.204  16.900  0.00  0.00    +0.000 A 
ATOM     22  C   UNL     1       6.638   4.889  16.939  0.00  0.00    +0.000 A 
ATOM     23  N   UNL     1       7.160   4.399  18.103  0.00  0.00    +0.000 N 
ATOM     24  N   UNL     1       7.832   5.292  18.843  0.00  0.00    +0.000 NA
ATOM     25  H   UNL     1       7.022   3.461  18.462  0.00  0.00    +0.000 HD
ENDBRANCH  15  22
ENDBRANCH   1  17
TORSDOF 4
ENDMDL
MODEL 9
REMARK VINA RESULT:      -7.3      3.512      5.534
REMARK  Name = 
REMARK  5 active torsions:
REMARK  status: ('A' for Active; 'I' for Inactive)
REMARK    1  A    between atoms: C_1  and  C_2
REMARK    2  A    between atoms: C_4  and  C_5
REMARK    3  A    between atoms: N_7  and  N_8
REMARK    4  A    between atoms: C_9  and  C_10
REMARK    5  A    between atoms: C_13  and  C_14
REMARK                            x       y       z     vdW  Elec       q    Type
REMARK                         _______ _______ _______ _____ _____    ______ ____
ROOT
ATOM      1  N   UNL     1       2.734   7.541  17.939  0.00  0.00    +0.000 NA
ATOM      2  C   UNL     1       2.535   8.814  17.825  0.00  0.00    +0.000 C 
ENDROOT
BRANCH   2   3
ATOM      3  C   UNL     1       1.314   9.329  18.390  0.00  0.00    +0.000 A 
ATOM      4  C   UNL     1       0.987   9.555  19.713  0.00  0.00    +0.000 A 
ATOM      5  C   UNL     1      -0.335  10.033  19.727  0.00  0.00    +0.000 A 
ATOM      6  C   UNL     1      -0.765  10.065  18.414  0.00  0.00    +0.000 A 
ATOM      7  O   UNL     1       0.254   9.655  17.588  0.00  0.00    +0.000 OA
BRANCH   6   8
ATOM      8  C   UNL     1      -2.059  10.386  17.811  0.00  0.00    +0.000 A 
ATOM      9  C   UNL     1      -2.306  10.024  16.473  0.00  0.00    +0.000 A 
ATOM     10  C   UNL     1      -3.484  10.397  15.823  0.00  0.00    +0.000 A 
ATOM     11  C   UNL     1      -4.445  11.133  16.508  0.00  0.00    +0.000 A 
ATOM     12  C   UNL     1      -4.229  11.471  17.843  0.00  0.00    +0.000 A 
ATOM     13 BR   UNL     1      -5.540  12.474  18.766  0.00  0.00    +0.000 Br
ATOM     14  C   UNL     1      -3.050  11.098  18.498  0.00  0.00    +0.000 A 
ENDBRANCH   6   8
ENDBRANCH   2   3
BRANCH   1  17
ATOM     15  C   UNL     1       4.209   5.652  17.732  0.00  0.00    +0.000 C 
ATOM     16  O   UNL     1       5.333   5.240  17.454  0.00  0.00    +0.000 OA
ATOM     17  N   UNL     1       3.884   6.987  17.466  0.00  0.00    +0.000 N 
ATOM     18  H   UNL     1       4.627   7.562  17.084  0.00  0.00    +0.000 HD
BRANCH  15  22
ATOM     19  C   UNL     1       1.084   3.084  20.817  0.00  0.00    +0.000 C 
ATOM     20  C   UNL     1       1.796   3.695  19.669  0.00  0.00    +0.000 A 
ATOM     21  C   UNL     1       3.030   4.394  19.653  0.00  0.00    +0.000 A 
ATOM     22  C   UNL     1       3.190   4.833  18.351  0.00  0.00    +0.000 A 
ATOM     23  N   UNL     1       2.111   4.318  17.687  0.00  0.00    +0.000 N 
ATOM     24  N   UNL     1       1.244   3.642  18.453  0.00  0.00    +0.000 NA
ATOM     25  H   UNL     1       1.896   4.466  16.707  0.00  0.00    +0.000 HD
ENDBRANCH  15  22
ENDBRANCH   1  17
TORSDOF 4
ENDMDL
