MODEL 1
REMARK VINA RESULT:      -8.0      0.000      0.000
REMARK  Name = 
REMARK  7 active torsions:
REMARK  status: ('A' for Active; 'I' for Inactive)
REMARK    1  A    between atoms: N_2  and  C_4
REMARK    2  A    between atoms: C_7  and  O_8
REMARK    3  A    between atoms: O_8  and  C_9
REMARK    4  A    between atoms: C_9  and  C_10
REMARK    5  A    between atoms: C_10  and  O_11
REMARK    6  A    between atoms: C_10  and  C_12
REMARK    7  A    between atoms: C_12  and  N_13
REMARK                            x       y       z     vdW  Elec       q    Type
REMARK                         _______ _______ _______ _____ _____    ______ ____
ROOT
ATOM      1  C   UNL     1       2.211   3.625  20.917  0.00  0.00    +0.000 C 
ENDROOT
BRANCH   1   2
ATOM      2  O   UNL     1       2.058   3.148  22.267  0.00  0.00    +0.000 OA
ATOM      3  H   UNL     1       2.071   3.915  22.864  0.00  0.00    +0.000 HD
ENDBRANCH   1   2
BRANCH   1   4
ATOM      4  C   UNL     1       1.523   4.992  20.731  0.00  0.00    +0.000 C 
BRANCH   4   5
ATOM      5  O   UNL     1       2.518   5.908  20.253  0.00  0.00    +0.000 OA
BRANCH   5   9
ATOM      6  C   UNL     1       1.221   9.705  19.164  0.00  0.00    +0.000 A 
ATOM      7  C   UNL     1       0.938   9.166  20.424  0.00  0.00    +0.000 A 
ATOM      8  C   UNL     1       1.388   7.882  20.733  0.00  0.00    +0.000 A 
ATOM      9  C   UNL     1       2.103   7.125  19.797  0.00  0.00    +0.000 A 
ATOM     10  C   UNL     1       2.382   7.668  18.542  0.00  0.00    +0.000 A 
ATOM     11  C   UNL     1       1.945   8.960  18.223  0.00  0.00    +0.000 A 
BRANCH   6  13
ATOM     12  O   UNL     1      -0.428  11.329  18.992  0.00  0.00    +0.000 OA
ATOM     13  N   UNL     1       0.770  11.065  18.838  0.00  0.00    +0.000 N 
ATOM     14  O   UNL     1       1.620  11.870  18.429  0.00  0.00    +0.000 OA
ENDBRANCH   6  13
ENDBRANCH   5   9
ENDBRANCH   4   5
ENDBRANCH   1   4
BRANCH   1  15
ATOM     15  C   UNL     1       1.670   2.530  19.968  0.00  0.00    +0.000 C 
BRANCH  15  16
ATOM     16  N   UNL     1       2.655   1.875  19.086  0.00  0.00    +0.000 NA
ATOM     17  C   UNL     1       2.554   2.313  17.671  0.00  0.00    +0.000 C 
ATOM     18  C   UNL     1       2.897   3.797  17.446  0.00  0.00    +0.000 C 
ATOM     19  N   UNL     1       4.246   4.118  17.930  0.00  0.00    +0.000 N 
ATOM     20  C   UNL     1       5.231   4.287  16.971  0.00  0.00    +0.000 A 
ATOM     21  C   UNL     1       6.369   5.043  17.256  0.00  0.00    +0.000 A 
ATOM     22  C   UNL     1       7.287   5.337  16.247  0.00  0.00    +0.000 A 
ATOM     23  C   UNL     1       7.067   4.852  14.969  0.00  0.00    +0.000 A 
ATOM     24  C   UNL     1       5.936   4.086  14.764  0.00  0.00    +0.000 A 
ATOM     25  N   UNL     1       5.028   3.803  15.725  0.00  0.00    +0.000 NA
ATOM     26  C   UNL     1       4.599   3.596  19.263  0.00  0.00    +0.000 C 
ATOM     27  C   UNL     1       4.045   2.165  19.530  0.00  0.00    +0.000 C 
ENDBRANCH  15  16
ENDBRANCH   1  15
TORSDOF 7
ENDMDL
MODEL 2
REMARK VINA RESULT:      -7.9      0.176      1.127
REMARK  Name = 
REMARK  7 active torsions:
REMARK  status: ('A' for Active; 'I' for Inactive)
REMARK    1  A    between atoms: N_2  and  C_4
REMARK    2  A    between atoms: C_7  and  O_8
REMARK    3  A    between atoms: O_8  and  C_9
REMARK    4  A    between atoms: C_9  and  C_10
REMARK    5  A    between atoms: C_10  and  O_11
REMARK    6  A    between atoms: C_10  and  C_12
REMARK    7  A    between atoms: C_12  and  N_13
REMARK                            x       y       z     vdW  Elec       q    Type
REMARK                         _______ _______ _______ _____ _____    ______ ____
ROOT
ATOM      1  C   UNL     1       2.215   3.627  20.903  0.00  0.00    +0.000 C 
ENDROOT
BRANCH   1   2
ATOM      2  O   UNL     1       2.048   3.165  22.257  0.00  0.00    +0.000 OA
ATOM      3  H   UNL     1       1.313   3.658  22.658  0.00  0.00    +0.000 HD
ENDBRANCH   1   2
BRANCH   1   4
ATOM      4  C   UNL     1       1.475   4.960  20.678  0.00  0.00    +0.000 C 
BRANCH   4   5
ATOM      5  O   UNL     1       2.444   5.912  20.215  0.00  0.00    +0.000 OA
BRANCH   5   9
ATOM      6  C   UNL     1       1.160   9.715  19.133  0.00  0.00    +0.000 A 
ATOM      7  C   UNL     1       1.821   8.878  18.227  0.00  0.00    +0.000 A 
ATOM      8  C   UNL     1       2.241   7.615  18.647  0.00  0.00    +0.000 A 
ATOM      9  C   UNL     1       2.022   7.184  19.961  0.00  0.00    +0.000 A 
ATOM     10  C   UNL     1       1.361   8.023  20.859  0.00  0.00    +0.000 A 
ATOM     11  C   UNL     1       0.926   9.289  20.447  0.00  0.00    +0.000 A 
BRANCH   6  13
ATOM     12  O   UNL     1       1.520  11.957  18.654  0.00  0.00    +0.000 OA
ATOM     13  N   UNL     1       0.695  11.037  18.693  0.00  0.00    +0.000 N 
ATOM     14  O   UNL     1      -0.500  11.152  18.382  0.00  0.00    +0.000 OA
ENDBRANCH   6  13
ENDBRANCH   5   9
ENDBRANCH   4   5
ENDBRANCH   1   4
BRANCH   1  15
ATOM     15  C   UNL     1       1.744   2.495  19.959  0.00  0.00    +0.000 C 
BRANCH  15  16
ATOM     16  N   UNL     1       2.782   1.858  19.126  0.00  0.00    +0.000 NA
ATOM     17  C   UNL     1       2.687   2.228  17.692  0.00  0.00    +0.000 C 
ATOM     18  C   UNL     1       2.955   3.718  17.408  0.00  0.00    +0.000 C 
ATOM     19  N   UNL     1       4.275   4.132  17.903  0.00  0.00    +0.000 N 
ATOM     20  C   UNL     1       5.269   4.313  16.956  0.00  0.00    +0.000 A 
ATOM     21  C   UNL     1       6.358   5.141  17.228  0.00  0.00    +0.000 A 
ATOM     22  C   UNL     1       7.281   5.442  16.225  0.00  0.00    +0.000 A 
ATOM     23  C   UNL     1       7.114   4.891  14.966  0.00  0.00    +0.000 A 
ATOM     24  C   UNL     1       6.030   4.057  14.773  0.00  0.00    +0.000 A 
ATOM     25  N   UNL     1       5.118   3.766  15.729  0.00  0.00    +0.000 NA
ATOM     26  C   UNL     1       4.627   3.687  19.263  0.00  0.00    +0.000 C 
ATOM     27  C   UNL     1       4.144   2.241  19.583  0.00  0.00    +0.000 C 
ENDBRANCH  15  16
ENDBRANCH   1  15
TORSDOF 7
ENDMDL
MODEL 3
REMARK VINA RESULT:      -7.6      6.008      7.650
REMARK  Name = 
REMARK  7 active torsions:
REMARK  status: ('A' for Active; 'I' for Inactive)
REMARK    1  A    between atoms: N_2  and  C_4
REMARK    2  A    between atoms: C_7  and  O_8
REMARK    3  A    between atoms: O_8  and  C_9
REMARK    4  A    between atoms: C_9  and  C_10
REMARK    5  A    between atoms: C_10  and  O_11
REMARK    6  A    between atoms: C_10  and  C_12
REMARK    7  A    between atoms: C_12  and  N_13
REMARK                            x       y       z     vdW  Elec       q    Type
REMARK                         _______ _______ _______ _____ _____    ______ ____
ROOT
ATOM      1  C   UNL     1       8.100   7.929  17.891  0.00  0.00    +0.000 C 
ENDROOT
BRANCH   1   2
ATOM      2  O   UNL     1       8.554   7.235  19.068  0.00  0.00    +0.000 OA
ATOM      3  H   UNL     1       8.135   6.358  19.084  0.00  0.00    +0.000 HD
ENDBRANCH   1   2
BRANCH   1   4
ATOM      4  C   UNL     1       8.356   9.444  18.008  0.00  0.00    +0.000 C 
BRANCH   4   5
ATOM      5  O   UNL     1       9.216   9.644  19.139  0.00  0.00    +0.000 OA
BRANCH   5   9
ATOM      6  C   UNL     1      10.633  13.412  20.178  0.00  0.00    +0.000 A 
ATOM      7  C   UNL     1      10.007  12.580  21.113  0.00  0.00    +0.000 A 
ATOM      8  C   UNL     1       9.539  11.329  20.707  0.00  0.00    +0.000 A 
ATOM      9  C   UNL     1       9.676  10.906  19.379  0.00  0.00    +0.000 A 
ATOM     10  C   UNL     1      10.303  11.740  18.452  0.00  0.00    +0.000 A 
ATOM     11  C   UNL     1      10.785  12.994  18.850  0.00  0.00    +0.000 A 
BRANCH   6  13
ATOM     12  O   UNL     1      10.644  15.244  21.605  0.00  0.00    +0.000 OA
ATOM     13  N   UNL     1      11.147  14.722  20.602  0.00  0.00    +0.000 N 
ATOM     14  O   UNL     1      12.059  15.226  19.930  0.00  0.00    +0.000 OA
ENDBRANCH   6  13
ENDBRANCH   5   9
ENDBRANCH   4   5
ENDBRANCH   1   4
BRANCH   1  15
ATOM     15  C   UNL     1       6.610   7.572  17.681  0.00  0.00    +0.000 C 
BRANCH  15  16
ATOM     16  N   UNL     1       6.326   6.264  17.060  0.00  0.00    +0.000 NA
ATOM     17  C   UNL     1       6.344   5.141  18.031  0.00  0.00    +0.000 C 
ATOM     18  C   UNL     1       5.232   5.210  19.094  0.00  0.00    +0.000 C 
ATOM     19  N   UNL     1       3.900   5.262  18.476  0.00  0.00    +0.000 N 
ATOM     20  C   UNL     1       3.145   4.102  18.520  0.00  0.00    +0.000 A 
ATOM     21  C   UNL     1       1.754   4.162  18.423  0.00  0.00    +0.000 A 
ATOM     22  C   UNL     1       0.986   3.013  18.615  0.00  0.00    +0.000 A 
ATOM     23  C   UNL     1       1.621   1.812  18.881  0.00  0.00    +0.000 A 
ATOM     24  C   UNL     1       3.001   1.817  18.934  0.00  0.00    +0.000 A 
ATOM     25  N   UNL     1       3.761   2.923  18.764  0.00  0.00    +0.000 NA
ATOM     26  C   UNL     1       3.741   6.201  17.352  0.00  0.00    +0.000 C 
ATOM     27  C   UNL     1       4.986   6.257  16.416  0.00  0.00    +0.000 C 
ENDBRANCH  15  16
ENDBRANCH   1  15
TORSDOF 7
ENDMDL
MODEL 4
REMARK VINA RESULT:      -7.6      5.614      7.487
REMARK  Name = 
REMARK  7 active torsions:
REMARK  status: ('A' for Active; 'I' for Inactive)
REMARK    1  A    between atoms: N_2  and  C_4
REMARK    2  A    between atoms: C_7  and  O_8
REMARK    3  A    between atoms: O_8  and  C_9
REMARK    4  A    between atoms: C_9  and  C_10
REMARK    5  A    between atoms: C_10  and  O_11
REMARK    6  A    between atoms: C_10  and  C_12
REMARK    7  A    between atoms: C_12  and  N_13
REMARK                            x       y       z     vdW  Elec       q    Type
REMARK                         _______ _______ _______ _____ _____    ______ ____
ROOT
ATOM      1  C   UNL     1       8.119   7.459  17.972  0.00  0.00    +0.000 C 
ENDROOT
BRANCH   1   2
ATOM      2  O   UNL     1       8.527   6.876  19.224  0.00  0.00    +0.000 OA
ATOM      3  H   UNL     1       9.428   7.182  19.423  0.00  0.00    +0.000 HD
ENDBRANCH   1   2
BRANCH   1   4
ATOM      4  C   UNL     1       8.085   8.998  18.063  0.00  0.00    +0.000 C 
BRANCH   4   5
ATOM      5  O   UNL     1       9.052   9.388  19.049  0.00  0.00    +0.000 OA
BRANCH   5   9
ATOM      6  C   UNL     1      10.177  13.385  18.850  0.00  0.00    +0.000 A 
ATOM      7  C   UNL     1      10.206  12.557  17.722  0.00  0.00    +0.000 A 
ATOM      8  C   UNL     1       9.829  11.219  17.849  0.00  0.00    +0.000 A 
ATOM      9  C   UNL     1       9.438  10.696  19.086  0.00  0.00    +0.000 A 
ATOM     10  C   UNL     1       9.410  11.527  20.208  0.00  0.00    +0.000 A 
ATOM     11  C   UNL     1       9.777  12.874  20.092  0.00  0.00    +0.000 A 
BRANCH   6  13
ATOM     12  O   UNL     1       9.674  15.602  18.383  0.00  0.00    +0.000 OA
ATOM     13  N   UNL     1      10.552  14.800  18.722  0.00  0.00    +0.000 N 
ATOM     14  O   UNL     1      11.729  15.107  18.965  0.00  0.00    +0.000 OA
ENDBRANCH   6  13
ENDBRANCH   5   9
ENDBRANCH   4   5
ENDBRANCH   1   4
BRANCH   1  15
ATOM     15  C   UNL     1       6.757   6.836  17.586  0.00  0.00    +0.000 C 
BRANCH  15  16
ATOM     16  N   UNL     1       6.580   5.402  17.884  0.00  0.00    +0.000 NA
ATOM     17  C   UNL     1       5.990   5.154  19.224  0.00  0.00    +0.000 C 
ATOM     18  C   UNL     1       4.547   5.668  19.381  0.00  0.00    +0.000 C 
ATOM     19  N   UNL     1       3.655   5.085  18.371  0.00  0.00    +0.000 N 
ATOM     20  C   UNL     1       2.789   4.092  18.800  0.00  0.00    +0.000 A 
ATOM     21  C   UNL     1       1.615   3.828  18.094  0.00  0.00    +0.000 A 
ATOM     22  C   UNL     1       0.673   2.935  18.606  0.00  0.00    +0.000 A 
ATOM     23  C   UNL     1       0.929   2.298  19.809  0.00  0.00    +0.000 A 
ATOM     24  C   UNL     1       2.124   2.583  20.440  0.00  0.00    +0.000 A 
ATOM     25  N   UNL     1       3.041   3.457  19.966  0.00  0.00    +0.000 NA
ATOM     26  C   UNL     1       4.160   5.072  16.987  0.00  0.00    +0.000 C 
ATOM     27  C   UNL     1       5.683   4.756  16.890  0.00  0.00    +0.000 C 
ENDBRANCH  15  16
ENDBRANCH   1  15
TORSDOF 7
ENDMDL
MODEL 5
REMARK VINA RESULT:      -7.3      1.814      2.962
REMARK  Name = 
REMARK  7 active torsions:
REMARK  status: ('A' for Active; 'I' for Inactive)
REMARK    1  A    between atoms: N_2  and  C_4
REMARK    2  A    between atoms: C_7  and  O_8
REMARK    3  A    between atoms: O_8  and  C_9
REMARK    4  A    between atoms: C_9  and  C_10
REMARK    5  A    between atoms: C_10  and  O_11
REMARK    6  A    between atoms: C_10  and  C_12
REMARK    7  A    between atoms: C_12  and  N_13
REMARK                            x       y       z     vdW  Elec       q    Type
REMARK                         _______ _______ _______ _____ _____    ______ ____
ROOT
ATOM      1  C   UNL     1       3.754   4.331  19.720  0.00  0.00    +0.000 C 
ENDROOT
BRANCH   1   2
ATOM      2  O   UNL     1       3.518   3.025  19.163  0.00  0.00    +0.000 OA
ATOM      3  H   UNL     1       3.275   2.425  19.888  0.00  0.00    +0.000 HD
ENDBRANCH   1   2
BRANCH   1   4
ATOM      4  C   UNL     1       2.607   5.299  19.370  0.00  0.00    +0.000 C 
BRANCH   4   5
ATOM      5  O   UNL     1       2.947   6.580  19.918  0.00  0.00    +0.000 OA
BRANCH   5   9
ATOM      6  C   UNL     1       0.676   9.954  19.058  0.00  0.00    +0.000 A 
ATOM      7  C   UNL     1       0.695   9.389  20.338  0.00  0.00    +0.000 A 
ATOM      8  C   UNL     1       1.466   8.249  20.568  0.00  0.00    +0.000 A 
ATOM      9  C   UNL     1       2.205   7.659  19.536  0.00  0.00    +0.000 A 
ATOM     10  C   UNL     1       2.183   8.228  18.262  0.00  0.00    +0.000 A 
ATOM     11  C   UNL     1       1.420   9.378  18.020  0.00  0.00    +0.000 A 
BRANCH   6  13
ATOM     12  O   UNL     1       0.269  12.223  19.326  0.00  0.00    +0.000 OA
ATOM     13  N   UNL     1      -0.116  11.167  18.812  0.00  0.00    +0.000 N 
ATOM     14  O   UNL     1      -1.125  11.060  18.098  0.00  0.00    +0.000 OA
ENDBRANCH   6  13
ENDBRANCH   5   9
ENDBRANCH   4   5
ENDBRANCH   1   4
BRANCH   1  15
ATOM     15  C   UNL     1       5.137   4.811  19.221  0.00  0.00    +0.000 C 
BRANCH  15  16
ATOM     16  N   UNL     1       5.139   5.742  18.077  0.00  0.00    +0.000 NA
ATOM     17  C   UNL     1       6.486   5.936  17.484  0.00  0.00    +0.000 C 
ATOM     18  C   UNL     1       7.076   4.669  16.836  0.00  0.00    +0.000 C 
ATOM     19  N   UNL     1       6.189   4.134  15.794  0.00  0.00    +0.000 N 
ATOM     20  C   UNL     1       6.568   4.348  14.479  0.00  0.00    +0.000 A 
ATOM     21  C   UNL     1       6.105   3.507  13.467  0.00  0.00    +0.000 A 
ATOM     22  C   UNL     1       6.603   3.629  12.169  0.00  0.00    +0.000 A 
ATOM     23  C   UNL     1       7.542   4.609  11.894  0.00  0.00    +0.000 A 
ATOM     24  C   UNL     1       7.935   5.426  12.936  0.00  0.00    +0.000 A 
ATOM     25  N   UNL     1       7.474   5.312  14.203  0.00  0.00    +0.000 NA
ATOM     26  C   UNL     1       4.760   4.043  16.142  0.00  0.00    +0.000 C 
ATOM     27  C   UNL     1       4.254   5.251  16.987  0.00  0.00    +0.000 C 
ENDBRANCH  15  16
ENDBRANCH   1  15
TORSDOF 7
ENDMDL
MODEL 6
REMARK VINA RESULT:      -7.0      4.004      9.745
REMARK  Name = 
REMARK  7 active torsions:
REMARK  status: ('A' for Active; 'I' for Inactive)
REMARK    1  A    between atoms: N_2  and  C_4
REMARK    2  A    between atoms: C_7  and  O_8
REMARK    3  A    between atoms: O_8  and  C_9
REMARK    4  A    between atoms: C_9  and  C_10
REMARK    5  A    between atoms: C_10  and  O_11
REMARK    6  A    between atoms: C_10  and  C_12
REMARK    7  A    between atoms: C_12  and  N_13
REMARK                            x       y       z     vdW  Elec       q    Type
REMARK                         _______ _______ _______ _____ _____    ______ ____
ROOT
ATOM      1  C   UNL     1       2.079   9.338  18.525  0.00  0.00    +0.000 C 
ENDROOT
BRANCH   1   2
ATOM      2  O   UNL     1       1.649   9.289  17.151  0.00  0.00    +0.000 OA
ATOM      3  H   UNL     1       0.786   8.842  17.119  0.00  0.00    +0.000 HD
ENDBRANCH   1   2
BRANCH   1   4
ATOM      4  C   UNL     1       2.052   7.936  19.164  0.00  0.00    +0.000 C 
BRANCH   4   5
ATOM      5  O   UNL     1       2.362   6.990  18.130  0.00  0.00    +0.000 OA
BRANCH   5   9
ATOM      6  C   UNL     1       6.191   5.373  18.054  0.00  0.00    +0.000 A 
ATOM      7  C   UNL     1       5.762   6.289  17.087  0.00  0.00    +0.000 A 
ATOM      8  C   UNL     1       4.461   6.792  17.154  0.00  0.00    +0.000 A 
ATOM      9  C   UNL     1       3.582   6.381  18.163  0.00  0.00    +0.000 A 
ATOM     10  C   UNL     1       4.016   5.468  19.125  0.00  0.00    +0.000 A 
ATOM     11  C   UNL     1       5.322   4.964  19.075  0.00  0.00    +0.000 A 
BRANCH   6  13
ATOM     12  O   UNL     1       7.980   4.420  16.924  0.00  0.00    +0.000 OA
ATOM     13  N   UNL     1       7.565   4.856  18.004  0.00  0.00    +0.000 N 
ATOM     14  O   UNL     1       8.230   4.889  19.050  0.00  0.00    +0.000 OA
ENDBRANCH   6  13
ENDBRANCH   5   9
ENDBRANCH   4   5
ENDBRANCH   1   4
BRANCH   1  15
ATOM     15  C   UNL     1       1.187  10.366  19.260  0.00  0.00    +0.000 C 
BRANCH  15  16
ATOM     16  N   UNL     1      -0.012   9.835  19.935  0.00  0.00    +0.000 NA
ATOM     17  C   UNL     1      -0.080  10.196  21.374  0.00  0.00    +0.000 C 
ATOM     18  C   UNL     1      -0.237  11.705  21.637  0.00  0.00    +0.000 C 
ATOM     19  N   UNL     1      -1.429  12.247  20.971  0.00  0.00    +0.000 N 
ATOM     20  C   UNL     1      -2.522  12.526  21.775  0.00  0.00    +0.000 A 
ATOM     21  C   UNL     1      -3.477  13.457  21.366  0.00  0.00    +0.000 A 
ATOM     22  C   UNL     1      -4.495  13.849  22.237  0.00  0.00    +0.000 A 
ATOM     23  C   UNL     1      -4.557  13.286  23.501  0.00  0.00    +0.000 A 
ATOM     24  C   UNL     1      -3.597  12.349  23.830  0.00  0.00    +0.000 A 
ATOM     25  N   UNL     1      -2.596  11.968  23.004  0.00  0.00    +0.000 NA
ATOM     26  C   UNL     1      -1.633  11.838  19.570  0.00  0.00    +0.000 C 
ATOM     27  C   UNL     1      -1.255  10.350  19.301  0.00  0.00    +0.000 C 
ENDBRANCH  15  16
ENDBRANCH   1  15
TORSDOF 7
ENDMDL
MODEL 7
REMARK VINA RESULT:      -7.0      3.568      8.646
REMARK  Name = 
REMARK  7 active torsions:
REMARK  status: ('A' for Active; 'I' for Inactive)
REMARK    1  A    between atoms: N_2  and  C_4
REMARK    2  A    between atoms: C_7  and  O_8
REMARK    3  A    between atoms: O_8  and  C_9
REMARK    4  A    between atoms: C_9  and  C_10
REMARK    5  A    between atoms: C_10  and  O_11
REMARK    6  A    between atoms: C_10  and  C_12
REMARK    7  A    between atoms: C_12  and  N_13
REMARK                            x       y       z     vdW  Elec       q    Type
REMARK                         _______ _______ _______ _____ _____    ______ ____
ROOT
ATOM      1  C   UNL     1       0.199   8.914  21.025  0.00  0.00    +0.000 C 
ENDROOT
BRANCH   1   2
ATOM      2  O   UNL     1      -0.884   8.255  21.709  0.00  0.00    +0.000 OA
ATOM      3  H   UNL     1      -1.227   8.861  22.388  0.00  0.00    +0.000 HD
ENDBRANCH   1   2
BRANCH   1   4
ATOM      4  C   UNL     1       1.545   8.224  21.325  0.00  0.00    +0.000 C 
BRANCH   4   5
ATOM      5  O   UNL     1       2.152   7.909  20.063  0.00  0.00    +0.000 OA
BRANCH   5   9
ATOM      6  C   UNL     1       1.698   3.934  18.936  0.00  0.00    +0.000 A 
ATOM      7  C   UNL     1       1.441   4.359  20.244  0.00  0.00    +0.000 A 
ATOM      8  C   UNL     1       1.621   5.704  20.571  0.00  0.00    +0.000 A 
ATOM      9  C   UNL     1       2.067   6.624  19.614  0.00  0.00    +0.000 A 
ATOM     10  C   UNL     1       2.321   6.193  18.311  0.00  0.00    +0.000 A 
ATOM     11  C   UNL     1       2.134   4.847  17.968  0.00  0.00    +0.000 A 
BRANCH   6  13
ATOM     12  O   UNL     1       2.490   1.820  18.393  0.00  0.00    +0.000 OA
ATOM     13  N   UNL     1       1.490   2.524  18.578  0.00  0.00    +0.000 N 
ATOM     14  O   UNL     1       0.321   2.121  18.485  0.00  0.00    +0.000 OA
ENDBRANCH   6  13
ENDBRANCH   5   9
ENDBRANCH   4   5
ENDBRANCH   1   4
BRANCH   1  15
ATOM     15  C   UNL     1       0.170  10.407  21.428  0.00  0.00    +0.000 C 
BRANCH  15  16
ATOM     16  N   UNL     1      -0.384  11.347  20.435  0.00  0.00    +0.000 NA
ATOM     17  C   UNL     1      -0.295  12.766  20.861  0.00  0.00    +0.000 C 
ATOM     18  C   UNL     1       1.146  13.293  20.995  0.00  0.00    +0.000 C 
ATOM     19  N   UNL     1       1.892  13.143  19.738  0.00  0.00    +0.000 N 
ATOM     20  C   UNL     1       2.100  14.292  18.993  0.00  0.00    +0.000 A 
ATOM     21  C   UNL     1       3.162  14.365  18.091  0.00  0.00    +0.000 A 
ATOM     22  C   UNL     1       3.460  15.569  17.452  0.00  0.00    +0.000 A 
ATOM     23  C   UNL     1       2.677  16.682  17.707  0.00  0.00    +0.000 A 
ATOM     24  C   UNL     1       1.624  16.533  18.589  0.00  0.00    +0.000 A 
ATOM     25  N   UNL     1       1.329  15.378  19.228  0.00  0.00    +0.000 NA
ATOM     26  C   UNL     1       1.770  11.840  19.061  0.00  0.00    +0.000 C 
ATOM     27  C   UNL     1       0.334  11.239  19.137  0.00  0.00    +0.000 C 
ENDBRANCH  15  16
ENDBRANCH   1  15
TORSDOF 7
ENDMDL
MODEL 8
REMARK VINA RESULT:      -7.0      3.740      9.941
REMARK  Name = 
REMARK  7 active torsions:
REMARK  status: ('A' for Active; 'I' for Inactive)
REMARK    1  A    between atoms: N_2  and  C_4
REMARK    2  A    between atoms: C_7  and  O_8
REMARK    3  A    between atoms: O_8  and  C_9
REMARK    4  A    between atoms: C_9  and  C_10
REMARK    5  A    between atoms: C_10  and  O_11
REMARK    6  A    between atoms: C_10  and  C_12
REMARK    7  A    between atoms: C_12  and  N_13
REMARK                            x       y       z     vdW  Elec       q    Type
REMARK                         _______ _______ _______ _____ _____    ______ ____
ROOT
ATOM      1  C   UNL     1       1.796  10.160  18.310  0.00  0.00    +0.000 C 
ENDROOT
BRANCH   1   2
ATOM      2  O   UNL     1       2.308  11.150  17.398  0.00  0.00    +0.000 OA
ATOM      3  H   UNL     1       1.611  11.357  16.752  0.00  0.00    +0.000 HD
ENDBRANCH   1   2
BRANCH   1   4
ATOM      4  C   UNL     1       1.707   8.778  17.634  0.00  0.00    +0.000 C 
BRANCH   4   5
ATOM      5  O   UNL     1       2.790   7.985  18.143  0.00  0.00    +0.000 OA
BRANCH   5   9
ATOM      6  C   UNL     1       2.039   4.369  20.052  0.00  0.00    +0.000 A 
ATOM      7  C   UNL     1       2.480   4.420  18.725  0.00  0.00    +0.000 A 
ATOM      8  C   UNL     1       2.705   5.662  18.129  0.00  0.00    +0.000 A 
ATOM      9  C   UNL     1       2.483   6.850  18.836  0.00  0.00    +0.000 A 
ATOM     10  C   UNL     1       2.044   6.792  20.160  0.00  0.00    +0.000 A 
ATOM     11  C   UNL     1       1.824   5.551  20.772  0.00  0.00    +0.000 A 
BRANCH   6  13
ATOM     12  O   UNL     1       1.833   3.020  21.930  0.00  0.00    +0.000 OA
ATOM     13  N   UNL     1       1.820   3.065  20.694  0.00  0.00    +0.000 N 
ATOM     14  O   UNL     1       1.633   2.086  19.957  0.00  0.00    +0.000 OA
ENDBRANCH   6  13
ENDBRANCH   5   9
ENDBRANCH   4   5
ENDBRANCH   1   4
BRANCH   1  15
ATOM     15  C   UNL     1       0.437  10.672  18.845  0.00  0.00    +0.000 C 
BRANCH  15  16
ATOM     16  N   UNL     1       0.462  11.936  19.605  0.00  0.00    +0.000 NA
ATOM     17  C   UNL     1      -0.745  12.773  19.384  0.00  0.00    +0.000 C 
ATOM     18  C   UNL     1      -2.051  12.143  19.901  0.00  0.00    +0.000 C 
ATOM     19  N   UNL     1      -1.967  11.828  21.333  0.00  0.00    +0.000 N 
ATOM     20  C   UNL     1      -2.646  12.669  22.199  0.00  0.00    +0.000 A 
ATOM     21  C   UNL     1      -3.037  12.215  23.459  0.00  0.00    +0.000 A 
ATOM     22  C   UNL     1      -3.848  13.009  24.272  0.00  0.00    +0.000 A 
ATOM     23  C   UNL     1      -4.240  14.258  23.821  0.00  0.00    +0.000 A 
ATOM     24  C   UNL     1      -3.794  14.657  22.576  0.00  0.00    +0.000 A 
ATOM     25  N   UNL     1      -3.019  13.895  21.770  0.00  0.00    +0.000 NA
ATOM     26  C   UNL     1      -0.735  11.153  21.778  0.00  0.00    +0.000 C 
ATOM     27  C   UNL     1       0.548  11.679  21.067  0.00  0.00    +0.000 C 
ENDBRANCH  15  16
ENDBRANCH   1  15
TORSDOF 7
ENDMDL
MODEL 9
REMARK VINA RESULT:      -7.0      5.871      7.688
REMARK  Name = 
REMARK  7 active torsions:
REMARK  status: ('A' for Active; 'I' for Inactive)
REMARK    1  A    between atoms: N_2  and  C_4
REMARK    2  A    between atoms: C_7  and  O_8
REMARK    3  A    between atoms: O_8  and  C_9
REMARK    4  A    between atoms: C_9  and  C_10
REMARK    5  A    between atoms: C_10  and  O_11
REMARK    6  A    between atoms: C_10  and  C_12
REMARK    7  A    between atoms: C_12  and  N_13
REMARK                            x       y       z     vdW  Elec       q    Type
REMARK                         _______ _______ _______ _____ _____    ______ ____
ROOT
ATOM      1  C   UNL     1       8.216   7.730  18.205  0.00  0.00    +0.000 C 
ENDROOT
BRANCH   1   2
ATOM      2  O   UNL     1       8.433   6.700  19.187  0.00  0.00    +0.000 OA
ATOM      3  H   UNL     1       8.929   7.086  19.928  0.00  0.00    +0.000 HD
ENDBRANCH   1   2
BRANCH   1   4
ATOM      4  C   UNL     1       8.616   9.113  18.755  0.00  0.00    +0.000 C 
BRANCH   4   5
ATOM      5  O   UNL     1       8.626  10.026  17.648  0.00  0.00    +0.000 OA
BRANCH   5   9
ATOM      6  C   UNL     1      10.619  13.642  18.130  0.00  0.00    +0.000 A 
ATOM      7  C   UNL     1      11.300  12.420  18.154  0.00  0.00    +0.000 A 
ATOM      8  C   UNL     1      10.579  11.235  17.999  0.00  0.00    +0.000 A 
ATOM      9  C   UNL     1       9.190  11.254  17.834  0.00  0.00    +0.000 A 
ATOM     10  C   UNL     1       8.516  12.476  17.810  0.00  0.00    +0.000 A 
ATOM     11  C   UNL     1       9.230  13.674  17.955  0.00  0.00    +0.000 A 
BRANCH   6  13
ATOM     12  O   UNL     1      11.006  15.869  17.603  0.00  0.00    +0.000 OA
ATOM     13  N   UNL     1      11.373  14.895  18.270  0.00  0.00    +0.000 N 
ATOM     14  O   UNL     1      12.333  14.904  19.055  0.00  0.00    +0.000 OA
ENDBRANCH   6  13
ENDBRANCH   5   9
ENDBRANCH   4   5
ENDBRANCH   1   4
BRANCH   1  15
ATOM     15  C   UNL     1       6.737   7.650  17.759  0.00  0.00    +0.000 C 
BRANCH  15  16
ATOM     16  N   UNL     1       6.346   6.457  16.984  0.00  0.00    +0.000 NA
ATOM     17  C   UNL     1       6.422   5.199  17.771  0.00  0.00    +0.000 C 
ATOM     18  C   UNL     1       5.427   5.130  18.944  0.00  0.00    +0.000 C 
ATOM     19  N   UNL     1       4.042   5.301  18.485  0.00  0.00    +0.000 N 
ATOM     20  C   UNL     1       3.255   4.162  18.435  0.00  0.00    +0.000 A 
ATOM     21  C   UNL     1       1.864   4.264  18.496  0.00  0.00    +0.000 A 
ATOM     22  C   UNL     1       1.079   3.115  18.596  0.00  0.00    +0.000 A 
ATOM     23  C   UNL     1       1.694   1.875  18.612  0.00  0.00    +0.000 A 
ATOM     24  C   UNL     1       3.072   1.845  18.519  0.00  0.00    +0.000 A 
ATOM     25  N   UNL     1       3.850   2.949  18.436  0.00  0.00    +0.000 NA
ATOM     26  C   UNL     1       3.803   6.402  17.535  0.00  0.00    +0.000 C 
ATOM     27  C   UNL     1       4.947   6.574  16.491  0.00  0.00    +0.000 C 
ENDBRANCH  15  16
ENDBRANCH   1  15
TORSDOF 7
ENDMDL
