MODEL 1
REMARK VINA RESULT:      -9.4      0.000      0.000
REMARK  Name = 
REMARK  8 active torsions:
REMARK  status: ('A' for Active; 'I' for Inactive)
REMARK    1  A    between atoms: C_2  and  C_4
REMARK    2  A    between atoms: C_7  and  O_8
REMARK    3  A    between atoms: O_8  and  C_9
REMARK    4  A    between atoms: C_9  and  C_10
REMARK    5  A    between atoms: C_15  and  C_16
REMARK    6  A    between atoms: C_16  and  O_17
REMARK    7  A    between atoms: O_17  and  C_18
REMARK    8  A    between atoms: C_21  and  C_22
REMARK                            x       y       z     vdW  Elec       q    Type
REMARK                         _______ _______ _______ _____ _____    ______ ____
ROOT
ATOM      1  C   UNL     1      -0.684  10.746  21.193  0.00  0.00    +0.000 A 
ATOM      2  C   UNL     1      -0.445  10.379  22.535  0.00  0.00    +0.000 A 
ATOM      3  C   UNL     1       0.473   9.384  22.830  0.00  0.00    +0.000 A 
ATOM      4  C   UNL     1       1.164   8.743  21.809  0.00  0.00    +0.000 A 
ATOM      5  C   UNL     1       0.930   9.047  20.445  0.00  0.00    +0.000 A 
ATOM      6  C   UNL     1       1.652   8.438  19.381  0.00  0.00    +0.000 A 
ATOM      7  C   UNL     1       1.474   8.893  18.065  0.00  0.00    +0.000 A 
ATOM      8  C   UNL     1       0.434   9.757  17.762  0.00  0.00    +0.000 A 
ATOM      9  C   UNL     1      -0.350  10.278  18.785  0.00  0.00    +0.000 A 
ATOM     10  C   UNL     1      -0.053  10.033  20.141  0.00  0.00    +0.000 A 
ENDROOT
BRANCH   1  11
ATOM     11  C   UNL     1      -1.476  12.019  20.956  0.00  0.00    +0.000 C 
BRANCH  11  12
ATOM     12  O   UNL     1      -1.608  12.793  22.147  0.00  0.00    +0.000 OA
BRANCH  12  16
ATOM     13  C   UNL     1      -5.562  12.812  23.526  0.00  0.00    +0.000 A 
ATOM     14  C   UNL     1      -5.250  12.816  22.164  0.00  0.00    +0.000 A 
ATOM     15  C   UNL     1      -3.913  12.832  21.746  0.00  0.00    +0.000 A 
ATOM     16  C   UNL     1      -2.874  12.849  22.679  0.00  0.00    +0.000 A 
ATOM     17  C   UNL     1      -3.186  12.857  24.043  0.00  0.00    +0.000 A 
ATOM     18  C   UNL     1      -4.526  12.844  24.466  0.00  0.00    +0.000 A 
BRANCH  13  20
ATOM     19  N   UNL     1      -7.669  11.652  23.674  0.00  0.00    +0.000 NA
ATOM     20  C   UNL     1      -6.991  12.717  23.957  0.00  0.00    +0.000 C 
ATOM     21  N   UNL     1      -7.584  13.742  24.640  0.00  0.00    +0.000 N 
ATOM     22  H   UNL     1      -8.606  11.713  24.078  0.00  0.00    +0.000 HD
ATOM     23  H   UNL     1      -8.596  13.754  24.614  0.00  0.00    +0.000 HD
ATOM     24  H   UNL     1      -7.194  14.663  24.466  0.00  0.00    +0.000 HD
ENDBRANCH  13  20
ENDBRANCH  12  16
ENDBRANCH  11  12
ENDBRANCH   1  11
BRANCH   6  25
ATOM     25  C   UNL     1       2.579   7.249  19.578  0.00  0.00    +0.000 C 
BRANCH  25  26
ATOM     26  O   UNL     1       2.346   6.253  18.587  0.00  0.00    +0.000 OA
BRANCH  26  27
ATOM     27  C   UNL     1       3.408   5.954  17.775  0.00  0.00    +0.000 A 
ATOM     28  C   UNL     1       3.533   4.601  17.449  0.00  0.00    +0.000 A 
ATOM     29  C   UNL     1       4.532   4.163  16.574  0.00  0.00    +0.000 A 
ATOM     30  C   UNL     1       5.410   5.085  16.000  0.00  0.00    +0.000 A 
ATOM     31  C   UNL     1       5.305   6.439  16.342  0.00  0.00    +0.000 A 
ATOM     32  C   UNL     1       4.309   6.871  17.227  0.00  0.00    +0.000 A 
BRANCH  30  33
ATOM     33  C   UNL     1       6.432   4.623  15.018  0.00  0.00    +0.000 C 
ATOM     34  N   UNL     1       6.282   3.563  14.289  0.00  0.00    +0.000 NA
ATOM     35  N   UNL     1       7.594   5.315  14.852  0.00  0.00    +0.000 N 
ATOM     36  H   UNL     1       5.414   3.071  14.519  0.00  0.00    +0.000 HD
ATOM     37  H   UNL     1       7.530   6.324  14.905  0.00  0.00    +0.000 HD
ATOM     38  H   UNL     1       8.093   4.994  14.025  0.00  0.00    +0.000 HD
ENDBRANCH  30  33
ENDBRANCH  26  27
ENDBRANCH  25  26
ENDBRANCH   6  25
TORSDOF 8
ENDMDL
MODEL 2
REMARK VINA RESULT:      -9.3      2.591      4.565
REMARK  Name = 
REMARK  8 active torsions:
REMARK  status: ('A' for Active; 'I' for Inactive)
REMARK    1  A    between atoms: C_2  and  C_4
REMARK    2  A    between atoms: C_7  and  O_8
REMARK    3  A    between atoms: O_8  and  C_9
REMARK    4  A    between atoms: C_9  and  C_10
REMARK    5  A    between atoms: C_15  and  C_16
REMARK    6  A    between atoms: C_16  and  O_17
REMARK    7  A    between atoms: O_17  and  C_18
REMARK    8  A    between atoms: C_21  and  C_22
REMARK                            x       y       z     vdW  Elec       q    Type
REMARK                         _______ _______ _______ _____ _____    ______ ____
ROOT
ATOM      1  C   UNL     1       1.681   7.183  20.242  0.00  0.00    +0.000 A 
ATOM      2  C   UNL     1       2.080   8.115  19.259  0.00  0.00    +0.000 A 
ATOM      3  C   UNL     1       2.507   7.675  18.017  0.00  0.00    +0.000 A 
ATOM      4  C   UNL     1       2.542   6.316  17.729  0.00  0.00    +0.000 A 
ATOM      5  C   UNL     1       2.190   5.340  18.694  0.00  0.00    +0.000 A 
ATOM      6  C   UNL     1       2.174   3.945  18.414  0.00  0.00    +0.000 A 
ATOM      7  C   UNL     1       1.672   3.046  19.369  0.00  0.00    +0.000 A 
ATOM      8  C   UNL     1       1.419   3.474  20.663  0.00  0.00    +0.000 A 
ATOM      9  C   UNL     1       1.533   4.824  20.977  0.00  0.00    +0.000 A 
ATOM     10  C   UNL     1       1.802   5.793  19.989  0.00  0.00    +0.000 A 
ENDROOT
BRANCH   1  11
ATOM     11  C   UNL     1       0.964   7.731  21.462  0.00  0.00    +0.000 C 
BRANCH  11  12
ATOM     12  O   UNL     1       1.420   9.039  21.804  0.00  0.00    +0.000 OA
BRANCH  12  16
ATOM     13  C   UNL     1      -1.617  11.900  22.164  0.00  0.00    +0.000 A 
ATOM     14  C   UNL     1      -0.753  11.866  21.065  0.00  0.00    +0.000 A 
ATOM     15  C   UNL     1       0.263  10.905  20.996  0.00  0.00    +0.000 A 
ATOM     16  C   UNL     1       0.434   9.972  22.021  0.00  0.00    +0.000 A 
ATOM     17  C   UNL     1      -0.423  10.013  23.126  0.00  0.00    +0.000 A 
ATOM     18  C   UNL     1      -1.442  10.977  23.201  0.00  0.00    +0.000 A 
BRANCH  13  20
ATOM     19  N   UNL     1      -3.133  13.429  21.082  0.00  0.00    +0.000 NA
ATOM     20  C   UNL     1      -2.745  12.881  22.188  0.00  0.00    +0.000 C 
ATOM     21  N   UNL     1      -3.364  13.206  23.363  0.00  0.00    +0.000 N 
ATOM     22  H   UNL     1      -3.941  14.031  21.250  0.00  0.00    +0.000 HD
ATOM     23  H   UNL     1      -3.874  14.080  23.359  0.00  0.00    +0.000 HD
ATOM     24  H   UNL     1      -2.790  13.110  24.196  0.00  0.00    +0.000 HD
ENDBRANCH  13  20
ENDBRANCH  12  16
ENDBRANCH  11  12
ENDBRANCH   1  11
BRANCH   6  25
ATOM     25  C   UNL     1       2.745   3.345  17.139  0.00  0.00    +0.000 C 
BRANCH  25  26
ATOM     26  O   UNL     1       4.078   2.887  17.345  0.00  0.00    +0.000 OA
BRANCH  26  27
ATOM     27  C   UNL     1       5.009   3.854  17.617  0.00  0.00    +0.000 A 
ATOM     28  C   UNL     1       5.462   4.562  16.501  0.00  0.00    +0.000 A 
ATOM     29  C   UNL     1       6.363   5.622  16.641  0.00  0.00    +0.000 A 
ATOM     30  C   UNL     1       6.809   5.997  17.911  0.00  0.00    +0.000 A 
ATOM     31  C   UNL     1       6.378   5.275  19.030  0.00  0.00    +0.000 A 
ATOM     32  C   UNL     1       5.482   4.208  18.884  0.00  0.00    +0.000 A 
BRANCH  30  33
ATOM     33  C   UNL     1       7.719   7.168  18.062  0.00  0.00    +0.000 C 
ATOM     34  N   UNL     1       8.538   7.301  19.057  0.00  0.00    +0.000 NA
ATOM     35  N   UNL     1       7.717   8.168  17.137  0.00  0.00    +0.000 N 
ATOM     36  H   UNL     1       8.432   6.540  19.733  0.00  0.00    +0.000 HD
ATOM     37  H   UNL     1       7.593   7.890  16.172  0.00  0.00    +0.000 HD
ATOM     38  H   UNL     1       8.514   8.787  17.271  0.00  0.00    +0.000 HD
ENDBRANCH  30  33
ENDBRANCH  26  27
ENDBRANCH  25  26
ENDBRANCH   6  25
TORSDOF 8
ENDMDL
MODEL 3
REMARK VINA RESULT:      -9.3      3.049      4.819
REMARK  Name = 
REMARK  8 active torsions:
REMARK  status: ('A' for Active; 'I' for Inactive)
REMARK    1  A    between atoms: C_2  and  C_4
REMARK    2  A    between atoms: C_7  and  O_8
REMARK    3  A    between atoms: O_8  and  C_9
REMARK    4  A    between atoms: C_9  and  C_10
REMARK    5  A    between atoms: C_15  and  C_16
REMARK    6  A    between atoms: C_16  and  O_17
REMARK    7  A    between atoms: O_17  and  C_18
REMARK    8  A    between atoms: C_21  and  C_22
REMARK                            x       y       z     vdW  Elec       q    Type
REMARK                         _______ _______ _______ _____ _____    ______ ____
ROOT
ATOM      1  C   UNL     1       1.943   7.374  20.210  0.00  0.00    +0.000 A 
ATOM      2  C   UNL     1       2.221   8.222  19.116  0.00  0.00    +0.000 A 
ATOM      3  C   UNL     1       2.458   7.684  17.862  0.00  0.00    +0.000 A 
ATOM      4  C   UNL     1       2.422   6.307  17.672  0.00  0.00    +0.000 A 
ATOM      5  C   UNL     1       2.187   5.413  18.745  0.00  0.00    +0.000 A 
ATOM      6  C   UNL     1       2.102   4.004  18.573  0.00  0.00    +0.000 A 
ATOM      7  C   UNL     1       1.719   3.189  19.652  0.00  0.00    +0.000 A 
ATOM      8  C   UNL     1       1.660   3.714  20.933  0.00  0.00    +0.000 A 
ATOM      9  C   UNL     1       1.847   5.078  21.129  0.00  0.00    +0.000 A 
ATOM     10  C   UNL     1       1.996   5.966  20.045  0.00  0.00    +0.000 A 
ENDROOT
BRANCH   1  11
ATOM     11  C   UNL     1       1.418   8.029  21.474  0.00  0.00    +0.000 C 
BRANCH  11  12
ATOM     12  O   UNL     1       0.045   8.397  21.353  0.00  0.00    +0.000 OA
BRANCH  12  16
ATOM     13  C   UNL     1      -0.793  12.366  22.394  0.00  0.00    +0.000 A 
ATOM     14  C   UNL     1      -1.145  11.291  23.215  0.00  0.00    +0.000 A 
ATOM     15  C   UNL     1      -0.866   9.978  22.818  0.00  0.00    +0.000 A 
ATOM     16  C   UNL     1      -0.237   9.719  21.598  0.00  0.00    +0.000 A 
ATOM     17  C   UNL     1       0.106  10.794  20.770  0.00  0.00    +0.000 A 
ATOM     18  C   UNL     1      -0.175  12.114  21.164  0.00  0.00    +0.000 A 
BRANCH  13  20
ATOM     19  N   UNL     1      -0.052  14.616  22.838  0.00  0.00    +0.000 NA
ATOM     20  C   UNL     1      -1.027  13.766  22.866  0.00  0.00    +0.000 C 
ATOM     21  N   UNL     1      -2.254  14.150  23.329  0.00  0.00    +0.000 N 
ATOM     22  H   UNL     1      -0.378  15.536  23.138  0.00  0.00    +0.000 HD
ATOM     23  H   UNL     1      -2.260  14.976  23.914  0.00  0.00    +0.000 HD
ATOM     24  H   UNL     1      -2.821  13.407  23.725  0.00  0.00    +0.000 HD
ENDBRANCH  13  20
ENDBRANCH  12  16
ENDBRANCH  11  12
ENDBRANCH   1  11
BRANCH   6  25
ATOM     25  C   UNL     1       2.474   3.298  17.278  0.00  0.00    +0.000 C 
BRANCH  25  26
ATOM     26  O   UNL     1       3.810   2.811  17.331  0.00  0.00    +0.000 OA
BRANCH  26  27
ATOM     27  C   UNL     1       4.780   3.745  17.585  0.00  0.00    +0.000 A 
ATOM     28  C   UNL     1       5.203   4.468  16.467  0.00  0.00    +0.000 A 
ATOM     29  C   UNL     1       6.140   5.499  16.592  0.00  0.00    +0.000 A 
ATOM     30  C   UNL     1       6.651   5.829  17.850  0.00  0.00    +0.000 A 
ATOM     31  C   UNL     1       6.249   5.092  18.970  0.00  0.00    +0.000 A 
ATOM     32  C   UNL     1       5.318   4.053  18.838  0.00  0.00    +0.000 A 
BRANCH  30  33
ATOM     33  C   UNL     1       7.600   6.971  17.988  0.00  0.00    +0.000 C 
ATOM     34  N   UNL     1       8.416   7.093  18.987  0.00  0.00    +0.000 NA
ATOM     35  N   UNL     1       7.638   7.956  17.047  0.00  0.00    +0.000 N 
ATOM     36  H   UNL     1       8.280   6.347  19.674  0.00  0.00    +0.000 HD
ATOM     37  H   UNL     1       7.511   7.666  16.086  0.00  0.00    +0.000 HD
ATOM     38  H   UNL     1       8.455   8.549  17.176  0.00  0.00    +0.000 HD
ENDBRANCH  30  33
ENDBRANCH  26  27
ENDBRANCH  25  26
ENDBRANCH   6  25
TORSDOF 8
ENDMDL
MODEL 4
REMARK VINA RESULT:      -9.2      3.888      5.302
REMARK  Name = 
REMARK  8 active torsions:
REMARK  status: ('A' for Active; 'I' for Inactive)
REMARK    1  A    between atoms: C_2  and  C_4
REMARK    2  A    between atoms: C_7  and  O_8
REMARK    3  A    between atoms: O_8  and  C_9
REMARK    4  A    between atoms: C_9  and  C_10
REMARK    5  A    between atoms: C_15  and  C_16
REMARK    6  A    between atoms: C_16  and  O_17
REMARK    7  A    between atoms: O_17  and  C_18
REMARK    8  A    between atoms: C_21  and  C_22
REMARK                            x       y       z     vdW  Elec       q    Type
REMARK                         _______ _______ _______ _____ _____    ______ ____
ROOT
ATOM      1  C   UNL     1       1.834   7.509  20.144  0.00  0.00    +0.000 A 
ATOM      2  C   UNL     1       2.225   8.351  19.080  0.00  0.00    +0.000 A 
ATOM      3  C   UNL     1       2.551   7.808  17.848  0.00  0.00    +0.000 A 
ATOM      4  C   UNL     1       2.494   6.433  17.651  0.00  0.00    +0.000 A 
ATOM      5  C   UNL     1       2.147   5.544  18.697  0.00  0.00    +0.000 A 
ATOM      6  C   UNL     1       2.038   4.138  18.514  0.00  0.00    +0.000 A 
ATOM      7  C   UNL     1       1.545   3.333  19.554  0.00  0.00    +0.000 A 
ATOM      8  C   UNL     1       1.393   3.857  20.828  0.00  0.00    +0.000 A 
ATOM      9  C   UNL     1       1.600   5.215  21.044  0.00  0.00    +0.000 A 
ATOM     10  C   UNL     1       1.863   6.101  19.979  0.00  0.00    +0.000 A 
ENDROOT
BRANCH   1  11
ATOM     11  C   UNL     1       1.224   8.176  21.363  0.00  0.00    +0.000 C 
BRANCH  11  12
ATOM     12  O   UNL     1      -0.109   8.619  21.116  0.00  0.00    +0.000 OA
BRANCH  12  16
ATOM     13  C   UNL     1      -0.203  12.577  19.749  0.00  0.00    +0.000 A 
ATOM     14  C   UNL     1       0.426  12.217  20.945  0.00  0.00    +0.000 A 
ATOM     15  C   UNL     1       0.414  10.885  21.376  0.00  0.00    +0.000 A 
ATOM     16  C   UNL     1      -0.227   9.897  20.624  0.00  0.00    +0.000 A 
ATOM     17  C   UNL     1      -0.865  10.258  19.433  0.00  0.00    +0.000 A 
ATOM     18  C   UNL     1      -0.859  11.595  18.998  0.00  0.00    +0.000 A 
BRANCH  13  20
ATOM     19  N   UNL     1       0.985  14.408  18.727  0.00  0.00    +0.000 NA
ATOM     20  C   UNL     1      -0.115  13.988  19.262  0.00  0.00    +0.000 C 
ATOM     21  N   UNL     1      -1.182  14.836  19.383  0.00  0.00    +0.000 N 
ATOM     22  H   UNL     1       0.874  15.368  18.398  0.00  0.00    +0.000 HD
ATOM     23  H   UNL     1      -0.961  15.822  19.339  0.00  0.00    +0.000 HD
ATOM     24  H   UNL     1      -1.817  14.627  20.147  0.00  0.00    +0.000 HD
ENDBRANCH  13  20
ENDBRANCH  12  16
ENDBRANCH  11  12
ENDBRANCH   1  11
BRANCH   6  25
ATOM     25  C   UNL     1       2.497   3.424  17.252  0.00  0.00    +0.000 C 
BRANCH  25  26
ATOM     26  O   UNL     1       3.817   2.914  17.408  0.00  0.00    +0.000 OA
BRANCH  26  27
ATOM     27  C   UNL     1       4.793   3.842  17.664  0.00  0.00    +0.000 A 
ATOM     28  C   UNL     1       5.265   4.520  16.537  0.00  0.00    +0.000 A 
ATOM     29  C   UNL     1       6.213   5.540  16.659  0.00  0.00    +0.000 A 
ATOM     30  C   UNL     1       6.686   5.907  17.922  0.00  0.00    +0.000 A 
ATOM     31  C   UNL     1       6.235   5.215  19.052  0.00  0.00    +0.000 A 
ATOM     32  C   UNL     1       5.292   4.186  18.923  0.00  0.00    +0.000 A 
BRANCH  30  33
ATOM     33  C   UNL     1       7.648   7.038  18.054  0.00  0.00    +0.000 C 
ATOM     34  N   UNL     1       8.483   7.143  19.039  0.00  0.00    +0.000 NA
ATOM     35  N   UNL     1       7.679   8.031  17.122  0.00  0.00    +0.000 N 
ATOM     36  H   UNL     1       8.352   6.392  19.722  0.00  0.00    +0.000 HD
ATOM     37  H   UNL     1       7.533   7.752  16.161  0.00  0.00    +0.000 HD
ATOM     38  H   UNL     1       8.504   8.616  17.242  0.00  0.00    +0.000 HD
ENDBRANCH  30  33
ENDBRANCH  26  27
ENDBRANCH  25  26
ENDBRANCH   6  25
TORSDOF 8
ENDMDL
MODEL 5
REMARK VINA RESULT:      -9.2      2.534      4.540
REMARK  Name = 
REMARK  8 active torsions:
REMARK  status: ('A' for Active; 'I' for Inactive)
REMARK    1  A    between atoms: C_2  and  C_4
REMARK    2  A    between atoms: C_7  and  O_8
REMARK    3  A    between atoms: O_8  and  C_9
REMARK    4  A    between atoms: C_9  and  C_10
REMARK    5  A    between atoms: C_15  and  C_16
REMARK    6  A    between atoms: C_16  and  O_17
REMARK    7  A    between atoms: O_17  and  C_18
REMARK    8  A    between atoms: C_21  and  C_22
REMARK                            x       y       z     vdW  Elec       q    Type
REMARK                         _______ _______ _______ _____ _____    ______ ____
ROOT
ATOM      1  C   UNL     1       1.819   7.183  20.169  0.00  0.00    +0.000 A 
ATOM      2  C   UNL     1       2.087   8.002  19.051  0.00  0.00    +0.000 A 
ATOM      3  C   UNL     1       2.376   7.429  17.823  0.00  0.00    +0.000 A 
ATOM      4  C   UNL     1       2.401   6.047  17.684  0.00  0.00    +0.000 A 
ATOM      5  C   UNL     1       2.178   5.183  18.783  0.00  0.00    +0.000 A 
ATOM      6  C   UNL     1       2.155   3.765  18.662  0.00  0.00    +0.000 A 
ATOM      7  C   UNL     1       1.781   2.975  19.761  0.00  0.00    +0.000 A 
ATOM      8  C   UNL     1       1.670   3.543  21.021  0.00  0.00    +0.000 A 
ATOM      9  C   UNL     1       1.797   4.919  21.170  0.00  0.00    +0.000 A 
ATOM     10  C   UNL     1       1.934   5.774  20.058  0.00  0.00    +0.000 A 
ENDROOT
BRANCH   1  11
ATOM     11  C   UNL     1       1.239   7.860  21.397  0.00  0.00    +0.000 C 
BRANCH  11  12
ATOM     12  O   UNL     1       1.511   9.260  21.413  0.00  0.00    +0.000 OA
BRANCH  12  16
ATOM     13  C   UNL     1      -1.576  11.792  22.676  0.00  0.00    +0.000 A 
ATOM     14  C   UNL     1      -0.714  12.134  21.630  0.00  0.00    +0.000 A 
ATOM     15  C   UNL     1       0.319  11.267  21.254  0.00  0.00    +0.000 A 
ATOM     16  C   UNL     1       0.510  10.053  21.918  0.00  0.00    +0.000 A 
ATOM     17  C   UNL     1      -0.345   9.715  22.973  0.00  0.00    +0.000 A 
ATOM     18  C   UNL     1      -1.382  10.584  23.355  0.00  0.00    +0.000 A 
BRANCH  13  20
ATOM     19  N   UNL     1      -3.727  12.215  23.675  0.00  0.00    +0.000 NA
ATOM     20  C   UNL     1      -2.722  12.691  23.015  0.00  0.00    +0.000 C 
ATOM     21  N   UNL     1      -2.718  14.003  22.630  0.00  0.00    +0.000 N 
ATOM     22  H   UNL     1      -4.401  12.957  23.875  0.00  0.00    +0.000 HD
ATOM     23  H   UNL     1      -3.625  14.451  22.602  0.00  0.00    +0.000 HD
ATOM     24  H   UNL     1      -2.172  14.209  21.799  0.00  0.00    +0.000 HD
ENDBRANCH  13  20
ENDBRANCH  12  16
ENDBRANCH  11  12
ENDBRANCH   1  11
BRANCH   6  25
ATOM     25  C   UNL     1       2.586   3.030  17.402  0.00  0.00    +0.000 C 
BRANCH  25  26
ATOM     26  O   UNL     1       3.986   2.773  17.418  0.00  0.00    +0.000 OA
BRANCH  26  27
ATOM     27  C   UNL     1       4.798   3.876  17.461  0.00  0.00    +0.000 A 
ATOM     28  C   UNL     1       5.376   4.127  18.708  0.00  0.00    +0.000 A 
ATOM     29  C   UNL     1       6.279   5.181  18.881  0.00  0.00    +0.000 A 
ATOM     30  C   UNL     1       6.628   5.986  17.793  0.00  0.00    +0.000 A 
ATOM     31  C   UNL     1       6.033   5.754  16.548  0.00  0.00    +0.000 A 
ATOM     32  C   UNL     1       5.121   4.704  16.382  0.00  0.00    +0.000 A 
BRANCH  30  33
ATOM     33  C   UNL     1       7.640   7.068  17.966  0.00  0.00    +0.000 C 
ATOM     34  N   UNL     1       7.789   8.036  17.118  0.00  0.00    +0.000 NA
ATOM     35  N   UNL     1       8.470   7.072  19.047  0.00  0.00    +0.000 N 
ATOM     36  H   UNL     1       7.172   7.924  16.310  0.00  0.00    +0.000 HD
ATOM     37  H   UNL     1       8.069   6.767  19.924  0.00  0.00    +0.000 HD
ATOM     38  H   UNL     1       8.960   7.960  19.124  0.00  0.00    +0.000 HD
ENDBRANCH  30  33
ENDBRANCH  26  27
ENDBRANCH  25  26
ENDBRANCH   6  25
TORSDOF 8
ENDMDL
MODEL 6
REMARK VINA RESULT:      -9.1      2.597      4.518
REMARK  Name = 
REMARK  8 active torsions:
REMARK  status: ('A' for Active; 'I' for Inactive)
REMARK    1  A    between atoms: C_2  and  C_4
REMARK    2  A    between atoms: C_7  and  O_8
REMARK    3  A    between atoms: O_8  and  C_9
REMARK    4  A    between atoms: C_9  and  C_10
REMARK    5  A    between atoms: C_15  and  C_16
REMARK    6  A    between atoms: C_16  and  O_17
REMARK    7  A    between atoms: O_17  and  C_18
REMARK    8  A    between atoms: C_21  and  C_22
REMARK                            x       y       z     vdW  Elec       q    Type
REMARK                         _______ _______ _______ _____ _____    ______ ____
ROOT
ATOM      1  C   UNL     1       1.756   7.543  20.134  0.00  0.00    +0.000 A 
ATOM      2  C   UNL     1       2.114   8.402  19.072  0.00  0.00    +0.000 A 
ATOM      3  C   UNL     1       2.462   7.875  17.839  0.00  0.00    +0.000 A 
ATOM      4  C   UNL     1       2.458   6.499  17.639  0.00  0.00    +0.000 A 
ATOM      5  C   UNL     1       2.146   5.595  18.683  0.00  0.00    +0.000 A 
ATOM      6  C   UNL     1       2.092   4.185  18.497  0.00  0.00    +0.000 A 
ATOM      7  C   UNL     1       1.631   3.360  19.534  0.00  0.00    +0.000 A 
ATOM      8  C   UNL     1       1.458   3.875  20.809  0.00  0.00    +0.000 A 
ATOM      9  C   UNL     1       1.612   5.239  21.028  0.00  0.00    +0.000 A 
ATOM     10  C   UNL     1       1.840   6.137  19.966  0.00  0.00    +0.000 A 
ENDROOT
BRANCH   1  11
ATOM     11  C   UNL     1       1.120   8.182  21.354  0.00  0.00    +0.000 C 
BRANCH  11  12
ATOM     12  O   UNL     1       1.394   9.580  21.427  0.00  0.00    +0.000 OA
BRANCH  12  16
ATOM     13  C   UNL     1      -1.889  12.178  21.386  0.00  0.00    +0.000 A 
ATOM     14  C   UNL     1      -1.468  11.530  22.551  0.00  0.00    +0.000 A 
ATOM     15  C   UNL     1      -0.378  10.651  22.515  0.00  0.00    +0.000 A 
ATOM     16  C   UNL     1       0.301  10.405  21.320  0.00  0.00    +0.000 A 
ATOM     17  C   UNL     1      -0.127  11.046  20.152  0.00  0.00    +0.000 A 
ATOM     18  C   UNL     1      -1.222  11.926  20.183  0.00  0.00    +0.000 A 
BRANCH  13  20
ATOM     19  N   UNL     1      -3.557  13.583  20.360  0.00  0.00    +0.000 NA
ATOM     20  C   UNL     1      -3.005  13.173  21.455  0.00  0.00    +0.000 C 
ATOM     21  N   UNL     1      -3.439  13.653  22.659  0.00  0.00    +0.000 N 
ATOM     22  H   UNL     1      -4.332  14.214  20.570  0.00  0.00    +0.000 HD
ATOM     23  H   UNL     1      -3.947  14.527  22.622  0.00  0.00    +0.000 HD
ATOM     24  H   UNL     1      -2.746  13.653  23.402  0.00  0.00    +0.000 HD
ENDBRANCH  13  20
ENDBRANCH  12  16
ENDBRANCH  11  12
ENDBRANCH   1  11
BRANCH   6  25
ATOM     25  C   UNL     1       2.579   3.494  17.233  0.00  0.00    +0.000 C 
BRANCH  25  26
ATOM     26  O   UNL     1       3.903   2.999  17.403  0.00  0.00    +0.000 OA
BRANCH  26  27
ATOM     27  C   UNL     1       4.869   3.940  17.646  0.00  0.00    +0.000 A 
ATOM     28  C   UNL     1       5.264   4.676  16.526  0.00  0.00    +0.000 A 
ATOM     29  C   UNL     1       6.193   5.715  16.642  0.00  0.00    +0.000 A 
ATOM     30  C   UNL     1       6.725   6.040  17.893  0.00  0.00    +0.000 A 
ATOM     31  C   UNL     1       6.351   5.289  19.014  0.00  0.00    +0.000 A 
ATOM     32  C   UNL     1       5.428   4.243  18.891  0.00  0.00    +0.000 A 
BRANCH  30  33
ATOM     33  C   UNL     1       7.665   7.189  18.022  0.00  0.00    +0.000 C 
ATOM     34  N   UNL     1       7.709   8.165  17.171  0.00  0.00    +0.000 NA
ATOM     35  N   UNL     1       8.540   7.252  19.065  0.00  0.00    +0.000 N 
ATOM     36  H   UNL     1       7.065   8.009  16.391  0.00  0.00    +0.000 HD
ATOM     37  H   UNL     1       8.201   6.921  19.959  0.00  0.00    +0.000 HD
ATOM     38  H   UNL     1       8.970   8.173  19.122  0.00  0.00    +0.000 HD
ENDBRANCH  30  33
ENDBRANCH  26  27
ENDBRANCH  25  26
ENDBRANCH   6  25
TORSDOF 8
ENDMDL
MODEL 7
REMARK VINA RESULT:      -9.0      2.367      3.048
REMARK  Name = 
REMARK  8 active torsions:
REMARK  status: ('A' for Active; 'I' for Inactive)
REMARK    1  A    between atoms: C_2  and  C_4
REMARK    2  A    between atoms: C_7  and  O_8
REMARK    3  A    between atoms: O_8  and  C_9
REMARK    4  A    between atoms: C_9  and  C_10
REMARK    5  A    between atoms: C_15  and  C_16
REMARK    6  A    between atoms: C_16  and  O_17
REMARK    7  A    between atoms: O_17  and  C_18
REMARK    8  A    between atoms: C_21  and  C_22
REMARK                            x       y       z     vdW  Elec       q    Type
REMARK                         _______ _______ _______ _____ _____    ______ ____
ROOT
ATOM      1  C   UNL     1      -0.015  10.994  20.669  0.00  0.00    +0.000 A 
ATOM      2  C   UNL     1      -0.283  10.791  22.041  0.00  0.00    +0.000 A 
ATOM      3  C   UNL     1       0.133   9.627  22.666  0.00  0.00    +0.000 A 
ATOM      4  C   UNL     1       0.818   8.654  21.949  0.00  0.00    +0.000 A 
ATOM      5  C   UNL     1       1.077   8.792  20.564  0.00  0.00    +0.000 A 
ATOM      6  C   UNL     1       1.813   7.833  19.814  0.00  0.00    +0.000 A 
ATOM      7  C   UNL     1       2.161   8.104  18.481  0.00  0.00    +0.000 A 
ATOM      8  C   UNL     1       1.592   9.180  17.818  0.00  0.00    +0.000 A 
ATOM      9  C   UNL     1       0.782  10.069  18.516  0.00  0.00    +0.000 A 
ATOM     10  C   UNL     1       0.601   9.966  19.910  0.00  0.00    +0.000 A 
ENDROOT
BRANCH   1  11
ATOM     11  C   UNL     1      -0.240  12.390  20.121  0.00  0.00    +0.000 C 
BRANCH  11  12
ATOM     12  O   UNL     1      -1.469  12.950  20.578  0.00  0.00    +0.000 OA
BRANCH  12  16
ATOM     13  C   UNL     1      -5.064  11.784  18.775  0.00  0.00    +0.000 A 
ATOM     14  C   UNL     1      -5.032  12.489  19.981  0.00  0.00    +0.000 A 
ATOM     15  C   UNL     1      -3.807  12.841  20.561  0.00  0.00    +0.000 A 
ATOM     16  C   UNL     1      -2.601  12.489  19.949  0.00  0.00    +0.000 A 
ATOM     17  C   UNL     1      -2.633  11.773  18.748  0.00  0.00    +0.000 A 
ATOM     18  C   UNL     1      -3.860  11.416  18.164  0.00  0.00    +0.000 A 
BRANCH  13  20
ATOM     19  N   UNL     1      -6.754  12.177  17.103  0.00  0.00    +0.000 NA
ATOM     20  C   UNL     1      -6.379  11.484  18.128  0.00  0.00    +0.000 C 
ATOM     21  N   UNL     1      -7.186  10.492  18.613  0.00  0.00    +0.000 N 
ATOM     22  H   UNL     1      -7.642  11.822  16.742  0.00  0.00    +0.000 HD
ATOM     23  H   UNL     1      -8.161  10.556  18.349  0.00  0.00    +0.000 HD
ATOM     24  H   UNL     1      -7.077  10.289  19.602  0.00  0.00    +0.000 HD
ENDBRANCH  13  20
ENDBRANCH  12  16
ENDBRANCH  11  12
ENDBRANCH   1  11
BRANCH   6  25
ATOM     25  C   UNL     1       2.200   6.467  20.361  0.00  0.00    +0.000 C 
BRANCH  25  26
ATOM     26  O   UNL     1       2.189   5.485  19.330  0.00  0.00    +0.000 OA
BRANCH  26  27
ATOM     27  C   UNL     1       3.369   5.311  18.655  0.00  0.00    +0.000 A 
ATOM     28  C   UNL     1       4.518   5.500  19.427  0.00  0.00    +0.000 A 
ATOM     29  C   UNL     1       5.790   5.290  18.884  0.00  0.00    +0.000 A 
ATOM     30  C   UNL     1       5.921   4.868  17.558  0.00  0.00    +0.000 A 
ATOM     31  C   UNL     1       4.774   4.701  16.773  0.00  0.00    +0.000 A 
ATOM     32  C   UNL     1       3.503   4.923  17.319  0.00  0.00    +0.000 A 
BRANCH  30  33
ATOM     33  C   UNL     1       7.275   4.582  17.002  0.00  0.00    +0.000 C 
ATOM     34  N   UNL     1       7.560   4.701  15.744  0.00  0.00    +0.000 NA
ATOM     35  N   UNL     1       8.284   4.168  17.818  0.00  0.00    +0.000 N 
ATOM     36  H   UNL     1       6.734   4.956  15.196  0.00  0.00    +0.000 HD
ATOM     37  H   UNL     1       8.319   4.586  18.739  0.00  0.00    +0.000 HD
ATOM     38  H   UNL     1       9.179   4.203  17.335  0.00  0.00    +0.000 HD
ENDBRANCH  30  33
ENDBRANCH  26  27
ENDBRANCH  25  26
ENDBRANCH   6  25
TORSDOF 8
ENDMDL
MODEL 8
REMARK VINA RESULT:      -8.9      3.040      4.701
REMARK  Name = 
REMARK  8 active torsions:
REMARK  status: ('A' for Active; 'I' for Inactive)
REMARK    1  A    between atoms: C_2  and  C_4
REMARK    2  A    between atoms: C_7  and  O_8
REMARK    3  A    between atoms: O_8  and  C_9
REMARK    4  A    between atoms: C_9  and  C_10
REMARK    5  A    between atoms: C_15  and  C_16
REMARK    6  A    between atoms: C_16  and  O_17
REMARK    7  A    between atoms: O_17  and  C_18
REMARK    8  A    between atoms: C_21  and  C_22
REMARK                            x       y       z     vdW  Elec       q    Type
REMARK                         _______ _______ _______ _____ _____    ______ ____
ROOT
ATOM      1  C   UNL     1       1.927   7.362  20.210  0.00  0.00    +0.000 A 
ATOM      2  C   UNL     1       2.121   8.196  19.087  0.00  0.00    +0.000 A 
ATOM      3  C   UNL     1       2.325   7.638  17.835  0.00  0.00    +0.000 A 
ATOM      4  C   UNL     1       2.337   6.258  17.676  0.00  0.00    +0.000 A 
ATOM      5  C   UNL     1       2.187   5.380  18.777  0.00  0.00    +0.000 A 
ATOM      6  C   UNL     1       2.153   3.964  18.640  0.00  0.00    +0.000 A 
ATOM      7  C   UNL     1       1.852   3.160  19.751  0.00  0.00    +0.000 A 
ATOM      8  C   UNL     1       1.827   3.712  21.023  0.00  0.00    +0.000 A 
ATOM      9  C   UNL     1       1.966   5.086  21.181  0.00  0.00    +0.000 A 
ATOM     10  C   UNL     1       2.031   5.955  20.073  0.00  0.00    +0.000 A 
ENDROOT
BRANCH   1  11
ATOM     11  C   UNL     1       1.431   8.024  21.482  0.00  0.00    +0.000 C 
BRANCH  11  12
ATOM     12  O   UNL     1       0.024   8.255  21.450  0.00  0.00    +0.000 OA
BRANCH  12  16
ATOM     13  C   UNL     1      -1.290  12.231  21.427  0.00  0.00    +0.000 A 
ATOM     14  C   UNL     1      -0.994  11.539  20.249  0.00  0.00    +0.000 A 
ATOM     15  C   UNL     1      -0.536  10.216  20.304  0.00  0.00    +0.000 A 
ATOM     16  C   UNL     1      -0.362   9.571  21.531  0.00  0.00    +0.000 A 
ATOM     17  C   UNL     1      -0.648  10.267  22.710  0.00  0.00    +0.000 A 
ATOM     18  C   UNL     1      -1.105  11.595  22.660  0.00  0.00    +0.000 A 
BRANCH  13  20
ATOM     19  N   UNL     1      -1.469  14.503  22.209  0.00  0.00    +0.000 NA
ATOM     20  C   UNL     1      -1.852  13.615  21.350  0.00  0.00    +0.000 C 
ATOM     21  N   UNL     1      -2.765  13.945  20.388  0.00  0.00    +0.000 N 
ATOM     22  H   UNL     1      -1.897  15.407  21.997  0.00  0.00    +0.000 HD
ATOM     23  H   UNL     1      -3.328  14.764  20.585  0.00  0.00    +0.000 HD
ATOM     24  H   UNL     1      -3.331  13.175  20.045  0.00  0.00    +0.000 HD
ENDBRANCH  13  20
ENDBRANCH  12  16
ENDBRANCH  11  12
ENDBRANCH   1  11
BRANCH   6  25
ATOM     25  C   UNL     1       2.496   3.245  17.345  0.00  0.00    +0.000 C 
BRANCH  25  26
ATOM     26  O   UNL     1       3.889   2.957  17.277  0.00  0.00    +0.000 OA
BRANCH  26  27
ATOM     27  C   UNL     1       4.729   4.036  17.367  0.00  0.00    +0.000 A 
ATOM     28  C   UNL     1       5.346   4.195  18.611  0.00  0.00    +0.000 A 
ATOM     29  C   UNL     1       6.279   5.214  18.824  0.00  0.00    +0.000 A 
ATOM     30  C   UNL     1       6.620   6.078  17.779  0.00  0.00    +0.000 A 
ATOM     31  C   UNL     1       5.987   5.938  16.538  0.00  0.00    +0.000 A 
ATOM     32  C   UNL     1       5.045   4.922  16.333  0.00  0.00    +0.000 A 
BRANCH  30  33
ATOM     33  C   UNL     1       7.662   7.122  17.991  0.00  0.00    +0.000 C 
ATOM     34  N   UNL     1       7.842   8.115  17.179  0.00  0.00    +0.000 NA
ATOM     35  N   UNL     1       8.489   7.064  19.072  0.00  0.00    +0.000 N 
ATOM     36  H   UNL     1       7.222   8.051  16.366  0.00  0.00    +0.000 HD
ATOM     37  H   UNL     1       8.078   6.740  19.938  0.00  0.00    +0.000 HD
ATOM     38  H   UNL     1       9.006   7.934  19.181  0.00  0.00    +0.000 HD
ENDBRANCH  30  33
ENDBRANCH  26  27
ENDBRANCH  25  26
ENDBRANCH   6  25
TORSDOF 8
ENDMDL
MODEL 9
REMARK VINA RESULT:      -8.9      3.211     11.556
REMARK  Name = 
REMARK  8 active torsions:
REMARK  status: ('A' for Active; 'I' for Inactive)
REMARK    1  A    between atoms: C_2  and  C_4
REMARK    2  A    between atoms: C_7  and  O_8
REMARK    3  A    between atoms: O_8  and  C_9
REMARK    4  A    between atoms: C_9  and  C_10
REMARK    5  A    between atoms: C_15  and  C_16
REMARK    6  A    between atoms: C_16  and  O_17
REMARK    7  A    between atoms: O_17  and  C_18
REMARK    8  A    between atoms: C_21  and  C_22
REMARK                            x       y       z     vdW  Elec       q    Type
REMARK                         _______ _______ _______ _____ _____    ______ ____
ROOT
ATOM      1  C   UNL     1       3.194   4.882  19.166  0.00  0.00    +0.000 A 
ATOM      2  C   UNL     1       2.580   4.337  20.314  0.00  0.00    +0.000 A 
ATOM      3  C   UNL     1       1.717   5.109  21.075  0.00  0.00    +0.000 A 
ATOM      4  C   UNL     1       1.450   6.424  20.711  0.00  0.00    +0.000 A 
ATOM      5  C   UNL     1       2.073   7.029  19.593  0.00  0.00    +0.000 A 
ATOM      6  C   UNL     1       1.786   8.358  19.172  0.00  0.00    +0.000 A 
ATOM      7  C   UNL     1       2.326   8.843  17.970  0.00  0.00    +0.000 A 
ATOM      8  C   UNL     1       3.320   8.132  17.316  0.00  0.00    +0.000 A 
ATOM      9  C   UNL     1       3.685   6.873  17.780  0.00  0.00    +0.000 A 
ATOM     10  C   UNL     1       3.001   6.249  18.842  0.00  0.00    +0.000 A 
ENDROOT
BRANCH   1  11
ATOM     11  C   UNL     1       3.893   3.912  18.231  0.00  0.00    +0.000 C 
BRANCH  11  12
ATOM     12  O   UNL     1       5.311   4.056  18.276  0.00  0.00    +0.000 OA
BRANCH  12  16
ATOM     13  C   UNL     1       6.917   4.633  14.452  0.00  0.00    +0.000 A 
ATOM     14  C   UNL     1       5.632   4.120  14.649  0.00  0.00    +0.000 A 
ATOM     15  C   UNL     1       5.142   3.923  15.946  0.00  0.00    +0.000 A 
ATOM     16  C   UNL     1       5.928   4.228  17.060  0.00  0.00    +0.000 A 
ATOM     17  C   UNL     1       7.218   4.730  16.863  0.00  0.00    +0.000 A 
ATOM     18  C   UNL     1       7.715   4.928  15.564  0.00  0.00    +0.000 A 
BRANCH  13  20
ATOM     19  N   UNL     1       8.208   5.899  12.859  0.00  0.00    +0.000 NA
ATOM     20  C   UNL     1       7.398   4.912  13.063  0.00  0.00    +0.000 C 
ATOM     21  N   UNL     1       6.985   4.139  12.013  0.00  0.00    +0.000 N 
ATOM     22  H   UNL     1       8.487   5.930  11.876  0.00  0.00    +0.000 HD
ATOM     23  H   UNL     1       7.080   4.562  11.098  0.00  0.00    +0.000 HD
ATOM     24  H   UNL     1       6.079   3.696  12.130  0.00  0.00    +0.000 HD
ENDBRANCH  13  20
ENDBRANCH  12  16
ENDBRANCH  11  12
ENDBRANCH   1  11
BRANCH   6  25
ATOM     25  C   UNL     1       0.965   9.335  20.000  0.00  0.00    +0.000 C 
BRANCH  25  26
ATOM     26  O   UNL     1       0.704  10.527  19.267  0.00  0.00    +0.000 OA
BRANCH  26  27
ATOM     27  C   UNL     1      -0.594  10.714  18.867  0.00  0.00    +0.000 A 
ATOM     28  C   UNL     1      -1.287  11.701  19.572  0.00  0.00    +0.000 A 
ATOM     29  C   UNL     1      -2.598  12.043  19.225  0.00  0.00    +0.000 A 
ATOM     30  C   UNL     1      -3.224  11.407  18.150  0.00  0.00    +0.000 A 
ATOM     31  C   UNL     1      -2.543  10.400  17.456  0.00  0.00    +0.000 A 
ATOM     32  C   UNL     1      -1.233  10.054  17.814  0.00  0.00    +0.000 A 
BRANCH  30  33
ATOM     33  C   UNL     1      -4.597  11.820  17.742  0.00  0.00    +0.000 C 
ATOM     34  N   UNL     1      -5.316  12.652  18.427  0.00  0.00    +0.000 NA
ATOM     35  N   UNL     1      -5.162  11.318  16.608  0.00  0.00    +0.000 N 
ATOM     36  H   UNL     1      -4.844  12.933  19.290  0.00  0.00    +0.000 HD
ATOM     37  H   UNL     1      -4.544  11.181  15.819  0.00  0.00    +0.000 HD
ATOM     38  H   UNL     1      -6.006  11.833  16.365  0.00  0.00    +0.000 HD
ENDBRANCH  30  33
ENDBRANCH  26  27
ENDBRANCH  25  26
ENDBRANCH   6  25
TORSDOF 8
ENDMDL
