MODEL 1
REMARK VINA RESULT:      -6.1      0.000      0.000
REMARK  Name = 
REMARK  7 active torsions:
REMARK  status: ('A' for Active; 'I' for Inactive)
REMARK    1  A    between atoms: C_1  and  C_2
REMARK    2  A    between atoms: C_2  and  C_3
REMARK    3  A    between atoms: C_3  and  C_4
REMARK    4  A    between atoms: C_3  and  C_5
REMARK    5  A    between atoms: C_5  and  N_6
REMARK    6  A    between atoms: C_5  and  C_7
REMARK    7  A    between atoms: C_12  and  C_13
REMARK                            x       y       z     vdW  Elec       q    Type
REMARK                         _______ _______ _______ _____ _____    ______ ____
ROOT
ATOM      1  C   UNL     1       2.808   3.782  18.175  0.00  0.00    +0.000 C 
ATOM      2  O   UNL     1       2.088   3.695  17.180  0.00  0.00    +0.000 OA
ATOM      3  N   UNL     1       3.754   4.791  18.294  0.00  0.00    +0.000 N 
ATOM      4  C   UNL     1       3.811   5.897  17.364  0.00  0.00    +0.000 C 
ATOM      5  C   UNL     1       5.286   6.042  17.055  0.00  0.00    +0.000 C 
ATOM      6  C   UNL     1       5.990   5.612  18.349  0.00  0.00    +0.000 C 
ATOM      7  C   UNL     1       4.987   4.696  19.063  0.00  0.00    +0.000 C 
ENDROOT
BRANCH   6   8
ATOM      8  C   UNL     1       7.246   4.832  17.998  0.00  0.00    +0.000 C 
ATOM      9  N   UNL     1       8.289   4.185  17.706  0.00  0.00    +0.000 NA
ENDBRANCH   6   8
BRANCH   1  10
ATOM     10  C   UNL     1       2.693   2.784  19.366  0.00  0.00    +0.000 C 
BRANCH  10  11
ATOM     11  N   UNL     1       1.763   1.705  18.970  0.00  0.00    +0.000 NA
ATOM     12  H   UNL     1       0.852   2.122  18.767  0.00  0.00    +0.000 HD
ATOM     13  H   UNL     1       1.614   1.066  19.748  0.00  0.00    +0.000 HD
ENDBRANCH  10  11
BRANCH  10  14
ATOM     14  C   UNL     1       2.234   3.480  20.686  0.00  0.00    +0.000 C 
ATOM     15  C   UNL     1       1.705   2.446  21.697  0.00  0.00    +0.000 C 
BRANCH  14  17
ATOM     16  C   UNL     1       1.565   5.976  20.733  0.00  0.00    +0.000 C 
ATOM     17  C   UNL     1       1.145   4.547  20.408  0.00  0.00    +0.000 C 
ENDBRANCH  14  17
ENDBRANCH  10  14
ENDBRANCH   1  10
TORSDOF 5
ENDMDL
MODEL 2
REMARK VINA RESULT:      -6.1      1.885      5.386
REMARK  Name = 
REMARK  7 active torsions:
REMARK  status: ('A' for Active; 'I' for Inactive)
REMARK    1  A    between atoms: C_1  and  C_2
REMARK    2  A    between atoms: C_2  and  C_3
REMARK    3  A    between atoms: C_3  and  C_4
REMARK    4  A    between atoms: C_3  and  C_5
REMARK    5  A    between atoms: C_5  and  N_6
REMARK    6  A    between atoms: C_5  and  C_7
REMARK    7  A    between atoms: C_12  and  C_13
REMARK                            x       y       z     vdW  Elec       q    Type
REMARK                         _______ _______ _______ _____ _____    ______ ____
ROOT
ATOM      1  C   UNL     1       4.077   5.144  17.912  0.00  0.00    +0.000 C 
ATOM      2  O   UNL     1       3.669   6.236  17.517  0.00  0.00    +0.000 OA
ATOM      3  N   UNL     1       3.216   4.068  18.077  0.00  0.00    +0.000 N 
ATOM      4  C   UNL     1       1.847   4.109  17.611  0.00  0.00    +0.000 C 
ATOM      5  C   UNL     1       1.051   3.523  18.758  0.00  0.00    +0.000 C 
ATOM      6  C   UNL     1       2.002   2.502  19.398  0.00  0.00    +0.000 C 
ATOM      7  C   UNL     1       3.410   2.977  19.021  0.00  0.00    +0.000 C 
ENDROOT
BRANCH   6   8
ATOM      8  C   UNL     1       1.827   2.537  20.908  0.00  0.00    +0.000 C 
ATOM      9  N   UNL     1       1.683   2.567  22.160  0.00  0.00    +0.000 NA
ENDBRANCH   6   8
BRANCH   1  10
ATOM     10  C   UNL     1       5.582   4.894  18.234  0.00  0.00    +0.000 C 
BRANCH  10  11
ATOM     11  N   UNL     1       5.827   5.316  19.630  0.00  0.00    +0.000 NA
ATOM     12  H   UNL     1       6.798   5.104  19.866  0.00  0.00    +0.000 HD
ATOM     13  H   UNL     1       5.254   4.768  20.268  0.00  0.00    +0.000 HD
ENDBRANCH  10  11
BRANCH  10  14
ATOM     14  C   UNL     1       6.535   5.627  17.239  0.00  0.00    +0.000 C 
ATOM     15  C   UNL     1       7.209   4.624  16.283  0.00  0.00    +0.000 C 
BRANCH  14  17
ATOM     16  C   UNL     1       7.706   7.905  17.583  0.00  0.00    +0.000 C 
ATOM     17  C   UNL     1       7.618   6.440  17.993  0.00  0.00    +0.000 C 
ENDBRANCH  14  17
ENDBRANCH  10  14
ENDBRANCH   1  10
TORSDOF 5
ENDMDL
MODEL 3
REMARK VINA RESULT:      -6.1      1.970      5.487
REMARK  Name = 
REMARK  7 active torsions:
REMARK  status: ('A' for Active; 'I' for Inactive)
REMARK    1  A    between atoms: C_1  and  C_2
REMARK    2  A    between atoms: C_2  and  C_3
REMARK    3  A    between atoms: C_3  and  C_4
REMARK    4  A    between atoms: C_3  and  C_5
REMARK    5  A    between atoms: C_5  and  N_6
REMARK    6  A    between atoms: C_5  and  C_7
REMARK    7  A    between atoms: C_12  and  C_13
REMARK                            x       y       z     vdW  Elec       q    Type
REMARK                         _______ _______ _______ _____ _____    ______ ____
ROOT
ATOM      1  C   UNL     1       4.437   4.932  18.050  0.00  0.00    +0.000 C 
ATOM      2  O   UNL     1       4.172   6.075  17.680  0.00  0.00    +0.000 OA
ATOM      3  N   UNL     1       3.450   3.961  18.158  0.00  0.00    +0.000 N 
ATOM      4  C   UNL     1       2.110   4.178  17.661  0.00  0.00    +0.000 C 
ATOM      5  C   UNL     1       1.218   3.658  18.768  0.00  0.00    +0.000 C 
ATOM      6  C   UNL     1       2.023   2.512  19.397  0.00  0.00    +0.000 C 
ATOM      7  C   UNL     1       3.488   2.828  19.071  0.00  0.00    +0.000 C 
ENDROOT
BRANCH   6   8
ATOM      8  C   UNL     1       1.811   2.524  20.903  0.00  0.00    +0.000 C 
ATOM      9  N   UNL     1       1.636   2.534  22.151  0.00  0.00    +0.000 NA
ENDBRANCH   6   8
BRANCH   1  10
ATOM     10  C   UNL     1       5.892   4.495  18.400  0.00  0.00    +0.000 C 
BRANCH  10  11
ATOM     11  N   UNL     1       6.330   5.271  19.579  0.00  0.00    +0.000 NA
ATOM     12  H   UNL     1       6.245   4.678  20.407  0.00  0.00    +0.000 HD
ATOM     13  H   UNL     1       5.707   6.061  19.732  0.00  0.00    +0.000 HD
ENDBRANCH  10  11
BRANCH  10  14
ATOM     14  C   UNL     1       6.874   4.673  17.200  0.00  0.00    +0.000 C 
ATOM     15  C   UNL     1       7.271   6.151  17.030  0.00  0.00    +0.000 C 
BRANCH  14  17
ATOM     16  C   UNL     1       6.847   4.748  14.616  0.00  0.00    +0.000 C 
ATOM     17  C   UNL     1       6.253   4.142  15.882  0.00  0.00    +0.000 C 
ENDBRANCH  14  17
ENDBRANCH  10  14
ENDBRANCH   1  10
TORSDOF 5
ENDMDL
MODEL 4
REMARK VINA RESULT:      -5.9      2.040      2.669
REMARK  Name = 
REMARK  7 active torsions:
REMARK  status: ('A' for Active; 'I' for Inactive)
REMARK    1  A    between atoms: C_1  and  C_2
REMARK    2  A    between atoms: C_2  and  C_3
REMARK    3  A    between atoms: C_3  and  C_4
REMARK    4  A    between atoms: C_3  and  C_5
REMARK    5  A    between atoms: C_5  and  N_6
REMARK    6  A    between atoms: C_5  and  C_7
REMARK    7  A    between atoms: C_12  and  C_13
REMARK                            x       y       z     vdW  Elec       q    Type
REMARK                         _______ _______ _______ _____ _____    ______ ____
ROOT
ATOM      1  C   UNL     1       4.086   5.032  18.874  0.00  0.00    +0.000 C 
ATOM      2  O   UNL     1       3.751   6.026  19.518  0.00  0.00    +0.000 OA
ATOM      3  N   UNL     1       5.421   4.762  18.604  0.00  0.00    +0.000 N 
ATOM      4  C   UNL     1       6.490   5.515  19.222  0.00  0.00    +0.000 C 
ATOM      5  C   UNL     1       7.444   5.801  18.082  0.00  0.00    +0.000 C 
ATOM      6  C   UNL     1       7.301   4.588  17.152  0.00  0.00    +0.000 C 
ATOM      7  C   UNL     1       5.908   4.020  17.451  0.00  0.00    +0.000 C 
ENDROOT
BRANCH   6   8
ATOM      8  C   UNL     1       7.373   5.057  15.708  0.00  0.00    +0.000 C 
ATOM      9  N   UNL     1       7.432   5.446  14.510  0.00  0.00    +0.000 NA
ENDBRANCH   6   8
BRANCH   1  10
ATOM     10  C   UNL     1       3.042   4.004  18.341  0.00  0.00    +0.000 C 
BRANCH  10  11
ATOM     11  N   UNL     1       1.742   4.698  18.216  0.00  0.00    +0.000 NA
ATOM     12  H   UNL     1       1.260   4.337  17.390  0.00  0.00    +0.000 HD
ATOM     13  H   UNL     1       1.889   5.691  18.045  0.00  0.00    +0.000 HD
ENDBRANCH  10  11
BRANCH  10  14
ATOM     14  C   UNL     1       2.930   2.740  19.249  0.00  0.00    +0.000 C 
ATOM     15  C   UNL     1       3.355   1.473  18.482  0.00  0.00    +0.000 C 
BRANCH  14  17
ATOM     16  C   UNL     1       1.348   2.803  21.292  0.00  0.00    +0.000 C 
ATOM     17  C   UNL     1       1.490   2.565  19.794  0.00  0.00    +0.000 C 
ENDBRANCH  14  17
ENDBRANCH  10  14
ENDBRANCH   1  10
TORSDOF 5
ENDMDL
MODEL 5
REMARK VINA RESULT:      -5.9      2.063      2.539
REMARK  Name = 
REMARK  7 active torsions:
REMARK  status: ('A' for Active; 'I' for Inactive)
REMARK    1  A    between atoms: C_1  and  C_2
REMARK    2  A    between atoms: C_2  and  C_3
REMARK    3  A    between atoms: C_3  and  C_4
REMARK    4  A    between atoms: C_3  and  C_5
REMARK    5  A    between atoms: C_5  and  N_6
REMARK    6  A    between atoms: C_5  and  C_7
REMARK    7  A    between atoms: C_12  and  C_13
REMARK                            x       y       z     vdW  Elec       q    Type
REMARK                         _______ _______ _______ _____ _____    ______ ____
ROOT
ATOM      1  C   UNL     1       2.920   5.539  18.016  0.00  0.00    +0.000 C 
ATOM      2  O   UNL     1       2.372   6.640  18.007  0.00  0.00    +0.000 OA
ATOM      3  N   UNL     1       4.265   5.400  17.697  0.00  0.00    +0.000 N 
ATOM      4  C   UNL     1       5.131   6.546  17.533  0.00  0.00    +0.000 C 
ATOM      5  C   UNL     1       5.922   6.233  16.280  0.00  0.00    +0.000 C 
ATOM      6  C   UNL     1       6.052   4.704  16.285  0.00  0.00    +0.000 C 
ATOM      7  C   UNL     1       4.871   4.206  17.127  0.00  0.00    +0.000 C 
ENDROOT
BRANCH   6   8
ATOM      8  C   UNL     1       5.929   4.189  14.860  0.00  0.00    +0.000 C 
ATOM      9  N   UNL     1       5.828   3.763  13.678  0.00  0.00    +0.000 NA
ENDBRANCH   6   8
BRANCH   1  10
ATOM     10  C   UNL     1       2.154   4.238  18.401  0.00  0.00    +0.000 C 
BRANCH  10  11
ATOM     11  N   UNL     1       1.188   3.940  17.322  0.00  0.00    +0.000 NA
ATOM     12  H   UNL     1       0.273   3.770  17.744  0.00  0.00    +0.000 HD
ATOM     13  H   UNL     1       1.445   3.077  16.848  0.00  0.00    +0.000 HD
ENDBRANCH  10  11
BRANCH  10  14
ATOM     14  C   UNL     1       1.445   4.351  19.788  0.00  0.00    +0.000 C 
ATOM     15  C   UNL     1       2.374   5.004  20.828  0.00  0.00    +0.000 C 
BRANCH  14  17
ATOM     16  C   UNL     1       1.560   2.560  21.648  0.00  0.00    +0.000 C 
ATOM     17  C   UNL     1       0.982   2.962  20.297  0.00  0.00    +0.000 C 
ENDBRANCH  14  17
ENDBRANCH  10  14
ENDBRANCH   1  10
TORSDOF 5
ENDMDL
MODEL 6
REMARK VINA RESULT:      -5.9      2.142      2.539
REMARK  Name = 
REMARK  7 active torsions:
REMARK  status: ('A' for Active; 'I' for Inactive)
REMARK    1  A    between atoms: C_1  and  C_2
REMARK    2  A    between atoms: C_2  and  C_3
REMARK    3  A    between atoms: C_3  and  C_4
REMARK    4  A    between atoms: C_3  and  C_5
REMARK    5  A    between atoms: C_5  and  N_6
REMARK    6  A    between atoms: C_5  and  C_7
REMARK    7  A    between atoms: C_12  and  C_13
REMARK                            x       y       z     vdW  Elec       q    Type
REMARK                         _______ _______ _______ _____ _____    ______ ____
ROOT
ATOM      1  C   UNL     1       3.313   4.339  17.596  0.00  0.00    +0.000 C 
ATOM      2  O   UNL     1       2.298   5.034  17.609  0.00  0.00    +0.000 OA
ATOM      3  N   UNL     1       4.507   4.815  17.072  0.00  0.00    +0.000 N 
ATOM      4  C   UNL     1       4.676   6.201  16.698  0.00  0.00    +0.000 C 
ATOM      5  C   UNL     1       5.372   6.138  15.355  0.00  0.00    +0.000 C 
ATOM      6  C   UNL     1       6.235   4.871  15.433  0.00  0.00    +0.000 C 
ATOM      7  C   UNL     1       5.552   3.988  16.485  0.00  0.00    +0.000 C 
ENDROOT
BRANCH   6   8
ATOM      8  C   UNL     1       6.221   4.174  14.082  0.00  0.00    +0.000 C 
ATOM      9  N   UNL     1       6.209   3.596  12.961  0.00  0.00    +0.000 NA
ENDBRANCH   6   8
BRANCH   1  10
ATOM     10  C   UNL     1       3.331   2.894  18.182  0.00  0.00    +0.000 C 
BRANCH  10  11
ATOM     11  N   UNL     1       2.151   2.174  17.657  0.00  0.00    +0.000 NA
ATOM     12  H   UNL     1       2.278   1.175  17.830  0.00  0.00    +0.000 HD
ATOM     13  H   UNL     1       2.095   2.281  16.646  0.00  0.00    +0.000 HD
ENDBRANCH  10  11
BRANCH  10  14
ATOM     14  C   UNL     1       3.361   2.883  19.742  0.00  0.00    +0.000 C 
ATOM     15  C   UNL     1       4.453   1.930  20.265  0.00  0.00    +0.000 C 
BRANCH  14  17
ATOM     16  C   UNL     1       1.080   3.646  20.690  0.00  0.00    +0.000 C 
ATOM     17  C   UNL     1       1.985   2.474  20.328  0.00  0.00    +0.000 C 
ENDBRANCH  14  17
ENDBRANCH  10  14
ENDBRANCH   1  10
TORSDOF 5
ENDMDL
MODEL 7
REMARK VINA RESULT:      -5.9      2.110      2.672
REMARK  Name = 
REMARK  7 active torsions:
REMARK  status: ('A' for Active; 'I' for Inactive)
REMARK    1  A    between atoms: C_1  and  C_2
REMARK    2  A    between atoms: C_2  and  C_3
REMARK    3  A    between atoms: C_3  and  C_4
REMARK    4  A    between atoms: C_3  and  C_5
REMARK    5  A    between atoms: C_5  and  N_6
REMARK    6  A    between atoms: C_5  and  C_7
REMARK    7  A    between atoms: C_12  and  C_13
REMARK                            x       y       z     vdW  Elec       q    Type
REMARK                         _______ _______ _______ _____ _____    ______ ____
ROOT
ATOM      1  C   UNL     1       3.420   5.060  17.704  0.00  0.00    +0.000 C 
ATOM      2  O   UNL     1       2.909   6.151  17.954  0.00  0.00    +0.000 OA
ATOM      3  N   UNL     1       4.787   4.932  17.502  0.00  0.00    +0.000 N 
ATOM      4  C   UNL     1       5.702   6.021  17.766  0.00  0.00    +0.000 C 
ATOM      5  C   UNL     1       6.625   6.024  16.567  0.00  0.00    +0.000 C 
ATOM      6  C   UNL     1       6.708   4.551  16.146  0.00  0.00    +0.000 C 
ATOM      7  C   UNL     1       5.421   3.911  16.681  0.00  0.00    +0.000 C 
ENDROOT
BRANCH   6   8
ATOM      8  C   UNL     1       6.740   4.467  14.629  0.00  0.00    +0.000 C 
ATOM      9  N   UNL     1       6.766   4.397  13.370  0.00  0.00    +0.000 NA
ENDBRANCH   6   8
BRANCH   1  10
ATOM     10  C   UNL     1       2.573   3.754  17.617  0.00  0.00    +0.000 C 
BRANCH  10  11
ATOM     11  N   UNL     1       1.166   4.137  17.372  0.00  0.00    +0.000 NA
ATOM     12  H   UNL     1       0.962   4.002  16.380  0.00  0.00    +0.000 HD
ATOM     13  H   UNL     1       1.036   5.130  17.554  0.00  0.00    +0.000 HD
ENDBRANCH  10  11
BRANCH  10  14
ATOM     14  C   UNL     1       2.711   2.867  18.894  0.00  0.00    +0.000 C 
ATOM     15  C   UNL     1       3.379   1.520  18.559  0.00  0.00    +0.000 C 
BRANCH  14  17
ATOM     16  C   UNL     1       1.285   2.919  21.050  0.00  0.00    +0.000 C 
ATOM     17  C   UNL     1       1.332   2.618  19.557  0.00  0.00    +0.000 C 
ENDBRANCH  14  17
ENDBRANCH  10  14
ENDBRANCH   1  10
TORSDOF 5
ENDMDL
MODEL 8
REMARK VINA RESULT:      -5.8      1.980      5.486
REMARK  Name = 
REMARK  7 active torsions:
REMARK  status: ('A' for Active; 'I' for Inactive)
REMARK    1  A    between atoms: C_1  and  C_2
REMARK    2  A    between atoms: C_2  and  C_3
REMARK    3  A    between atoms: C_3  and  C_4
REMARK    4  A    between atoms: C_3  and  C_5
REMARK    5  A    between atoms: C_5  and  N_6
REMARK    6  A    between atoms: C_5  and  C_7
REMARK    7  A    between atoms: C_12  and  C_13
REMARK                            x       y       z     vdW  Elec       q    Type
REMARK                         _______ _______ _______ _____ _____    ______ ____
ROOT
ATOM      1  C   UNL     1       5.722   5.099  18.738  0.00  0.00    +0.000 C 
ATOM      2  O   UNL     1       6.323   5.299  19.792  0.00  0.00    +0.000 OA
ATOM      3  N   UNL     1       4.352   5.305  18.638  0.00  0.00    +0.000 N 
ATOM      4  C   UNL     1       3.599   5.945  19.694  0.00  0.00    +0.000 C 
ATOM      5  C   UNL     1       2.361   5.086  19.835  0.00  0.00    +0.000 C 
ATOM      6  C   UNL     1       2.102   4.555  18.419  0.00  0.00    +0.000 C 
ATOM      7  C   UNL     1       3.465   4.607  17.719  0.00  0.00    +0.000 C 
ENDROOT
BRANCH   6   8
ATOM      8  C   UNL     1       1.616   3.117  18.507  0.00  0.00    +0.000 C 
ATOM      9  N   UNL     1       1.214   1.925  18.581  0.00  0.00    +0.000 NA
ENDBRANCH   6   8
BRANCH   1  10
ATOM     10  C   UNL     1       6.455   4.623  17.447  0.00  0.00    +0.000 C 
BRANCH  10  11
ATOM     11  N   UNL     1       7.749   4.030  17.849  0.00  0.00    +0.000 NA
ATOM     12  H   UNL     1       8.345   3.965  17.022  0.00  0.00    +0.000 HD
ATOM     13  H   UNL     1       7.612   3.076  18.175  0.00  0.00    +0.000 HD
ENDBRANCH  10  11
BRANCH  10  14
ATOM     14  C   UNL     1       6.650   5.775  16.412  0.00  0.00    +0.000 C 
ATOM     15  C   UNL     1       6.560   7.151  17.098  0.00  0.00    +0.000 C 
BRANCH  14  17
ATOM     16  C   UNL     1       5.611   4.370  14.507  0.00  0.00    +0.000 C 
ATOM     17  C   UNL     1       5.604   5.688  15.271  0.00  0.00    +0.000 C 
ENDBRANCH  14  17
ENDBRANCH  10  14
ENDBRANCH   1  10
TORSDOF 5
ENDMDL
MODEL 9
REMARK VINA RESULT:      -5.8      1.962      2.425
REMARK  Name = 
REMARK  7 active torsions:
REMARK  status: ('A' for Active; 'I' for Inactive)
REMARK    1  A    between atoms: C_1  and  C_2
REMARK    2  A    between atoms: C_2  and  C_3
REMARK    3  A    between atoms: C_3  and  C_4
REMARK    4  A    between atoms: C_3  and  C_5
REMARK    5  A    between atoms: C_5  and  N_6
REMARK    6  A    between atoms: C_5  and  C_7
REMARK    7  A    between atoms: C_12  and  C_13
REMARK                            x       y       z     vdW  Elec       q    Type
REMARK                         _______ _______ _______ _____ _____    ______ ____
ROOT
ATOM      1  C   UNL     1       3.510   4.736  18.589  0.00  0.00    +0.000 C 
ATOM      2  O   UNL     1       3.036   5.700  19.190  0.00  0.00    +0.000 OA
ATOM      3  N   UNL     1       4.882   4.558  18.477  0.00  0.00    +0.000 N 
ATOM      4  C   UNL     1       5.819   5.374  19.217  0.00  0.00    +0.000 C 
ATOM      5  C   UNL     1       6.879   5.733  18.198  0.00  0.00    +0.000 C 
ATOM      6  C   UNL     1       6.927   4.523  17.256  0.00  0.00    +0.000 C 
ATOM      7  C   UNL     1       5.550   3.860  17.388  0.00  0.00    +0.000 C 
ENDROOT
BRANCH   6   8
ATOM      8  C   UNL     1       7.136   5.008  15.831  0.00  0.00    +0.000 C 
ATOM      9  N   UNL     1       7.310   5.411  14.649  0.00  0.00    +0.000 NA
ENDBRANCH   6   8
BRANCH   1  10
ATOM     10  C   UNL     1       2.606   3.647  17.935  0.00  0.00    +0.000 C 
BRANCH  10  11
ATOM     11  N   UNL     1       1.402   4.316  17.397  0.00  0.00    +0.000 NA
ATOM     12  H   UNL     1       0.756   4.489  18.170  0.00  0.00    +0.000 HD
ATOM     13  H   UNL     1       0.913   3.696  16.755  0.00  0.00    +0.000 HD
ENDBRANCH  10  11
BRANCH  10  14
ATOM     14  C   UNL     1       2.230   2.506  18.931  0.00  0.00    +0.000 C 
ATOM     15  C   UNL     1       0.703   2.401  19.096  0.00  0.00    +0.000 C 
BRANCH  14  17
ATOM     16  C   UNL     1       1.912   2.822  21.477  0.00  0.00    +0.000 C 
ATOM     17  C   UNL     1       2.893   2.727  20.315  0.00  0.00    +0.000 C 
ENDBRANCH  14  17
ENDBRANCH  10  14
ENDBRANCH   1  10
TORSDOF 5
ENDMDL
