MODEL 1
REMARK VINA RESULT:      -7.7      0.000      0.000
REMARK  Name = 
REMARK  9 active torsions:
REMARK  status: ('A' for Active; 'I' for Inactive)
REMARK    1  A    between atoms: C_1  and  C_2
REMARK    2  A    between atoms: C_2  and  O_3
REMARK    3  A    between atoms: O_3  and  C_4
REMARK    4  A    between atoms: C_4  and  C_6
REMARK    5  A    between atoms: C_6  and  C_7
REMARK    6  A    between atoms: C_7  and  C_8
REMARK    7  A    between atoms: N_15  and  C_16
REMARK    8  A    between atoms: N_26  and  C_27
REMARK    9  A    between atoms: C_27  and  C_28
REMARK                            x       y       z     vdW  Elec       q    Type
REMARK                         _______ _______ _______ _____ _____    ______ ____
ROOT
ATOM      1  C   UNL     1      -0.355  10.670  19.724  0.00  0.00    +0.000 C 
ATOM      2  C   UNL     1      -0.943  11.976  20.388  0.00  0.00    +0.000 C 
ATOM      3  N   UNL     1      -1.606  11.741  21.698  0.00  0.00    +0.000 N 
ATOM      4  C   UNL     1      -0.721  11.120  22.727  0.00  0.00    +0.000 C 
ATOM      5  C   UNL     1       0.271  10.151  22.140  0.00  0.00    +0.000 A 
ATOM      6  N   UNL     1       1.052   9.286  22.841  0.00  0.00    +0.000 NA
ATOM      7  N   UNL     1       1.716   8.538  21.965  0.00  0.00    +0.000 NA
ATOM      8  N   UNL     1       1.398   8.949  20.712  0.00  0.00    +0.000 N 
ATOM      9  C   UNL     1       0.461   9.955  20.784  0.00  0.00    +0.000 A 
ENDROOT
BRANCH   3  10
ATOM     10  C   UNL     1      -2.774  12.426  22.021  0.00  0.00    +0.000 A 
ATOM     11  C   UNL     1      -3.481  13.148  21.038  0.00  0.00    +0.000 A 
ATOM     12  C   UNL     1      -4.682  13.821  21.292  0.00  0.00    +0.000 A 
ATOM     13  C   UNL     1      -5.211  13.809  22.570  0.00  0.00    +0.000 A 
ATOM     14  C   UNL     1      -4.559  13.098  23.570  0.00  0.00    +0.000 A 
ATOM     15  C   UNL     1      -3.366  12.401  23.290  0.00  0.00    +0.000 A 
ENDBRANCH   3  10
BRANCH   1  16
ATOM     16  C   UNL     1       0.566  11.229  18.614  0.00  0.00    +0.000 C 
ATOM     17  O   UNL     1       1.182  10.551  17.808  0.00  0.00    +0.000 OA
BRANCH  16  18
ATOM     18  O   UNL     1       0.695  12.587  18.717  0.00  0.00    +0.000 OA
BRANCH  18  20
ATOM     19  C   UNL     1       2.628  13.706  19.712  0.00  0.00    +0.000 C 
ATOM     20  C   UNL     1       2.006  13.124  18.459  0.00  0.00    +0.000 C 
ENDBRANCH  18  20
ENDBRANCH  16  18
ENDBRANCH   1  16
BRANCH   1  21
ATOM     21  C   UNL     1      -1.453   9.742  19.117  0.00  0.00    +0.000 C 
BRANCH  21  22
ATOM     22  C   UNL     1      -2.293  10.258  17.954  0.00  0.00    +0.000 A 
ATOM     23  C   UNL     1      -3.365  11.137  18.139  0.00  0.00    +0.000 A 
ATOM     24  C   UNL     1      -4.161  11.552  17.057  0.00  0.00    +0.000 A 
ATOM     25  C   UNL     1      -3.873  11.114  15.766  0.00  0.00    +0.000 A 
ATOM     26  C   UNL     1      -2.782  10.281  15.559  0.00  0.00    +0.000 A 
ATOM     27  C   UNL     1      -1.999   9.866  16.640  0.00  0.00    +0.000 A 
ENDBRANCH  21  22
ENDBRANCH   1  21
BRANCH   8  28
ATOM     28  C   UNL     1       1.874   8.171  19.567  0.00  0.00    +0.000 C 
BRANCH  28  29
ATOM     29  C   UNL     1       2.152   6.701  19.816  0.00  0.00    +0.000 A 
ATOM     30  C   UNL     1       1.302   5.887  20.581  0.00  0.00    +0.000 A 
ATOM     31  C   UNL     1       1.631   4.562  20.869  0.00  0.00    +0.000 A 
ATOM     32  C   UNL     1       2.828   4.014  20.412  0.00  0.00    +0.000 A 
ATOM     33  C   UNL     1       3.680   4.806  19.655  0.00  0.00    +0.000 A 
ATOM     34 CL   UNL     1       5.177   4.148  19.097  0.00  0.00    +0.000 Cl
ATOM     35  C   UNL     1       3.348   6.133  19.354  0.00  0.00    +0.000 A 
ENDBRANCH  28  29
ENDBRANCH   8  28
TORSDOF 8
ENDMDL
MODEL 2
REMARK VINA RESULT:      -7.7      0.834      1.159
REMARK  Name = 
REMARK  9 active torsions:
REMARK  status: ('A' for Active; 'I' for Inactive)
REMARK    1  A    between atoms: C_1  and  C_2
REMARK    2  A    between atoms: C_2  and  O_3
REMARK    3  A    between atoms: O_3  and  C_4
REMARK    4  A    between atoms: C_4  and  C_6
REMARK    5  A    between atoms: C_6  and  C_7
REMARK    6  A    between atoms: C_7  and  C_8
REMARK    7  A    between atoms: N_15  and  C_16
REMARK    8  A    between atoms: N_26  and  C_27
REMARK    9  A    between atoms: C_27  and  C_28
REMARK                            x       y       z     vdW  Elec       q    Type
REMARK                         _______ _______ _______ _____ _____    ______ ____
ROOT
ATOM      1  C   UNL     1      -0.447  10.662  19.762  0.00  0.00    +0.000 C 
ATOM      2  C   UNL     1      -1.014  11.943  20.490  0.00  0.00    +0.000 C 
ATOM      3  N   UNL     1      -1.632  11.662  21.813  0.00  0.00    +0.000 N 
ATOM      4  C   UNL     1      -0.712  11.008  22.789  0.00  0.00    +0.000 C 
ATOM      5  C   UNL     1       0.261  10.062  22.137  0.00  0.00    +0.000 A 
ATOM      6  N   UNL     1       1.066   9.176  22.781  0.00  0.00    +0.000 NA
ATOM      7  N   UNL     1       1.702   8.460  21.858  0.00  0.00    +0.000 NA
ATOM      8  N   UNL     1       1.341   8.912  20.631  0.00  0.00    +0.000 N 
ATOM      9  C   UNL     1       0.406   9.913  20.769  0.00  0.00    +0.000 A 
ENDROOT
BRANCH   3  10
ATOM     10  C   UNL     1      -2.790  12.332  22.197  0.00  0.00    +0.000 A 
ATOM     11  C   UNL     1      -3.620  12.946  21.238  0.00  0.00    +0.000 A 
ATOM     12  C   UNL     1      -4.816  13.598  21.560  0.00  0.00    +0.000 A 
ATOM     13  C   UNL     1      -5.215  13.675  22.882  0.00  0.00    +0.000 A 
ATOM     14  C   UNL     1      -4.438  13.071  23.863  0.00  0.00    +0.000 A 
ATOM     15  C   UNL     1      -3.251  12.393  23.519  0.00  0.00    +0.000 A 
ENDBRANCH   3  10
BRANCH   1  16
ATOM     16  C   UNL     1       0.436  11.261  18.642  0.00  0.00    +0.000 C 
ATOM     17  O   UNL     1       1.172  10.618  17.912  0.00  0.00    +0.000 OA
BRANCH  16  18
ATOM     18  O   UNL     1       0.373  12.628  18.642  0.00  0.00    +0.000 OA
BRANCH  18  20
ATOM     19  C   UNL     1       2.416  13.382  19.755  0.00  0.00    +0.000 C 
ATOM     20  C   UNL     1       1.623  13.322  18.465  0.00  0.00    +0.000 C 
ENDBRANCH  18  20
ENDBRANCH  16  18
ENDBRANCH   1  16
BRANCH   1  21
ATOM     21  C   UNL     1      -1.563   9.753  19.160  0.00  0.00    +0.000 C 
BRANCH  21  22
ATOM     22  C   UNL     1      -2.366  10.263  17.969  0.00  0.00    +0.000 A 
ATOM     23  C   UNL     1      -3.427  11.164  18.114  0.00  0.00    +0.000 A 
ATOM     24  C   UNL     1      -4.189  11.574  17.006  0.00  0.00    +0.000 A 
ATOM     25  C   UNL     1      -3.880  11.107  15.731  0.00  0.00    +0.000 A 
ATOM     26  C   UNL     1      -2.800  10.251  15.564  0.00  0.00    +0.000 A 
ATOM     27  C   UNL     1      -2.049   9.842  16.670  0.00  0.00    +0.000 A 
ENDBRANCH  21  22
ENDBRANCH   1  21
BRANCH   8  28
ATOM     28  C   UNL     1       1.780   8.176  19.445  0.00  0.00    +0.000 C 
BRANCH  28  29
ATOM     29  C   UNL     1       2.397   6.811  19.685  0.00  0.00    +0.000 A 
ATOM     30  C   UNL     1       3.667   6.458  19.202  0.00  0.00    +0.000 A 
ATOM     31  C   UNL     1       4.169   5.165  19.359  0.00  0.00    +0.000 A 
ATOM     32  C   UNL     1       3.410   4.183  19.993  0.00  0.00    +0.000 A 
ATOM     33  C   UNL     1       2.153   4.516  20.476  0.00  0.00    +0.000 A 
ATOM     34 CL   UNL     1       1.192   3.305  21.247  0.00  0.00    +0.000 Cl
ATOM     35  C   UNL     1       1.650   5.816  20.330  0.00  0.00    +0.000 A 
ENDBRANCH  28  29
ENDBRANCH   8  28
TORSDOF 8
ENDMDL
MODEL 3
REMARK VINA RESULT:      -7.5      4.234      8.065
REMARK  Name = 
REMARK  9 active torsions:
REMARK  status: ('A' for Active; 'I' for Inactive)
REMARK    1  A    between atoms: C_1  and  C_2
REMARK    2  A    between atoms: C_2  and  O_3
REMARK    3  A    between atoms: O_3  and  C_4
REMARK    4  A    between atoms: C_4  and  C_6
REMARK    5  A    between atoms: C_6  and  C_7
REMARK    6  A    between atoms: C_7  and  C_8
REMARK    7  A    between atoms: N_15  and  C_16
REMARK    8  A    between atoms: N_26  and  C_27
REMARK    9  A    between atoms: C_27  and  C_28
REMARK                            x       y       z     vdW  Elec       q    Type
REMARK                         _______ _______ _______ _____ _____    ______ ____
ROOT
ATOM      1  C   UNL     1      -2.560  12.991  21.288  0.00  0.00    +0.000 C 
ATOM      2  C   UNL     1      -2.797  13.047  19.728  0.00  0.00    +0.000 C 
ATOM      3  N   UNL     1      -3.707  11.987  19.217  0.00  0.00    +0.000 N 
ATOM      4  C   UNL     1      -5.063  11.997  19.840  0.00  0.00    +0.000 C 
ATOM      5  C   UNL     1      -5.043  12.412  21.287  0.00  0.00    +0.000 A 
ATOM      6  N   UNL     1      -6.079  12.312  22.161  0.00  0.00    +0.000 NA
ATOM      7  N   UNL     1      -5.639  12.691  23.358  0.00  0.00    +0.000 NA
ATOM      8  N   UNL     1      -4.343  13.074  23.244  0.00  0.00    +0.000 N 
ATOM      9  C   UNL     1      -3.921  12.885  21.946  0.00  0.00    +0.000 A 
ENDROOT
BRANCH   3  10
ATOM     10  C   UNL     1      -3.437  11.363  18.003  0.00  0.00    +0.000 A 
ATOM     11  C   UNL     1      -2.387  10.431  17.889  0.00  0.00    +0.000 A 
ATOM     12  C   UNL     1      -2.094   9.741  16.706  0.00  0.00    +0.000 A 
ATOM     13  C   UNL     1      -2.848   9.985  15.572  0.00  0.00    +0.000 A 
ATOM     14  C   UNL     1      -3.905  10.884  15.639  0.00  0.00    +0.000 A 
ATOM     15  C   UNL     1      -4.204  11.549  16.845  0.00  0.00    +0.000 A 
ENDBRANCH   3  10
BRANCH   1  16
ATOM     16  C   UNL     1      -1.915  14.364  21.590  0.00  0.00    +0.000 C 
ATOM     17  O   UNL     1      -2.228  15.417  21.060  0.00  0.00    +0.000 OA
BRANCH  16  18
ATOM     18  O   UNL     1      -0.862  14.235  22.455  0.00  0.00    +0.000 OA
BRANCH  18  20
ATOM     19  C   UNL     1       0.404  16.231  23.081  0.00  0.00    +0.000 C 
ATOM     20  C   UNL     1       0.303  15.030  22.163  0.00  0.00    +0.000 C 
ENDBRANCH  18  20
ENDBRANCH  16  18
ENDBRANCH   1  16
BRANCH   1  21
ATOM     21  C   UNL     1      -1.615  11.828  21.724  0.00  0.00    +0.000 C 
BRANCH  21  22
ATOM     22  C   UNL     1      -0.567  11.321  20.739  0.00  0.00    +0.000 A 
ATOM     23  C   UNL     1       0.126  12.180  19.879  0.00  0.00    +0.000 A 
ATOM     24  C   UNL     1       1.046  11.680  18.940  0.00  0.00    +0.000 A 
ATOM     25  C   UNL     1       1.306  10.314  18.870  0.00  0.00    +0.000 A 
ATOM     26  C   UNL     1       0.663   9.454  19.750  0.00  0.00    +0.000 A 
ATOM     27  C   UNL     1      -0.256   9.956  20.678  0.00  0.00    +0.000 A 
ENDBRANCH  21  22
ENDBRANCH   1  21
BRANCH   8  28
ATOM     28  C   UNL     1      -3.582  13.377  24.457  0.00  0.00    +0.000 C 
BRANCH  28  29
ATOM     29  C   UNL     1      -3.407  14.845  24.796  0.00  0.00    +0.000 A 
ATOM     30  C   UNL     1      -4.253  15.846  24.293  0.00  0.00    +0.000 A 
ATOM     31  C   UNL     1      -4.011  17.197  24.548  0.00  0.00    +0.000 A 
ATOM     32  C   UNL     1      -2.907  17.588  25.304  0.00  0.00    +0.000 A 
ATOM     33  C   UNL     1      -2.061  16.610  25.809  0.00  0.00    +0.000 A 
ATOM     34 CL   UNL     1      -0.679  17.080  26.732  0.00  0.00    +0.000 Cl
ATOM     35  C   UNL     1      -2.307  15.253  25.564  0.00  0.00    +0.000 A 
ENDBRANCH  28  29
ENDBRANCH   8  28
TORSDOF 8
ENDMDL
MODEL 4
REMARK VINA RESULT:      -7.5      0.850      1.177
REMARK  Name = 
REMARK  9 active torsions:
REMARK  status: ('A' for Active; 'I' for Inactive)
REMARK    1  A    between atoms: C_1  and  C_2
REMARK    2  A    between atoms: C_2  and  O_3
REMARK    3  A    between atoms: O_3  and  C_4
REMARK    4  A    between atoms: C_4  and  C_6
REMARK    5  A    between atoms: C_6  and  C_7
REMARK    6  A    between atoms: C_7  and  C_8
REMARK    7  A    between atoms: N_15  and  C_16
REMARK    8  A    between atoms: N_26  and  C_27
REMARK    9  A    between atoms: C_27  and  C_28
REMARK                            x       y       z     vdW  Elec       q    Type
REMARK                         _______ _______ _______ _____ _____    ______ ____
ROOT
ATOM      1  C   UNL     1      -0.746  11.127  19.999  0.00  0.00    +0.000 C 
ATOM      2  C   UNL     1      -1.537  12.290  20.716  0.00  0.00    +0.000 C 
ATOM      3  N   UNL     1      -2.175  11.885  21.997  0.00  0.00    +0.000 N 
ATOM      4  C   UNL     1      -1.219  11.351  23.012  0.00  0.00    +0.000 C 
ATOM      5  C   UNL     1      -0.082  10.579  22.399  0.00  0.00    +0.000 A 
ATOM      6  N   UNL     1       0.812   9.807  23.071  0.00  0.00    +0.000 NA
ATOM      7  N   UNL     1       1.597   9.218  22.173  0.00  0.00    +0.000 NA
ATOM      8  N   UNL     1       1.237   9.643  20.936  0.00  0.00    +0.000 N 
ATOM      9  C   UNL     1       0.155  10.488  21.038  0.00  0.00    +0.000 A 
ENDROOT
BRANCH   3  10
ATOM     10  C   UNL     1      -3.439  12.365  22.328  0.00  0.00    +0.000 A 
ATOM     11  C   UNL     1      -3.836  12.480  23.676  0.00  0.00    +0.000 A 
ATOM     12  C   UNL     1      -5.077  12.994  24.071  0.00  0.00    +0.000 A 
ATOM     13  C   UNL     1      -5.985  13.396  23.108  0.00  0.00    +0.000 A 
ATOM     14  C   UNL     1      -5.633  13.317  21.766  0.00  0.00    +0.000 A 
ATOM     15  C   UNL     1      -4.368  12.825  21.386  0.00  0.00    +0.000 A 
ENDBRANCH   3  10
BRANCH   1  16
ATOM     16  C   UNL     1       0.094  11.880  18.940  0.00  0.00    +0.000 C 
ATOM     17  O   UNL     1       0.843  11.352  18.135  0.00  0.00    +0.000 OA
BRANCH  16  18
ATOM     18  O   UNL     1      -0.021  13.235  19.092  0.00  0.00    +0.000 OA
BRANCH  18  20
ATOM     19  C   UNL     1       2.006  13.774  20.349  0.00  0.00    +0.000 C 
ATOM     20  C   UNL     1       1.210  13.984  19.077  0.00  0.00    +0.000 C 
ENDBRANCH  18  20
ENDBRANCH  16  18
ENDBRANCH   1  16
BRANCH   1  21
ATOM     21  C   UNL     1      -1.679  10.077  19.320  0.00  0.00    +0.000 C 
BRANCH  21  22
ATOM     22  C   UNL     1      -2.444  10.475  18.062  0.00  0.00    +0.000 A 
ATOM     23  C   UNL     1      -3.568  11.307  18.105  0.00  0.00    +0.000 A 
ATOM     24  C   UNL     1      -4.290  11.612  16.937  0.00  0.00    +0.000 A 
ATOM     25  C   UNL     1      -3.878  11.110  15.705  0.00  0.00    +0.000 A 
ATOM     26  C   UNL     1      -2.737  10.323  15.640  0.00  0.00    +0.000 A 
ATOM     27  C   UNL     1      -2.025  10.018  16.805  0.00  0.00    +0.000 A 
ENDBRANCH  21  22
ENDBRANCH   1  21
BRANCH   8  28
ATOM     28  C   UNL     1       1.844   9.011  19.763  0.00  0.00    +0.000 C 
BRANCH  28  29
ATOM     29  C   UNL     1       1.928   7.496  19.778  0.00  0.00    +0.000 A 
ATOM     30  C   UNL     1       1.403   6.718  20.820  0.00  0.00    +0.000 A 
ATOM     31  C   UNL     1       1.577   5.333  20.852  0.00  0.00    +0.000 A 
ATOM     32  C   UNL     1       2.296   4.688  19.848  0.00  0.00    +0.000 A 
ATOM     33  C   UNL     1       2.823   5.444  18.809  0.00  0.00    +0.000 A 
ATOM     34 CL   UNL     1       3.733   4.661  17.567  0.00  0.00    +0.000 Cl
ATOM     35  C   UNL     1       2.640   6.832  18.769  0.00  0.00    +0.000 A 
ENDBRANCH  28  29
ENDBRANCH   8  28
TORSDOF 8
ENDMDL
MODEL 5
REMARK VINA RESULT:      -7.4      4.502      8.284
REMARK  Name = 
REMARK  9 active torsions:
REMARK  status: ('A' for Active; 'I' for Inactive)
REMARK    1  A    between atoms: C_1  and  C_2
REMARK    2  A    between atoms: C_2  and  O_3
REMARK    3  A    between atoms: O_3  and  C_4
REMARK    4  A    between atoms: C_4  and  C_6
REMARK    5  A    between atoms: C_6  and  C_7
REMARK    6  A    between atoms: C_7  and  C_8
REMARK    7  A    between atoms: N_15  and  C_16
REMARK    8  A    between atoms: N_26  and  C_27
REMARK    9  A    between atoms: C_27  and  C_28
REMARK                            x       y       z     vdW  Elec       q    Type
REMARK                         _______ _______ _______ _____ _____    ______ ____
ROOT
ATOM      1  C   UNL     1      -2.588  12.986  21.261  0.00  0.00    +0.000 C 
ATOM      2  C   UNL     1      -2.824  13.041  19.701  0.00  0.00    +0.000 C 
ATOM      3  N   UNL     1      -3.733  11.980  19.190  0.00  0.00    +0.000 N 
ATOM      4  C   UNL     1      -5.089  11.987  19.813  0.00  0.00    +0.000 C 
ATOM      5  C   UNL     1      -5.070  12.404  21.260  0.00  0.00    +0.000 A 
ATOM      6  N   UNL     1      -6.106  12.301  22.133  0.00  0.00    +0.000 NA
ATOM      7  N   UNL     1      -5.667  12.681  23.330  0.00  0.00    +0.000 NA
ATOM      8  N   UNL     1      -4.371  13.066  23.216  0.00  0.00    +0.000 N 
ATOM      9  C   UNL     1      -3.949  12.878  21.920  0.00  0.00    +0.000 A 
ENDROOT
BRANCH   3  10
ATOM     10  C   UNL     1      -3.462  11.356  17.976  0.00  0.00    +0.000 A 
ATOM     11  C   UNL     1      -2.410  10.424  17.864  0.00  0.00    +0.000 A 
ATOM     12  C   UNL     1      -2.117   9.735  16.681  0.00  0.00    +0.000 A 
ATOM     13  C   UNL     1      -2.869   9.979  15.546  0.00  0.00    +0.000 A 
ATOM     14  C   UNL     1      -3.927  10.877  15.612  0.00  0.00    +0.000 A 
ATOM     15  C   UNL     1      -4.228  11.541  16.818  0.00  0.00    +0.000 A 
ENDBRANCH   3  10
BRANCH   1  16
ATOM     16  C   UNL     1      -1.945  14.360  21.564  0.00  0.00    +0.000 C 
ATOM     17  O   UNL     1      -0.891  14.525  22.156  0.00  0.00    +0.000 OA
BRANCH  16  18
ATOM     18  O   UNL     1      -2.767  15.385  21.180  0.00  0.00    +0.000 OA
BRANCH  18  20
ATOM     19  C   UNL     1      -2.062  17.458  20.093  0.00  0.00    +0.000 C 
ATOM     20  C   UNL     1      -2.267  16.717  21.399  0.00  0.00    +0.000 C 
ENDBRANCH  18  20
ENDBRANCH  16  18
ENDBRANCH   1  16
BRANCH   1  21
ATOM     21  C   UNL     1      -1.641  11.824  21.698  0.00  0.00    +0.000 C 
BRANCH  21  22
ATOM     22  C   UNL     1      -0.573  11.338  20.724  0.00  0.00    +0.000 A 
ATOM     23  C   UNL     1       0.133  12.214  19.893  0.00  0.00    +0.000 A 
ATOM     24  C   UNL     1       1.072  11.734  18.962  0.00  0.00    +0.000 A 
ATOM     25  C   UNL     1       1.337  10.369  18.873  0.00  0.00    +0.000 A 
ATOM     26  C   UNL     1       0.680   9.493  19.725  0.00  0.00    +0.000 A 
ATOM     27  C   UNL     1      -0.257   9.975  20.644  0.00  0.00    +0.000 A 
ENDBRANCH  21  22
ENDBRANCH   1  21
BRANCH   8  28
ATOM     28  C   UNL     1      -3.612  13.372  24.430  0.00  0.00    +0.000 C 
BRANCH  28  29
ATOM     29  C   UNL     1      -3.338  14.838  24.706  0.00  0.00    +0.000 A 
ATOM     30  C   UNL     1      -2.157  15.287  25.318  0.00  0.00    +0.000 A 
ATOM     31  C   UNL     1      -1.974  16.632  25.643  0.00  0.00    +0.000 A 
ATOM     32  C   UNL     1      -2.974  17.566  25.379  0.00  0.00    +0.000 A 
ATOM     33  C   UNL     1      -4.148  17.138  24.774  0.00  0.00    +0.000 A 
ATOM     34 CL   UNL     1      -5.403  18.281  24.457  0.00  0.00    +0.000 Cl
ATOM     35  C   UNL     1      -4.330  15.791  24.436  0.00  0.00    +0.000 A 
ENDBRANCH  28  29
ENDBRANCH   8  28
TORSDOF 8
ENDMDL
MODEL 6
REMARK VINA RESULT:      -7.4      2.979      7.733
REMARK  Name = 
REMARK  9 active torsions:
REMARK  status: ('A' for Active; 'I' for Inactive)
REMARK    1  A    between atoms: C_1  and  C_2
REMARK    2  A    between atoms: C_2  and  O_3
REMARK    3  A    between atoms: O_3  and  C_4
REMARK    4  A    between atoms: C_4  and  C_6
REMARK    5  A    between atoms: C_6  and  C_7
REMARK    6  A    between atoms: C_7  and  C_8
REMARK    7  A    between atoms: N_15  and  C_16
REMARK    8  A    between atoms: N_26  and  C_27
REMARK    9  A    between atoms: C_27  and  C_28
REMARK                            x       y       z     vdW  Elec       q    Type
REMARK                         _______ _______ _______ _____ _____    ______ ____
ROOT
ATOM      1  C   UNL     1       0.229  10.521  19.495  0.00  0.00    +0.000 C 
ATOM      2  C   UNL     1       0.506   9.043  19.013  0.00  0.00    +0.000 C 
ATOM      3  N   UNL     1       1.571   8.347  19.783  0.00  0.00    +0.000 N 
ATOM      4  C   UNL     1       1.306   8.260  21.249  0.00  0.00    +0.000 C 
ATOM      5  C   UNL     1       0.578   9.463  21.788  0.00  0.00    +0.000 A 
ATOM      6  N   UNL     1       0.390   9.760  23.101  0.00  0.00    +0.000 NA
ATOM      7  N   UNL     1      -0.210  10.945  23.167  0.00  0.00    +0.000 NA
ATOM      8  N   UNL     1      -0.445  11.385  21.905  0.00  0.00    +0.000 N 
ATOM      9  C   UNL     1       0.067  10.481  21.002  0.00  0.00    +0.000 A 
ENDROOT
BRANCH   3  10
ATOM     10  C   UNL     1       2.473   7.515  19.127  0.00  0.00    +0.000 A 
ATOM     11  C   UNL     1       2.768   6.232  19.631  0.00  0.00    +0.000 A 
ATOM     12  C   UNL     1       3.634   5.335  18.994  0.00  0.00    +0.000 A 
ATOM     13  C   UNL     1       4.261   5.712  17.820  0.00  0.00    +0.000 A 
ATOM     14  C   UNL     1       3.990   6.961  17.275  0.00  0.00    +0.000 A 
ATOM     15  C   UNL     1       3.093   7.841  17.914  0.00  0.00    +0.000 A 
ENDBRANCH   3  10
BRANCH   1  16
ATOM     16  C   UNL     1      -1.117  10.863  18.812  0.00  0.00    +0.000 C 
ATOM     17  O   UNL     1      -2.076  11.370  19.370  0.00  0.00    +0.000 OA
BRANCH  16  18
ATOM     18  O   UNL     1      -1.140  10.419  17.518  0.00  0.00    +0.000 OA
BRANCH  18  20
ATOM     19  C   UNL     1      -2.739  10.642  15.681  0.00  0.00    +0.000 C 
ATOM     20  C   UNL     1      -2.420   9.994  17.014  0.00  0.00    +0.000 C 
ENDBRANCH  18  20
ENDBRANCH  16  18
ENDBRANCH   1  16
BRANCH   1  21
ATOM     21  C   UNL     1       1.340  11.527  19.060  0.00  0.00    +0.000 C 
BRANCH  21  22
ATOM     22  C   UNL     1       1.121  13.017  19.299  0.00  0.00    +0.000 A 
ATOM     23  C   UNL     1       1.856  13.737  20.247  0.00  0.00    +0.000 A 
ATOM     24  C   UNL     1       1.594  15.097  20.489  0.00  0.00    +0.000 A 
ATOM     25  C   UNL     1       0.609  15.762  19.763  0.00  0.00    +0.000 A 
ATOM     26  C   UNL     1      -0.095  15.074  18.784  0.00  0.00    +0.000 A 
ATOM     27  C   UNL     1       0.165  13.719  18.552  0.00  0.00    +0.000 A 
ENDBRANCH  21  22
ENDBRANCH   1  21
BRANCH   8  28
ATOM     28  C   UNL     1      -0.948  12.746  21.709  0.00  0.00    +0.000 C 
BRANCH  28  29
ATOM     29  C   UNL     1      -1.781  13.328  22.835  0.00  0.00    +0.000 A 
ATOM     30  C   UNL     1      -1.361  14.428  23.599  0.00  0.00    +0.000 A 
ATOM     31  C   UNL     1      -2.106  14.883  24.688  0.00  0.00    +0.000 A 
ATOM     32  C   UNL     1      -3.287  14.242  25.054  0.00  0.00    +0.000 A 
ATOM     33  C   UNL     1      -3.717  13.152  24.309  0.00  0.00    +0.000 A 
ATOM     34 CL   UNL     1      -5.169  12.335  24.763  0.00  0.00    +0.000 Cl
ATOM     35  C   UNL     1      -2.977  12.700  23.210  0.00  0.00    +0.000 A 
ENDBRANCH  28  29
ENDBRANCH   8  28
TORSDOF 8
ENDMDL
MODEL 7
REMARK VINA RESULT:      -7.3      2.981      7.702
REMARK  Name = 
REMARK  9 active torsions:
REMARK  status: ('A' for Active; 'I' for Inactive)
REMARK    1  A    between atoms: C_1  and  C_2
REMARK    2  A    between atoms: C_2  and  O_3
REMARK    3  A    between atoms: O_3  and  C_4
REMARK    4  A    between atoms: C_4  and  C_6
REMARK    5  A    between atoms: C_6  and  C_7
REMARK    6  A    between atoms: C_7  and  C_8
REMARK    7  A    between atoms: N_15  and  C_16
REMARK    8  A    between atoms: N_26  and  C_27
REMARK    9  A    between atoms: C_27  and  C_28
REMARK                            x       y       z     vdW  Elec       q    Type
REMARK                         _______ _______ _______ _____ _____    ______ ____
ROOT
ATOM      1  C   UNL     1       0.191  10.470  19.475  0.00  0.00    +0.000 C 
ATOM      2  C   UNL     1       0.472   8.988  19.010  0.00  0.00    +0.000 C 
ATOM      3  N   UNL     1       1.546   8.306  19.781  0.00  0.00    +0.000 N 
ATOM      4  C   UNL     1       1.290   8.235  21.250  0.00  0.00    +0.000 C 
ATOM      5  C   UNL     1       0.559   9.440  21.779  0.00  0.00    +0.000 A 
ATOM      6  N   UNL     1       0.378   9.752  23.089  0.00  0.00    +0.000 NA
ATOM      7  N   UNL     1      -0.227  10.935  23.145  0.00  0.00    +0.000 NA
ATOM      8  N   UNL     1      -0.472  11.359  21.880  0.00  0.00    +0.000 N 
ATOM      9  C   UNL     1       0.038  10.447  20.984  0.00  0.00    +0.000 A 
ENDROOT
BRANCH   3  10
ATOM     10  C   UNL     1       2.448   7.470  19.130  0.00  0.00    +0.000 A 
ATOM     11  C   UNL     1       3.085   7.884  17.942  0.00  0.00    +0.000 A 
ATOM     12  C   UNL     1       4.032   7.105  17.266  0.00  0.00    +0.000 A 
ATOM     13  C   UNL     1       4.360   5.854  17.757  0.00  0.00    +0.000 A 
ATOM     14  C   UNL     1       3.771   5.409  18.934  0.00  0.00    +0.000 A 
ATOM     15  C   UNL     1       2.841   6.217  19.618  0.00  0.00    +0.000 A 
ENDBRANCH   3  10
BRANCH   1  16
ATOM     16  C   UNL     1      -1.160  10.796  18.797  0.00  0.00    +0.000 C 
ATOM     17  O   UNL     1      -2.089  11.381  19.331  0.00  0.00    +0.000 OA
BRANCH  16  18
ATOM     18  O   UNL     1      -1.230  10.246  17.546  0.00  0.00    +0.000 OA
BRANCH  18  20
ATOM     19  C   UNL     1      -2.792  10.890  15.778  0.00  0.00    +0.000 C 
ATOM     20  C   UNL     1      -2.553  10.045  17.013  0.00  0.00    +0.000 C 
ENDBRANCH  18  20
ENDBRANCH  16  18
ENDBRANCH   1  16
BRANCH   1  21
ATOM     21  C   UNL     1       1.295  11.476  19.022  0.00  0.00    +0.000 C 
BRANCH  21  22
ATOM     22  C   UNL     1       1.085  12.964  19.277  0.00  0.00    +0.000 A 
ATOM     23  C   UNL     1       0.162  13.723  18.549  0.00  0.00    +0.000 A 
ATOM     24  C   UNL     1       0.028  15.106  18.764  0.00  0.00    +0.000 A 
ATOM     25  C   UNL     1       0.800  15.744  19.732  0.00  0.00    +0.000 A 
ATOM     26  C   UNL     1       1.686  14.996  20.496  0.00  0.00    +0.000 A 
ATOM     27  C   UNL     1       1.818  13.621  20.274  0.00  0.00    +0.000 A 
ENDBRANCH  21  22
ENDBRANCH   1  21
BRANCH   8  28
ATOM     28  C   UNL     1      -0.983  12.715  21.671  0.00  0.00    +0.000 C 
BRANCH  28  29
ATOM     29  C   UNL     1      -1.801  13.311  22.801  0.00  0.00    +0.000 A 
ATOM     30  C   UNL     1      -1.355  14.399  23.567  0.00  0.00    +0.000 A 
ATOM     31  C   UNL     1      -2.088  14.867  24.659  0.00  0.00    +0.000 A 
ATOM     32  C   UNL     1      -3.282  14.251  25.026  0.00  0.00    +0.000 A 
ATOM     33  C   UNL     1      -3.737  13.173  24.279  0.00  0.00    +0.000 A 
ATOM     34 CL   UNL     1      -5.206  12.386  24.732  0.00  0.00    +0.000 Cl
ATOM     35  C   UNL     1      -3.009  12.708  23.176  0.00  0.00    +0.000 A 
ENDBRANCH  28  29
ENDBRANCH   8  28
TORSDOF 8
ENDMDL
MODEL 8
REMARK VINA RESULT:      -7.3      4.244      8.065
REMARK  Name = 
REMARK  9 active torsions:
REMARK  status: ('A' for Active; 'I' for Inactive)
REMARK    1  A    between atoms: C_1  and  C_2
REMARK    2  A    between atoms: C_2  and  O_3
REMARK    3  A    between atoms: O_3  and  C_4
REMARK    4  A    between atoms: C_4  and  C_6
REMARK    5  A    between atoms: C_6  and  C_7
REMARK    6  A    between atoms: C_7  and  C_8
REMARK    7  A    between atoms: N_15  and  C_16
REMARK    8  A    between atoms: N_26  and  C_27
REMARK    9  A    between atoms: C_27  and  C_28
REMARK                            x       y       z     vdW  Elec       q    Type
REMARK                         _______ _______ _______ _____ _____    ______ ____
ROOT
ATOM      1  C   UNL     1      -2.593  13.042  21.384  0.00  0.00    +0.000 C 
ATOM      2  C   UNL     1      -2.838  13.080  19.824  0.00  0.00    +0.000 C 
ATOM      3  N   UNL     1      -3.747  12.012  19.330  0.00  0.00    +0.000 N 
ATOM      4  C   UNL     1      -5.100  12.023  19.960  0.00  0.00    +0.000 C 
ATOM      5  C   UNL     1      -5.073  12.454  21.402  0.00  0.00    +0.000 A 
ATOM      6  N   UNL     1      -6.105  12.359  22.282  0.00  0.00    +0.000 NA
ATOM      7  N   UNL     1      -5.660  12.753  23.472  0.00  0.00    +0.000 NA
ATOM      8  N   UNL     1      -4.366  13.139  23.348  0.00  0.00    +0.000 N 
ATOM      9  C   UNL     1      -3.951  12.938  22.050  0.00  0.00    +0.000 A 
ENDROOT
BRANCH   3  10
ATOM     10  C   UNL     1      -3.481  11.376  18.121  0.00  0.00    +0.000 A 
ATOM     11  C   UNL     1      -4.300  11.596  16.995  0.00  0.00    +0.000 A 
ATOM     12  C   UNL     1      -4.058  11.018  15.743  0.00  0.00    +0.000 A 
ATOM     13  C   UNL     1      -2.980  10.167  15.583  0.00  0.00    +0.000 A 
ATOM     14  C   UNL     1      -2.134   9.931  16.659  0.00  0.00    +0.000 A 
ATOM     15  C   UNL     1      -2.374  10.544  17.905  0.00  0.00    +0.000 A 
ENDBRANCH   3  10
BRANCH   1  16
ATOM     16  C   UNL     1      -1.951  14.420  21.668  0.00  0.00    +0.000 C 
ATOM     17  O   UNL     1      -2.302  15.474  21.162  0.00  0.00    +0.000 OA
BRANCH  16  18
ATOM     18  O   UNL     1      -0.858  14.298  22.482  0.00  0.00    +0.000 OA
BRANCH  18  20
ATOM     19  C   UNL     1       1.437  14.969  21.973  0.00  0.00    +0.000 C 
ATOM     20  C   UNL     1       0.071  15.398  22.470  0.00  0.00    +0.000 C 
ENDBRANCH  18  20
ENDBRANCH  16  18
ENDBRANCH   1  16
BRANCH   1  21
ATOM     21  C   UNL     1      -1.642  11.887  21.827  0.00  0.00    +0.000 C 
BRANCH  21  22
ATOM     22  C   UNL     1      -0.630  11.339  20.826  0.00  0.00    +0.000 A 
ATOM     23  C   UNL     1      -0.345   9.974  20.725  0.00  0.00    +0.000 A 
ATOM     24  C   UNL     1       0.635   9.500  19.833  0.00  0.00    +0.000 A 
ATOM     25  C   UNL     1       1.322  10.389  19.010  0.00  0.00    +0.000 A 
ATOM     26  C   UNL     1       1.015  11.741  19.063  0.00  0.00    +0.000 A 
ATOM     27  C   UNL     1       0.044  12.207  19.956  0.00  0.00    +0.000 A 
ENDBRANCH  21  22
ENDBRANCH   1  21
BRANCH   8  28
ATOM     28  C   UNL     1      -3.601  13.459  24.553  0.00  0.00    +0.000 C 
BRANCH  28  29
ATOM     29  C   UNL     1      -3.420  14.931  24.870  0.00  0.00    +0.000 A 
ATOM     30  C   UNL     1      -4.320  15.916  24.435  0.00  0.00    +0.000 A 
ATOM     31  C   UNL     1      -4.078  17.272  24.663  0.00  0.00    +0.000 A 
ATOM     32  C   UNL     1      -2.921  17.684  25.322  0.00  0.00    +0.000 A 
ATOM     33  C   UNL     1      -2.021  16.722  25.759  0.00  0.00    +0.000 A 
ATOM     34 CL   UNL     1      -0.574  17.217  26.561  0.00  0.00    +0.000 Cl
ATOM     35  C   UNL     1      -2.266  15.360  25.541  0.00  0.00    +0.000 A 
ENDBRANCH  28  29
ENDBRANCH   8  28
TORSDOF 8
ENDMDL
MODEL 9
REMARK VINA RESULT:      -7.3      3.085      7.767
REMARK  Name = 
REMARK  9 active torsions:
REMARK  status: ('A' for Active; 'I' for Inactive)
REMARK    1  A    between atoms: C_1  and  C_2
REMARK    2  A    between atoms: C_2  and  O_3
REMARK    3  A    between atoms: O_3  and  C_4
REMARK    4  A    between atoms: C_4  and  C_6
REMARK    5  A    between atoms: C_6  and  C_7
REMARK    6  A    between atoms: C_7  and  C_8
REMARK    7  A    between atoms: N_15  and  C_16
REMARK    8  A    between atoms: N_26  and  C_27
REMARK    9  A    between atoms: C_27  and  C_28
REMARK                            x       y       z     vdW  Elec       q    Type
REMARK                         _______ _______ _______ _____ _____    ______ ____
ROOT
ATOM      1  C   UNL     1       0.289  10.450  19.504  0.00  0.00    +0.000 C 
ATOM      2  C   UNL     1       0.563   8.987  18.976  0.00  0.00    +0.000 C 
ATOM      3  N   UNL     1       1.633   8.268  19.717  0.00  0.00    +0.000 N 
ATOM      4  C   UNL     1       1.376   8.135  21.182  0.00  0.00    +0.000 C 
ATOM      5  C   UNL     1       0.651   9.320  21.761  0.00  0.00    +0.000 A 
ATOM      6  N   UNL     1       0.470   9.576  23.084  0.00  0.00    +0.000 NA
ATOM      7  N   UNL     1      -0.130  10.759  23.190  0.00  0.00    +0.000 NA
ATOM      8  N   UNL     1      -0.372  11.238  21.945  0.00  0.00    +0.000 N 
ATOM      9  C   UNL     1       0.135  10.362  21.011  0.00  0.00    +0.000 A 
ENDROOT
BRANCH   3  10
ATOM     10  C   UNL     1       2.532   7.457  19.031  0.00  0.00    +0.000 A 
ATOM     11  C   UNL     1       2.759   6.127  19.439  0.00  0.00    +0.000 A 
ATOM     12  C   UNL     1       3.619   5.252  18.764  0.00  0.00    +0.000 A 
ATOM     13  C   UNL     1       4.308   5.698  17.651  0.00  0.00    +0.000 A 
ATOM     14  C   UNL     1       4.105   6.997  17.201  0.00  0.00    +0.000 A 
ATOM     15  C   UNL     1       3.214   7.856  17.874  0.00  0.00    +0.000 A 
ENDBRANCH   3  10
BRANCH   1  16
ATOM     16  C   UNL     1      -1.060  10.811  18.840  0.00  0.00    +0.000 C 
ATOM     17  O   UNL     1      -1.995  11.356  19.405  0.00  0.00    +0.000 OA
BRANCH  16  18
ATOM     18  O   UNL     1      -1.121  10.340  17.557  0.00  0.00    +0.000 OA
BRANCH  18  20
ATOM     19  C   UNL     1      -2.686  10.481  15.683  0.00  0.00    +0.000 C 
ATOM     20  C   UNL     1      -2.425   9.956  17.081  0.00  0.00    +0.000 C 
ENDBRANCH  18  20
ENDBRANCH  16  18
ENDBRANCH   1  16
BRANCH   1  21
ATOM     21  C   UNL     1       1.398  11.469  19.095  0.00  0.00    +0.000 C 
BRANCH  21  22
ATOM     22  C   UNL     1       1.158  12.955  19.337  0.00  0.00    +0.000 A 
ATOM     23  C   UNL     1       1.860  13.676  20.308  0.00  0.00    +0.000 A 
ATOM     24  C   UNL     1       1.579  15.033  20.551  0.00  0.00    +0.000 A 
ATOM     25  C   UNL     1       0.608  15.693  19.801  0.00  0.00    +0.000 A 
ATOM     26  C   UNL     1      -0.063  15.004  18.801  0.00  0.00    +0.000 A 
ATOM     27  C   UNL     1       0.217  13.653  18.568  0.00  0.00    +0.000 A 
ENDBRANCH  21  22
ENDBRANCH   1  21
BRANCH   8  28
ATOM     28  C   UNL     1      -0.876  12.604  21.794  0.00  0.00    +0.000 C 
BRANCH  28  29
ATOM     29  C   UNL     1      -1.746  13.132  22.919  0.00  0.00    +0.000 A 
ATOM     30  C   UNL     1      -3.043  12.654  23.163  0.00  0.00    +0.000 A 
ATOM     31  C   UNL     1      -3.853  13.224  24.146  0.00  0.00    +0.000 A 
ATOM     32  C   UNL     1      -3.395  14.299  24.906  0.00  0.00    +0.000 A 
ATOM     33  C   UNL     1      -2.115  14.783  24.676  0.00  0.00    +0.000 A 
ATOM     34 CL   UNL     1      -1.539  16.127  25.596  0.00  0.00    +0.000 Cl
ATOM     35  C   UNL     1      -1.295  14.207  23.698  0.00  0.00    +0.000 A 
ENDBRANCH  28  29
ENDBRANCH   8  28
TORSDOF 8
ENDMDL
