MODEL 1
REMARK VINA RESULT:      -6.5      0.000      0.000
REMARK  Name = 
REMARK  11 active torsions:
REMARK  status: ('A' for Active; 'I' for Inactive)
REMARK    1  A    between atoms: C_1  and  C_2
REMARK    2  A    between atoms: C_2  and  C_3
REMARK    3  A    between atoms: C_9  and  C_10
REMARK    4  A    between atoms: C_14  and  C_15
REMARK    5  A    between atoms: C_15  and  C_16
REMARK    6  A    between atoms: C_15  and  C_17
REMARK    7  A    between atoms: C_17  and  C_18
REMARK    8  A    between atoms: C_18  and  C_19
REMARK    9  A    between atoms: C_19  and  O_21
REMARK   10  A    between atoms: C_22  and  C_23
REMARK   11  A    between atoms: C_26  and  O_27
REMARK                            x       y       z     vdW  Elec       q    Type
REMARK                         _______ _______ _______ _____ _____    ______ ____
ROOT
ATOM      1  C   UNL     1      -5.463  13.610  20.882  0.00  0.00    +0.000 C 
ATOM      2  C   UNL     1      -4.015  13.162  21.022  0.00  0.00    +0.000 C 
ATOM      3  C   UNL     1      -3.397  12.631  19.736  0.00  0.00    +0.000 C 
ATOM      4  C   UNL     1      -4.254  11.475  19.141  0.00  0.00    +0.000 C 
ATOM      5  C   UNL     1      -3.534  10.800  17.945  0.00  0.00    +0.000 C 
ATOM      6  C   UNL     1      -2.100  10.365  18.289  0.00  0.00    +0.000 C 
ATOM      7  C   UNL     1      -1.262  11.516  18.876  0.00  0.00    +0.000 C 
ATOM      8  C   UNL     1      -0.989  12.542  17.745  0.00  0.00    +0.000 C 
ATOM      9  C   UNL     1      -2.013  12.105  20.067  0.00  0.00    +0.000 C 
ATOM     10  C   UNL     1      -1.031  13.016  20.784  0.00  0.00    +0.000 C 
ATOM     11  C   UNL     1       0.339  12.405  20.495  0.00  0.00    +0.000 C 
ATOM     12  C   UNL     1       0.102  11.184  19.556  0.00  0.00    +0.000 C 
ATOM     13  C   UNL     1      -5.720  11.944  18.851  0.00  0.00    +0.000 C 
ATOM     14  C   UNL     1      -5.723  13.018  17.734  0.00  0.00    +0.000 C 
ATOM     15  C   UNL     1      -6.614  10.780  18.316  0.00  0.00    +0.000 C 
ATOM     16  C   UNL     1      -6.963   9.711  19.344  0.00  0.00    +0.000 C 
ATOM     17  C   UNL     1      -7.640  10.341  20.546  0.00  0.00    +0.000 C 
ATOM     18  C   UNL     1      -6.762  11.417  21.160  0.00  0.00    +0.000 C 
ATOM     19  C   UNL     1      -6.354  12.532  20.176  0.00  0.00    +0.000 C 
ENDROOT
BRANCH   1  21
ATOM     20  C   UNL     1      -5.759  15.546  22.632  0.00  0.00    +0.000 C 
ATOM     21  C   UNL     1      -5.990  14.071  22.268  0.00  0.00    +0.000 C 
ENDBRANCH   1  21
BRANCH  12  22
ATOM     22  C   UNL     1       0.189   9.784  20.253  0.00  0.00    +0.000 C 
ATOM     23  C   UNL     1       0.406   9.802  21.770  0.00  0.00    +0.000 C 
BRANCH  22  24
ATOM     24  C   UNL     1       1.265   8.916  19.574  0.00  0.00    +0.000 C 
BRANCH  24  25
ATOM     25  C   UNL     1       1.672   7.699  20.412  0.00  0.00    +0.000 C 
BRANCH  25  26
ATOM     26  C   UNL     1       2.560   6.771  19.614  0.00  0.00    +0.000 C 
ATOM     27  O   UNL     1       3.026   7.003  18.531  0.00  0.00    +0.000 OA
BRANCH  26  28
ATOM     28  O   UNL     1       2.780   5.600  20.274  0.00  0.00    +0.000 OA
ATOM     29  H   UNL     1       2.876   4.825  19.691  0.00  0.00    +0.000 HD
ENDBRANCH  26  28
ENDBRANCH  25  26
ENDBRANCH  24  25
ENDBRANCH  22  24
ENDBRANCH  12  22
BRANCH  17  30
ATOM     30  O   UNL     1      -7.916   9.345  21.525  0.00  0.00    +0.000 OA
ATOM     31  H   UNL     1      -8.881   9.233  21.576  0.00  0.00    +0.000 HD
ENDBRANCH  17  30
TORSDOF 7
ENDMDL
MODEL 2
REMARK VINA RESULT:      -6.2      4.761      7.225
REMARK  Name = 
REMARK  11 active torsions:
REMARK  status: ('A' for Active; 'I' for Inactive)
REMARK    1  A    between atoms: C_1  and  C_2
REMARK    2  A    between atoms: C_2  and  C_3
REMARK    3  A    between atoms: C_9  and  C_10
REMARK    4  A    between atoms: C_14  and  C_15
REMARK    5  A    between atoms: C_15  and  C_16
REMARK    6  A    between atoms: C_15  and  C_17
REMARK    7  A    between atoms: C_17  and  C_18
REMARK    8  A    between atoms: C_18  and  C_19
REMARK    9  A    between atoms: C_19  and  O_21
REMARK   10  A    between atoms: C_22  and  C_23
REMARK   11  A    between atoms: C_26  and  O_27
REMARK                            x       y       z     vdW  Elec       q    Type
REMARK                         _______ _______ _______ _____ _____    ______ ____
ROOT
ATOM      1  C   UNL     1      -0.365   9.845  21.047  0.00  0.00    +0.000 C 
ATOM      2  C   UNL     1       0.414  11.117  21.351  0.00  0.00    +0.000 C 
ATOM      3  C   UNL     1       0.750  11.954  20.124  0.00  0.00    +0.000 C 
ATOM      4  C   UNL     1       1.512  11.107  19.063  0.00  0.00    +0.000 C 
ATOM      5  C   UNL     1       2.029  11.994  17.900  0.00  0.00    +0.000 C 
ATOM      6  C   UNL     1       2.840  13.202  18.397  0.00  0.00    +0.000 C 
ATOM      7  C   UNL     1       2.076  14.032  19.445  0.00  0.00    +0.000 C 
ATOM      8  C   UNL     1       0.900  14.748  18.731  0.00  0.00    +0.000 C 
ATOM      9  C   UNL     1       1.633  13.103  20.571  0.00  0.00    +0.000 C 
ATOM     10  C   UNL     1       1.160  13.999  21.704  0.00  0.00    +0.000 C 
ATOM     11  C   UNL     1       1.974  15.282  21.543  0.00  0.00    +0.000 C 
ATOM     12  C   UNL     1       2.854  15.104  20.270  0.00  0.00    +0.000 C 
ATOM     13  C   UNL     1       0.674   9.859  18.621  0.00  0.00    +0.000 C 
ATOM     14  C   UNL     1      -0.606  10.316  17.877  0.00  0.00    +0.000 C 
ATOM     15  C   UNL     1       1.450   8.960  17.607  0.00  0.00    +0.000 C 
ATOM     16  C   UNL     1       2.626   8.191  18.195  0.00  0.00    +0.000 C 
ATOM     17  C   UNL     1       2.164   7.336  19.359  0.00  0.00    +0.000 C 
ATOM     18  C   UNL     1       1.487   8.186  20.420  0.00  0.00    +0.000 C 
ATOM     19  C   UNL     1       0.290   9.006  19.897  0.00  0.00    +0.000 C 
ENDROOT
BRANCH   1  21
ATOM     20  C   UNL     1       0.189   9.549  23.598  0.00  0.00    +0.000 C 
ATOM     21  C   UNL     1      -0.591   9.059  22.367  0.00  0.00    +0.000 C 
ENDBRANCH   1  21
BRANCH  12  22
ATOM     22  C   UNL     1       4.362  14.783  20.545  0.00  0.00    +0.000 C 
ATOM     23  C   UNL     1       4.758  14.631  22.018  0.00  0.00    +0.000 C 
BRANCH  22  24
ATOM     24  C   UNL     1       5.264  15.827  19.859  0.00  0.00    +0.000 C 
BRANCH  24  25
ATOM     25  C   UNL     1       5.707  15.407  18.454  0.00  0.00    +0.000 C 
BRANCH  25  26
ATOM     26  C   UNL     1       7.076  14.765  18.493  0.00  0.00    +0.000 C 
ATOM     27  O   UNL     1       7.756  14.618  19.473  0.00  0.00    +0.000 OA
BRANCH  26  28
ATOM     28  O   UNL     1       7.475  14.363  17.254  0.00  0.00    +0.000 OA
ATOM     29  H   UNL     1       8.237  13.754  17.257  0.00  0.00    +0.000 HD
ENDBRANCH  26  28
ENDBRANCH  25  26
ENDBRANCH  24  25
ENDBRANCH  22  24
ENDBRANCH  12  22
BRANCH  17  30
ATOM     30  O   UNL     1       3.276   6.661  19.938  0.00  0.00    +0.000 OA
ATOM     31  H   UNL     1       3.162   5.708  19.785  0.00  0.00    +0.000 HD
ENDBRANCH  17  30
TORSDOF 7
ENDMDL
MODEL 3
REMARK VINA RESULT:      -6.1      4.475      6.774
REMARK  Name = 
REMARK  11 active torsions:
REMARK  status: ('A' for Active; 'I' for Inactive)
REMARK    1  A    between atoms: C_1  and  C_2
REMARK    2  A    between atoms: C_2  and  C_3
REMARK    3  A    between atoms: C_9  and  C_10
REMARK    4  A    between atoms: C_14  and  C_15
REMARK    5  A    between atoms: C_15  and  C_16
REMARK    6  A    between atoms: C_15  and  C_17
REMARK    7  A    between atoms: C_17  and  C_18
REMARK    8  A    between atoms: C_18  and  C_19
REMARK    9  A    between atoms: C_19  and  O_21
REMARK   10  A    between atoms: C_22  and  C_23
REMARK   11  A    between atoms: C_26  and  O_27
REMARK                            x       y       z     vdW  Elec       q    Type
REMARK                         _______ _______ _______ _____ _____    ______ ____
ROOT
ATOM      1  C   UNL     1      -0.779  12.847  21.569  0.00  0.00    +0.000 C 
ATOM      2  C   UNL     1       0.469  13.718  21.592  0.00  0.00    +0.000 C 
ATOM      3  C   UNL     1       1.063  13.997  20.218  0.00  0.00    +0.000 C 
ATOM      4  C   UNL     1       1.357  12.671  19.458  0.00  0.00    +0.000 C 
ATOM      5  C   UNL     1       2.139  12.936  18.145  0.00  0.00    +0.000 C 
ATOM      6  C   UNL     1       3.399  13.787  18.373  0.00  0.00    +0.000 C 
ATOM      7  C   UNL     1       3.096  15.097  19.124  0.00  0.00    +0.000 C 
ATOM      8  C   UNL     1       2.289  16.022  18.177  0.00  0.00    +0.000 C 
ATOM      9  C   UNL     1       2.362  14.755  20.417  0.00  0.00    +0.000 C 
ATOM     10  C   UNL     1       2.354  16.024  21.253  0.00  0.00    +0.000 C 
ATOM     11  C   UNL     1       3.617  16.771  20.827  0.00  0.00    +0.000 C 
ATOM     12  C   UNL     1       4.285  15.926  19.701  0.00  0.00    +0.000 C 
ATOM     13  C   UNL     1       0.059  11.810  19.292  0.00  0.00    +0.000 C 
ATOM     14  C   UNL     1      -0.952  12.544  18.374  0.00  0.00    +0.000 C 
ATOM     15  C   UNL     1       0.345  10.444  18.591  0.00  0.00    +0.000 C 
ATOM     16  C   UNL     1       1.125   9.440  19.430  0.00  0.00    +0.000 C 
ATOM     17  C   UNL     1       0.405   9.181  20.740  0.00  0.00    +0.000 C 
ATOM     18  C   UNL     1       0.190  10.474  21.504  0.00  0.00    +0.000 C 
ATOM     19  C   UNL     1      -0.584  11.549  20.714  0.00  0.00    +0.000 C 
ENDROOT
BRANCH   1  21
ATOM     20  C   UNL     1      -2.703  12.131  23.208  0.00  0.00    +0.000 C 
ATOM     21  C   UNL     1      -1.248  12.592  23.027  0.00  0.00    +0.000 C 
ENDBRANCH   1  21
BRANCH  12  22
ATOM     22  C   UNL     1       5.537  15.097  20.146  0.00  0.00    +0.000 C 
ATOM     23  C   UNL     1       5.865  15.130  21.643  0.00  0.00    +0.000 C 
BRANCH  22  24
ATOM     24  C   UNL     1       6.771  15.511  19.323  0.00  0.00    +0.000 C 
BRANCH  24  25
ATOM     25  C   UNL     1       6.812  14.865  17.935  0.00  0.00    +0.000 C 
BRANCH  25  26
ATOM     26  C   UNL     1       7.975  13.904  17.824  0.00  0.00    +0.000 C 
ATOM     27  O   UNL     1       9.001  13.968  18.446  0.00  0.00    +0.000 OA
BRANCH  26  28
ATOM     28  O   UNL     1       7.730  12.927  16.906  0.00  0.00    +0.000 OA
ATOM     29  H   UNL     1       6.795  12.655  16.852  0.00  0.00    +0.000 HD
ENDBRANCH  26  28
ENDBRANCH  25  26
ENDBRANCH  24  25
ENDBRANCH  22  24
ENDBRANCH  12  22
BRANCH  17  30
ATOM     30  O   UNL     1       1.165   8.282  21.541  0.00  0.00    +0.000 OA
ATOM     31  H   UNL     1       0.762   8.255  22.426  0.00  0.00    +0.000 HD
ENDBRANCH  17  30
TORSDOF 7
ENDMDL
MODEL 4
REMARK VINA RESULT:      -6.0      4.341      6.290
REMARK  Name = 
REMARK  11 active torsions:
REMARK  status: ('A' for Active; 'I' for Inactive)
REMARK    1  A    between atoms: C_1  and  C_2
REMARK    2  A    between atoms: C_2  and  C_3
REMARK    3  A    between atoms: C_9  and  C_10
REMARK    4  A    between atoms: C_14  and  C_15
REMARK    5  A    between atoms: C_15  and  C_16
REMARK    6  A    between atoms: C_15  and  C_17
REMARK    7  A    between atoms: C_17  and  C_18
REMARK    8  A    between atoms: C_18  and  C_19
REMARK    9  A    between atoms: C_19  and  O_21
REMARK   10  A    between atoms: C_22  and  C_23
REMARK   11  A    between atoms: C_26  and  O_27
REMARK                            x       y       z     vdW  Elec       q    Type
REMARK                         _______ _______ _______ _____ _____    ______ ____
ROOT
ATOM      1  C   UNL     1      -4.641  11.111  17.817  0.00  0.00    +0.000 C 
ATOM      2  C   UNL     1      -3.538  11.795  18.613  0.00  0.00    +0.000 C 
ATOM      3  C   UNL     1      -3.937  12.181  20.030  0.00  0.00    +0.000 C 
ATOM      4  C   UNL     1      -5.216  13.069  20.027  0.00  0.00    +0.000 C 
ATOM      5  C   UNL     1      -5.517  13.628  21.442  0.00  0.00    +0.000 C 
ATOM      6  C   UNL     1      -4.302  14.332  22.068  0.00  0.00    +0.000 C 
ATOM      7  C   UNL     1      -3.043  13.444  22.066  0.00  0.00    +0.000 C 
ATOM      8  C   UNL     1      -3.263  12.292  23.080  0.00  0.00    +0.000 C 
ATOM      9  C   UNL     1      -2.790  12.964  20.640  0.00  0.00    +0.000 C 
ATOM     10  C   UNL     1      -1.397  12.355  20.635  0.00  0.00    +0.000 C 
ATOM     11  C   UNL     1      -0.645  13.110  21.730  0.00  0.00    +0.000 C 
ATOM     12  C   UNL     1      -1.661  14.096  22.380  0.00  0.00    +0.000 C 
ATOM     13  C   UNL     1      -6.416  12.336  19.337  0.00  0.00    +0.000 C 
ATOM     14  C   UNL     1      -6.831  11.096  20.169  0.00  0.00    +0.000 C 
ATOM     15  C   UNL     1      -7.691  13.236  19.263  0.00  0.00    +0.000 C 
ATOM     16  C   UNL     1      -7.602  14.401  18.287  0.00  0.00    +0.000 C 
ATOM     17  C   UNL     1      -7.275  13.895  16.895  0.00  0.00    +0.000 C 
ATOM     18  C   UNL     1      -5.986  13.092  16.900  0.00  0.00    +0.000 C 
ATOM     19  C   UNL     1      -5.994  11.898  17.876  0.00  0.00    +0.000 C 
ENDROOT
BRANCH   1  21
ATOM     20  C   UNL     1      -2.751  10.149  16.266  0.00  0.00    +0.000 C 
ATOM     21  C   UNL     1      -4.127  10.824  16.380  0.00  0.00    +0.000 C 
ENDBRANCH   1  21
BRANCH  12  22
ATOM     22  C   UNL     1      -1.504  15.593  21.946  0.00  0.00    +0.000 C 
ATOM     23  C   UNL     1      -0.393  15.885  20.932  0.00  0.00    +0.000 C 
BRANCH  22  24
ATOM     24  C   UNL     1      -1.341  16.494  23.185  0.00  0.00    +0.000 C 
BRANCH  24  25
ATOM     25  C   UNL     1      -0.835  15.736  24.416  0.00  0.00    +0.000 C 
BRANCH  25  26
ATOM     26  C   UNL     1      -1.889  15.709  25.501  0.00  0.00    +0.000 C 
ATOM     27  O   UNL     1      -3.078  15.682  25.325  0.00  0.00    +0.000 OA
BRANCH  26  28
ATOM     28  O   UNL     1      -1.329  15.726  26.742  0.00  0.00    +0.000 OA
ATOM     29  H   UNL     1      -1.867  15.290  27.429  0.00  0.00    +0.000 HD
ENDBRANCH  26  28
ENDBRANCH  25  26
ENDBRANCH  24  25
ENDBRANCH  22  24
ENDBRANCH  12  22
BRANCH  17  30
ATOM     30  O   UNL     1      -7.141  14.993  15.998  0.00  0.00    +0.000 OA
ATOM     31  H   UNL     1      -6.231  14.989  15.653  0.00  0.00    +0.000 HD
ENDBRANCH  17  30
TORSDOF 7
ENDMDL
MODEL 5
REMARK VINA RESULT:      -6.0      2.034      7.427
REMARK  Name = 
REMARK  11 active torsions:
REMARK  status: ('A' for Active; 'I' for Inactive)
REMARK    1  A    between atoms: C_1  and  C_2
REMARK    2  A    between atoms: C_2  and  C_3
REMARK    3  A    between atoms: C_9  and  C_10
REMARK    4  A    between atoms: C_14  and  C_15
REMARK    5  A    between atoms: C_15  and  C_16
REMARK    6  A    between atoms: C_15  and  C_17
REMARK    7  A    between atoms: C_17  and  C_18
REMARK    8  A    between atoms: C_18  and  C_19
REMARK    9  A    between atoms: C_19  and  O_21
REMARK   10  A    between atoms: C_22  and  C_23
REMARK   11  A    between atoms: C_26  and  O_27
REMARK                            x       y       z     vdW  Elec       q    Type
REMARK                         _______ _______ _______ _____ _____    ______ ____
ROOT
ATOM      1  C   UNL     1      -1.576  11.073  18.020  0.00  0.00    +0.000 C 
ATOM      2  C   UNL     1      -3.022  11.384  18.379  0.00  0.00    +0.000 C 
ATOM      3  C   UNL     1      -3.192  12.551  19.340  0.00  0.00    +0.000 C 
ATOM      4  C   UNL     1      -2.360  12.331  20.638  0.00  0.00    +0.000 C 
ATOM      5  C   UNL     1      -2.677  13.415  21.701  0.00  0.00    +0.000 C 
ATOM      6  C   UNL     1      -4.185  13.549  21.972  0.00  0.00    +0.000 C 
ATOM      7  C   UNL     1      -4.997  13.768  20.683  0.00  0.00    +0.000 C 
ATOM      8  C   UNL     1      -4.673  15.184  20.141  0.00  0.00    +0.000 C 
ATOM      9  C   UNL     1      -4.662  12.647  19.703  0.00  0.00    +0.000 C 
ATOM     10  C   UNL     1      -5.691  12.732  18.588  0.00  0.00    +0.000 C 
ATOM     11  C   UNL     1      -6.931  13.324  19.256  0.00  0.00    +0.000 C 
ATOM     12  C   UNL     1      -6.549  13.623  20.736  0.00  0.00    +0.000 C 
ATOM     13  C   UNL     1      -0.838  12.148  20.314  0.00  0.00    +0.000 C 
ATOM     14  C   UNL     1      -0.259  13.458  19.723  0.00  0.00    +0.000 C 
ATOM     15  C   UNL     1       0.005  11.858  21.597  0.00  0.00    +0.000 C 
ATOM     16  C   UNL     1      -0.217  10.485  22.218  0.00  0.00    +0.000 C 
ATOM     17  C   UNL     1       0.052   9.398  21.194  0.00  0.00    +0.000 C 
ATOM     18  C   UNL     1      -0.819   9.584  19.965  0.00  0.00    +0.000 C 
ATOM     19  C   UNL     1      -0.660  10.959  19.285  0.00  0.00    +0.000 C 
ENDROOT
BRANCH   1  21
ATOM     20  C   UNL     1      -2.705   9.686  16.096  0.00  0.00    +0.000 C 
ATOM     21  C   UNL     1      -1.539   9.833  17.086  0.00  0.00    +0.000 C 
ENDBRANCH   1  21
BRANCH  12  22
ATOM     22  C   UNL     1      -7.098  12.596  21.784  0.00  0.00    +0.000 C 
ATOM     23  C   UNL     1      -7.915  11.430  21.217  0.00  0.00    +0.000 C 
BRANCH  22  24
ATOM     24  C   UNL     1      -7.902  13.325  22.877  0.00  0.00    +0.000 C 
BRANCH  24  25
ATOM     25  C   UNL     1      -7.178  13.373  24.226  0.00  0.00    +0.000 C 
BRANCH  25  26
ATOM     26  C   UNL     1      -6.566  12.029  24.554  0.00  0.00    +0.000 C 
ATOM     27  O   UNL     1      -7.141  10.973  24.540  0.00  0.00    +0.000 OA
BRANCH  26  28
ATOM     28  O   UNL     1      -5.251  12.147  24.886  0.00  0.00    +0.000 OA
ATOM     29  H   UNL     1      -5.084  12.200  25.846  0.00  0.00    +0.000 HD
ENDBRANCH  26  28
ENDBRANCH  25  26
ENDBRANCH  24  25
ENDBRANCH  22  24
ENDBRANCH  12  22
BRANCH  17  30
ATOM     30  O   UNL     1      -0.208   8.120  21.765  0.00  0.00    +0.000 OA
ATOM     31  H   UNL     1       0.064   8.147  22.699  0.00  0.00    +0.000 HD
ENDBRANCH  17  30
TORSDOF 7
ENDMDL
MODEL 6
REMARK VINA RESULT:      -6.0      1.320      1.893
REMARK  Name = 
REMARK  11 active torsions:
REMARK  status: ('A' for Active; 'I' for Inactive)
REMARK    1  A    between atoms: C_1  and  C_2
REMARK    2  A    between atoms: C_2  and  C_3
REMARK    3  A    between atoms: C_9  and  C_10
REMARK    4  A    between atoms: C_14  and  C_15
REMARK    5  A    between atoms: C_15  and  C_16
REMARK    6  A    between atoms: C_15  and  C_17
REMARK    7  A    between atoms: C_17  and  C_18
REMARK    8  A    between atoms: C_18  and  C_19
REMARK    9  A    between atoms: C_19  and  O_21
REMARK   10  A    between atoms: C_22  and  C_23
REMARK   11  A    between atoms: C_26  and  O_27
REMARK                            x       y       z     vdW  Elec       q    Type
REMARK                         _______ _______ _______ _____ _____    ______ ____
ROOT
ATOM      1  C   UNL     1      -4.565  14.876  22.704  0.00  0.00    +0.000 C 
ATOM      2  C   UNL     1      -3.266  14.107  22.505  0.00  0.00    +0.000 C 
ATOM      3  C   UNL     1      -3.035  13.627  21.079  0.00  0.00    +0.000 C 
ATOM      4  C   UNL     1      -4.237  12.776  20.575  0.00  0.00    +0.000 C 
ATOM      5  C   UNL     1      -3.928  12.122  19.203  0.00  0.00    +0.000 C 
ATOM      6  C   UNL     1      -2.603  11.342  19.208  0.00  0.00    +0.000 C 
ATOM      7  C   UNL     1      -1.421  12.194  19.707  0.00  0.00    +0.000 C 
ATOM      8  C   UNL     1      -1.117  13.274  18.637  0.00  0.00    +0.000 C 
ATOM      9  C   UNL     1      -1.782  12.772  21.072  0.00  0.00    +0.000 C 
ATOM     10  C   UNL     1      -0.497  13.343  21.649  0.00  0.00    +0.000 C 
ATOM     11  C   UNL     1       0.611  12.490  21.033  0.00  0.00    +0.000 C 
ATOM     12  C   UNL     1      -0.078  11.485  20.062  0.00  0.00    +0.000 C 
ATOM     13  C   UNL     1      -5.575  13.589  20.634  0.00  0.00    +0.000 C 
ATOM     14  C   UNL     1      -5.520  14.774  19.638  0.00  0.00    +0.000 C 
ATOM     15  C   UNL     1      -6.804  12.730  20.196  0.00  0.00    +0.000 C 
ATOM     16  C   UNL     1      -7.210  11.638  21.177  0.00  0.00    +0.000 C 
ATOM     17  C   UNL     1      -7.488  12.237  22.542  0.00  0.00    +0.000 C 
ATOM     18  C   UNL     1      -6.282  13.004  23.053  0.00  0.00    +0.000 C 
ATOM     19  C   UNL     1      -5.801  14.122  22.106  0.00  0.00    +0.000 C 
ENDROOT
BRANCH   1  21
ATOM     20  C   UNL     1      -3.402  15.371  25.007  0.00  0.00    +0.000 C 
ATOM     21  C   UNL     1      -4.707  15.256  24.203  0.00  0.00    +0.000 C 
ENDBRANCH   1  21
BRANCH  12  22
ATOM     22  C   UNL     1      -0.207  10.021  20.603  0.00  0.00    +0.000 C 
ATOM     23  C   UNL     1      -0.174   9.864  22.127  0.00  0.00    +0.000 C 
BRANCH  22  24
ATOM     24  C   UNL     1       0.857   9.116  19.954  0.00  0.00    +0.000 C 
BRANCH  24  25
ATOM     25  C   UNL     1       1.442   8.085  20.925  0.00  0.00    +0.000 C 
BRANCH  25  26
ATOM     26  C   UNL     1       2.138   6.973  20.172  0.00  0.00    +0.000 C 
ATOM     27  O   UNL     1       2.580   7.049  19.056  0.00  0.00    +0.000 OA
BRANCH  26  28
ATOM     28  O   UNL     1       2.209   5.834  20.915  0.00  0.00    +0.000 OA
ATOM     29  H   UNL     1       2.672   5.098  20.475  0.00  0.00    +0.000 HD
ENDBRANCH  26  28
ENDBRANCH  25  26
ENDBRANCH  24  25
ENDBRANCH  22  24
ENDBRANCH  12  22
BRANCH  17  30
ATOM     30  O   UNL     1      -7.816  11.206  23.468  0.00  0.00    +0.000 OA
ATOM     31  H   UNL     1      -8.767  11.023  23.389  0.00  0.00    +0.000 HD
ENDBRANCH  17  30
TORSDOF 7
ENDMDL
MODEL 7
REMARK VINA RESULT:      -5.9      0.834      1.116
REMARK  Name = 
REMARK  11 active torsions:
REMARK  status: ('A' for Active; 'I' for Inactive)
REMARK    1  A    between atoms: C_1  and  C_2
REMARK    2  A    between atoms: C_2  and  C_3
REMARK    3  A    between atoms: C_9  and  C_10
REMARK    4  A    between atoms: C_14  and  C_15
REMARK    5  A    between atoms: C_15  and  C_16
REMARK    6  A    between atoms: C_15  and  C_17
REMARK    7  A    between atoms: C_17  and  C_18
REMARK    8  A    between atoms: C_18  and  C_19
REMARK    9  A    between atoms: C_19  and  O_21
REMARK   10  A    between atoms: C_22  and  C_23
REMARK   11  A    between atoms: C_26  and  O_27
REMARK                            x       y       z     vdW  Elec       q    Type
REMARK                         _______ _______ _______ _____ _____    ______ ____
ROOT
ATOM      1  C   UNL     1      -5.794  13.348  21.341  0.00  0.00    +0.000 C 
ATOM      2  C   UNL     1      -4.320  12.997  21.484  0.00  0.00    +0.000 C 
ATOM      3  C   UNL     1      -3.622  12.676  20.170  0.00  0.00    +0.000 C 
ATOM      4  C   UNL     1      -4.365  11.541  19.407  0.00  0.00    +0.000 C 
ATOM      5  C   UNL     1      -3.556  11.073  18.168  0.00  0.00    +0.000 C 
ATOM      6  C   UNL     1      -2.104  10.710  18.516  0.00  0.00    +0.000 C 
ATOM      7  C   UNL     1      -1.379  11.840  19.270  0.00  0.00    +0.000 C 
ATOM      8  C   UNL     1      -1.154  13.014  18.282  0.00  0.00    +0.000 C 
ATOM      9  C   UNL     1      -2.211  12.220  20.491  0.00  0.00    +0.000 C 
ATOM     10  C   UNL     1      -1.328  13.108  21.352  0.00  0.00    +0.000 C 
ATOM     11  C   UNL     1       0.095  12.642  21.046  0.00  0.00    +0.000 C 
ATOM     12  C   UNL     1      -0.014  11.532  19.959  0.00  0.00    +0.000 C 
ATOM     13  C   UNL     1      -5.854  11.929  19.117  0.00  0.00    +0.000 C 
ATOM     14  C   UNL     1      -5.909  13.129  18.137  0.00  0.00    +0.000 C 
ATOM     15  C   UNL     1      -6.635  10.775  18.410  0.00  0.00    +0.000 C 
ATOM     16  C   UNL     1      -6.929   9.565  19.287  0.00  0.00    +0.000 C 
ATOM     17  C   UNL     1      -7.691   9.990  20.528  0.00  0.00    +0.000 C 
ATOM     18  C   UNL     1      -6.921  11.045  21.301  0.00  0.00    +0.000 C 
ATOM     19  C   UNL     1      -6.574  12.300  20.476  0.00  0.00    +0.000 C 
ENDROOT
BRANCH   1  21
ATOM     20  C   UNL     1      -5.582  14.487  23.698  0.00  0.00    +0.000 C 
ATOM     21  C   UNL     1      -6.398  13.594  22.750  0.00  0.00    +0.000 C 
ENDBRANCH   1  21
BRANCH  12  22
ATOM     22  C   UNL     1       0.163  10.067  20.486  0.00  0.00    +0.000 C 
ATOM     23  C   UNL     1      -0.040   9.867  21.992  0.00  0.00    +0.000 C 
BRANCH  22  24
ATOM     24  C   UNL     1       1.532   9.507  20.057  0.00  0.00    +0.000 C 
BRANCH  24  25
ATOM     25  C   UNL     1       1.661   9.333  18.540  0.00  0.00    +0.000 C 
BRANCH  25  26
ATOM     26  C   UNL     1       2.409   8.061  18.208  0.00  0.00    +0.000 C 
ATOM     27  O   UNL     1       2.558   7.121  18.942  0.00  0.00    +0.000 OA
BRANCH  26  28
ATOM     28  O   UNL     1       2.920   8.097  16.946  0.00  0.00    +0.000 OA
ATOM     29  H   UNL     1       3.683   7.505  16.807  0.00  0.00    +0.000 HD
ENDBRANCH  26  28
ENDBRANCH  25  26
ENDBRANCH  24  25
ENDBRANCH  22  24
ENDBRANCH  12  22
BRANCH  17  30
ATOM     30  O   UNL     1      -7.917   8.862  21.368  0.00  0.00    +0.000 OA
ATOM     31  H   UNL     1      -7.099   8.337  21.391  0.00  0.00    +0.000 HD
ENDBRANCH  17  30
TORSDOF 7
ENDMDL
MODEL 8
REMARK VINA RESULT:      -5.9      8.612     11.432
REMARK  Name = 
REMARK  11 active torsions:
REMARK  status: ('A' for Active; 'I' for Inactive)
REMARK    1  A    between atoms: C_1  and  C_2
REMARK    2  A    between atoms: C_2  and  C_3
REMARK    3  A    between atoms: C_9  and  C_10
REMARK    4  A    between atoms: C_14  and  C_15
REMARK    5  A    between atoms: C_15  and  C_16
REMARK    6  A    between atoms: C_15  and  C_17
REMARK    7  A    between atoms: C_17  and  C_18
REMARK    8  A    between atoms: C_18  and  C_19
REMARK    9  A    between atoms: C_19  and  O_21
REMARK   10  A    between atoms: C_22  and  C_23
REMARK   11  A    between atoms: C_26  and  O_27
REMARK                            x       y       z     vdW  Elec       q    Type
REMARK                         _______ _______ _______ _____ _____    ______ ____
ROOT
ATOM      1  C   UNL     1       7.135  13.978  23.788  0.00  0.00    +0.000 C 
ATOM      2  C   UNL     1       7.995  13.227  22.781  0.00  0.00    +0.000 C 
ATOM      3  C   UNL     1       8.570  14.100  21.675  0.00  0.00    +0.000 C 
ATOM      4  C   UNL     1       7.442  14.876  20.933  0.00  0.00    +0.000 C 
ATOM      5  C   UNL     1       7.993  15.612  19.684  0.00  0.00    +0.000 C 
ATOM      6  C   UNL     1       8.790  14.682  18.755  0.00  0.00    +0.000 C 
ATOM      7  C   UNL     1       9.903  13.921  19.499  0.00  0.00    +0.000 C 
ATOM      8  C   UNL     1      11.002  14.940  19.899  0.00  0.00    +0.000 C 
ATOM      9  C   UNL     1       9.282  13.194  20.688  0.00  0.00    +0.000 C 
ATOM     10  C   UNL     1      10.342  12.233  21.203  0.00  0.00    +0.000 C 
ATOM     11  C   UNL     1      11.177  11.889  19.971  0.00  0.00    +0.000 C 
ATOM     12  C   UNL     1      10.603  12.723  18.786  0.00  0.00    +0.000 C 
ATOM     13  C   UNL     1       6.622  15.772  21.922  0.00  0.00    +0.000 C 
ATOM     14  C   UNL     1       7.525  16.894  22.494  0.00  0.00    +0.000 C 
ATOM     15  C   UNL     1       5.443  16.507  21.208  0.00  0.00    +0.000 C 
ATOM     16  C   UNL     1       4.291  15.609  20.777  0.00  0.00    +0.000 C 
ATOM     17  C   UNL     1       3.747  14.845  21.969  0.00  0.00    +0.000 C 
ATOM     18  C   UNL     1       4.843  14.036  22.639  0.00  0.00    +0.000 C 
ATOM     19  C   UNL     1       6.054  14.876  23.095  0.00  0.00    +0.000 C 
ENDROOT
BRANCH   1  21
ATOM     20  C   UNL     1       6.945  11.495  24.622  0.00  0.00    +0.000 C 
ATOM     21  C   UNL     1       6.566  12.970  24.823  0.00  0.00    +0.000 C 
ENDBRANCH   1  21
BRANCH  12  22
ATOM     22  C   UNL     1       9.712  11.920  17.779  0.00  0.00    +0.000 C 
ATOM     23  C   UNL     1       8.330  12.514  17.485  0.00  0.00    +0.000 C 
BRANCH  22  24
ATOM     24  C   UNL     1       9.573  10.456  18.239  0.00  0.00    +0.000 C 
BRANCH  24  25
ATOM     25  C   UNL     1       8.140   9.925  18.126  0.00  0.00    +0.000 C 
BRANCH  25  26
ATOM     26  C   UNL     1       8.138   8.426  17.925  0.00  0.00    +0.000 C 
ATOM     27  O   UNL     1       7.718   7.847  16.959  0.00  0.00    +0.000 OA
BRANCH  26  28
ATOM     28  O   UNL     1       8.675   7.777  18.996  0.00  0.00    +0.000 OA
ATOM     29  H   UNL     1       9.622   7.958  19.140  0.00  0.00    +0.000 HD
ENDBRANCH  26  28
ENDBRANCH  25  26
ENDBRANCH  24  25
ENDBRANCH  22  24
ENDBRANCH  12  22
BRANCH  17  30
ATOM     30  O   UNL     1       2.706  13.969  21.550  0.00  0.00    +0.000 OA
ATOM     31  H   UNL     1       2.028  13.953  22.248  0.00  0.00    +0.000 HD
ENDBRANCH  17  30
TORSDOF 7
ENDMDL
MODEL 9
REMARK VINA RESULT:      -5.9      4.523      7.597
REMARK  Name = 
REMARK  11 active torsions:
REMARK  status: ('A' for Active; 'I' for Inactive)
REMARK    1  A    between atoms: C_1  and  C_2
REMARK    2  A    between atoms: C_2  and  C_3
REMARK    3  A    between atoms: C_9  and  C_10
REMARK    4  A    between atoms: C_14  and  C_15
REMARK    5  A    between atoms: C_15  and  C_16
REMARK    6  A    between atoms: C_15  and  C_17
REMARK    7  A    between atoms: C_17  and  C_18
REMARK    8  A    between atoms: C_18  and  C_19
REMARK    9  A    between atoms: C_19  and  O_21
REMARK   10  A    between atoms: C_22  and  C_23
REMARK   11  A    between atoms: C_26  and  O_27
REMARK                            x       y       z     vdW  Elec       q    Type
REMARK                         _______ _______ _______ _____ _____    ______ ____
ROOT
ATOM      1  C   UNL     1       0.959  10.245  18.881  0.00  0.00    +0.000 C 
ATOM      2  C   UNL     1       1.626  11.595  18.657  0.00  0.00    +0.000 C 
ATOM      3  C   UNL     1       1.249  12.657  19.680  0.00  0.00    +0.000 C 
ATOM      4  C   UNL     1      -0.296  12.835  19.756  0.00  0.00    +0.000 C 
ATOM      5  C   UNL     1      -0.680  14.045  20.647  0.00  0.00    +0.000 C 
ATOM      6  C   UNL     1       0.052  15.333  20.238  0.00  0.00    +0.000 C 
ATOM      7  C   UNL     1       1.579  15.146  20.167  0.00  0.00    +0.000 C 
ATOM      8  C   UNL     1       2.111  14.958  21.612  0.00  0.00    +0.000 C 
ATOM      9  C   UNL     1       1.880  13.966  19.247  0.00  0.00    +0.000 C 
ATOM     10  C   UNL     1       3.374  14.008  18.972  0.00  0.00    +0.000 C 
ATOM     11  C   UNL     1       3.742  15.487  19.081  0.00  0.00    +0.000 C 
ATOM     12  C   UNL     1       2.443  16.249  19.482  0.00  0.00    +0.000 C 
ATOM     13  C   UNL     1      -1.007  11.489  20.125  0.00  0.00    +0.000 C 
ATOM     14  C   UNL     1      -0.615  11.058  21.562  0.00  0.00    +0.000 C 
ATOM     15  C   UNL     1      -2.563  11.631  20.141  0.00  0.00    +0.000 C 
ATOM     16  C   UNL     1      -3.207  11.809  18.772  0.00  0.00    +0.000 C 
ATOM     17  C   UNL     1      -2.825  10.658  17.860  0.00  0.00    +0.000 C 
ATOM     18  C   UNL     1      -1.317  10.542  17.738  0.00  0.00    +0.000 C 
ATOM     19  C   UNL     1      -0.589  10.372  19.086  0.00  0.00    +0.000 C 
ENDROOT
BRANCH   1  21
ATOM     20  C   UNL     1       2.458   8.238  18.090  0.00  0.00    +0.000 C 
ATOM     21  C   UNL     1       1.379   9.275  17.743  0.00  0.00    +0.000 C 
ENDBRANCH   1  21
BRANCH  12  22
ATOM     22  C   UNL     1       1.745  17.030  18.317  0.00  0.00    +0.000 C 
ATOM     23  C   UNL     1       2.520  17.099  16.997  0.00  0.00    +0.000 C 
BRANCH  22  24
ATOM     24  C   UNL     1       1.360  18.448  18.781  0.00  0.00    +0.000 C 
BRANCH  24  25
ATOM     25  C   UNL     1      -0.078  18.541  19.300  0.00  0.00    +0.000 C 
BRANCH  25  26
ATOM     26  C   UNL     1      -1.068  18.260  18.192  0.00  0.00    +0.000 C 
ATOM     27  O   UNL     1      -0.970  18.629  17.052  0.00  0.00    +0.000 OA
BRANCH  26  28
ATOM     28  O   UNL     1      -2.123  17.524  18.639  0.00  0.00    +0.000 OA
ATOM     29  H   UNL     1      -2.947  17.660  18.136  0.00  0.00    +0.000 HD
ENDBRANCH  26  28
ENDBRANCH  25  26
ENDBRANCH  24  25
ENDBRANCH  22  24
ENDBRANCH  12  22
BRANCH  17  30
ATOM     30  O   UNL     1      -3.387  10.857  16.567  0.00  0.00    +0.000 OA
ATOM     31  H   UNL     1      -2.686  10.714  15.909  0.00  0.00    +0.000 HD
ENDBRANCH  17  30
TORSDOF 7
ENDMDL
