MODEL 1
REMARK VINA RESULT:      -7.1      0.000      0.000
REMARK  Name = 
REMARK  15 active torsions:
REMARK  status: ('A' for Active; 'I' for Inactive)
REMARK    1  A    between atoms: C_1  and  O_2
REMARK    2  A    between atoms: O_2  and  C_3
REMARK    3  A    between atoms: C_7  and  O_8
REMARK    4  A    between atoms: O_8  and  C_9
REMARK    5  A    between atoms: C_10  and  C_11
REMARK    6  A    between atoms: C_11  and  C_12
REMARK    7  A    between atoms: C_12  and  C_13
REMARK    8  A    between atoms: C_13  and  N_14
REMARK    9  A    between atoms: N_14  and  C_15
REMARK   10  A    between atoms: C_15  and  C_16
REMARK   11  A    between atoms: C_16  and  O_17
REMARK   12  A    between atoms: O_17  and  C_18
REMARK   13  A    between atoms: C_23  and  O_24
REMARK   14  A    between atoms: O_24  and  C_25
REMARK   15  A    between atoms: C_25  and  C_26
REMARK                            x       y       z     vdW  Elec       q    Type
REMARK                         _______ _______ _______ _____ _____    ______ ____
ROOT
ATOM      1  C   UNL     1       2.588   6.221  19.840  0.00  0.00    +0.000 C 
ENDROOT
BRANCH   1   2
ATOM      2  N   UNL     1       2.139   7.542  20.298  0.00  0.00    +0.000 NA
ATOM      3  H   UNL     1       2.927   8.063  20.686  0.00  0.00    +0.000 HD
BRANCH   2   4
ATOM      4  C   UNL     1       1.076   7.481  21.311  0.00  0.00    +0.000 C 
BRANCH   4   5
ATOM      5  C   UNL     1       0.898   8.879  21.925  0.00  0.00    +0.000 C 
BRANCH   5   6
ATOM      6  C   UNL     1      -0.279   9.661  21.313  0.00  0.00    +0.000 C 
BRANCH   6  12
ATOM      7  C   UNL     1       0.591  11.060  19.361  0.00  0.00    +0.000 A 
ATOM      8  C   UNL     1       0.897  12.292  18.767  0.00  0.00    +0.000 A 
ATOM      9  C   UNL     1       0.838  13.464  19.510  0.00  0.00    +0.000 A 
ATOM     10  C   UNL     1       0.452  13.414  20.845  0.00  0.00    +0.000 A 
ATOM     11  C   UNL     1       0.091  12.197  21.443  0.00  0.00    +0.000 A 
ATOM     12  C   UNL     1       0.121  10.999  20.693  0.00  0.00    +0.000 A 
BRANCH   7  14
ATOM     13  C   UNL     1       1.923   9.771  17.903  0.00  0.00    +0.000 C 
ATOM     14  O   UNL     1       0.736   9.872  18.687  0.00  0.00    +0.000 OA
ENDBRANCH   7  14
BRANCH  11  15
ATOM     15  O   UNL     1      -0.326  12.114  22.749  0.00  0.00    +0.000 OA
ATOM     16  C   UNL     1      -1.364  13.013  23.130  0.00  0.00    +0.000 C 
ENDBRANCH  11  15
ENDBRANCH   6  12
ENDBRANCH   5   6
ENDBRANCH   4   5
ENDBRANCH   2   4
ENDBRANCH   1   2
BRANCH   1  17
ATOM     17  C   UNL     1       3.550   6.361  18.637  0.00  0.00    +0.000 C 
BRANCH  17  18
ATOM     18  O   UNL     1       4.738   5.560  18.779  0.00  0.00    +0.000 OA
BRANCH  18  19
ATOM     19  C   UNL     1       5.378   5.207  17.617  0.00  0.00    +0.000 A 
ATOM     20  C   UNL     1       6.599   5.800  17.255  0.00  0.00    +0.000 A 
ATOM     21  C   UNL     1       7.265   5.440  16.083  0.00  0.00    +0.000 A 
ATOM     22  C   UNL     1       6.716   4.487  15.241  0.00  0.00    +0.000 A 
ATOM     23  C   UNL     1       5.510   3.879  15.593  0.00  0.00    +0.000 A 
ATOM     24  C   UNL     1       4.843   4.204  16.786  0.00  0.00    +0.000 A 
BRANCH  24  25
ATOM     25  O   UNL     1       3.696   3.470  16.954  0.00  0.00    +0.000 OA
BRANCH  25  26
ATOM     26  C   UNL     1       3.761   2.336  17.815  0.00  0.00    +0.000 C 
BRANCH  26  27
ATOM     27  C   UNL     1       2.884   2.498  19.049  0.00  0.00    +0.000 A 
ATOM     28  C   UNL     1       3.395   2.518  20.355  0.00  0.00    +0.000 A 
ATOM     29  C   UNL     1       2.562   2.812  21.442  0.00  0.00    +0.000 A 
ATOM     30  C   UNL     1       1.212   3.092  21.237  0.00  0.00    +0.000 A 
ATOM     31  C   UNL     1       0.687   3.061  19.949  0.00  0.00    +0.000 A 
ATOM     32  C   UNL     1       1.516   2.767  18.865  0.00  0.00    +0.000 A 
ENDBRANCH  26  27
ENDBRANCH  25  26
ENDBRANCH  24  25
ENDBRANCH  18  19
ENDBRANCH  17  18
ENDBRANCH   1  17
TORSDOF 13
ENDMDL
MODEL 2
REMARK VINA RESULT:      -7.1      5.808      7.212
REMARK  Name = 
REMARK  15 active torsions:
REMARK  status: ('A' for Active; 'I' for Inactive)
REMARK    1  A    between atoms: C_1  and  O_2
REMARK    2  A    between atoms: O_2  and  C_3
REMARK    3  A    between atoms: C_7  and  O_8
REMARK    4  A    between atoms: O_8  and  C_9
REMARK    5  A    between atoms: C_10  and  C_11
REMARK    6  A    between atoms: C_11  and  C_12
REMARK    7  A    between atoms: C_12  and  C_13
REMARK    8  A    between atoms: C_13  and  N_14
REMARK    9  A    between atoms: N_14  and  C_15
REMARK   10  A    between atoms: C_15  and  C_16
REMARK   11  A    between atoms: C_16  and  O_17
REMARK   12  A    between atoms: O_17  and  C_18
REMARK   13  A    between atoms: C_23  and  O_24
REMARK   14  A    between atoms: O_24  and  C_25
REMARK   15  A    between atoms: C_25  and  C_26
REMARK                            x       y       z     vdW  Elec       q    Type
REMARK                         _______ _______ _______ _____ _____    ______ ____
ROOT
ATOM      1  C   UNL     1       7.812   8.029  17.492  0.00  0.00    +0.000 C 
ENDROOT
BRANCH   1   2
ATOM      2  N   UNL     1       8.643   8.823  18.408  0.00  0.00    +0.000 NA
ATOM      3  H   UNL     1       8.492   8.516  19.370  0.00  0.00    +0.000 HD
BRANCH   2   4
ATOM      4  C   UNL     1       8.384  10.267  18.332  0.00  0.00    +0.000 C 
BRANCH   4   5
ATOM      5  C   UNL     1       9.722  11.000  18.146  0.00  0.00    +0.000 C 
BRANCH   5   6
ATOM      6  C   UNL     1      10.549  11.086  19.443  0.00  0.00    +0.000 C 
BRANCH   6  12
ATOM      7  C   UNL     1       9.681  12.651  21.265  0.00  0.00    +0.000 A 
ATOM      8  C   UNL     1       9.677  13.884  21.933  0.00  0.00    +0.000 A 
ATOM      9  C   UNL     1      10.395  14.959  21.426  0.00  0.00    +0.000 A 
ATOM     10  C   UNL     1      11.137  14.804  20.261  0.00  0.00    +0.000 A 
ATOM     11  C   UNL     1      11.196  13.563  19.607  0.00  0.00    +0.000 A 
ATOM     12  C   UNL     1      10.493  12.451  20.124  0.00  0.00    +0.000 A 
BRANCH   7  14
ATOM     13  C   UNL     1       7.856  11.945  22.583  0.00  0.00    +0.000 C 
ATOM     14  O   UNL     1       8.905  11.597  21.680  0.00  0.00    +0.000 OA
ENDBRANCH   7  14
BRANCH  11  15
ATOM     15  O   UNL     1      11.946  13.364  18.473  0.00  0.00    +0.000 OA
ATOM     16  C   UNL     1      11.817  14.356  17.458  0.00  0.00    +0.000 C 
ENDBRANCH  11  15
ENDBRANCH   6  12
ENDBRANCH   5   6
ENDBRANCH   4   5
ENDBRANCH   2   4
ENDBRANCH   1   2
BRANCH   1  17
ATOM     17  C   UNL     1       7.280   6.762  18.201  0.00  0.00    +0.000 C 
BRANCH  17  18
ATOM     18  O   UNL     1       7.713   5.546  17.564  0.00  0.00    +0.000 OA
BRANCH  18  19
ATOM     19  C   UNL     1       6.950   5.106  16.510  0.00  0.00    +0.000 A 
ATOM     20  C   UNL     1       7.486   5.027  15.214  0.00  0.00    +0.000 A 
ATOM     21  C   UNL     1       6.725   4.568  14.138  0.00  0.00    +0.000 A 
ATOM     22  C   UNL     1       5.407   4.191  14.335  0.00  0.00    +0.000 A 
ATOM     23  C   UNL     1       4.864   4.252  15.618  0.00  0.00    +0.000 A 
ATOM     24  C   UNL     1       5.626   4.678  16.719  0.00  0.00    +0.000 A 
BRANCH  24  25
ATOM     25  O   UNL     1       4.912   4.632  17.891  0.00  0.00    +0.000 OA
BRANCH  25  26
ATOM     26  C   UNL     1       3.708   5.392  17.958  0.00  0.00    +0.000 C 
BRANCH  26  27
ATOM     27  C   UNL     1       2.578   4.622  18.628  0.00  0.00    +0.000 A 
ATOM     28  C   UNL     1       1.870   3.592  17.991  0.00  0.00    +0.000 A 
ATOM     29  C   UNL     1       0.938   2.823  18.699  0.00  0.00    +0.000 A 
ATOM     30  C   UNL     1       0.704   3.071  20.051  0.00  0.00    +0.000 A 
ATOM     31  C   UNL     1       1.387   4.100  20.692  0.00  0.00    +0.000 A 
ATOM     32  C   UNL     1       2.316   4.868  19.987  0.00  0.00    +0.000 A 
ENDBRANCH  26  27
ENDBRANCH  25  26
ENDBRANCH  24  25
ENDBRANCH  18  19
ENDBRANCH  17  18
ENDBRANCH   1  17
TORSDOF 13
ENDMDL
MODEL 3
REMARK VINA RESULT:      -6.9      1.295      2.715
REMARK  Name = 
REMARK  15 active torsions:
REMARK  status: ('A' for Active; 'I' for Inactive)
REMARK    1  A    between atoms: C_1  and  O_2
REMARK    2  A    between atoms: O_2  and  C_3
REMARK    3  A    between atoms: C_7  and  O_8
REMARK    4  A    between atoms: O_8  and  C_9
REMARK    5  A    between atoms: C_10  and  C_11
REMARK    6  A    between atoms: C_11  and  C_12
REMARK    7  A    between atoms: C_12  and  C_13
REMARK    8  A    between atoms: C_13  and  N_14
REMARK    9  A    between atoms: N_14  and  C_15
REMARK   10  A    between atoms: C_15  and  C_16
REMARK   11  A    between atoms: C_16  and  O_17
REMARK   12  A    between atoms: O_17  and  C_18
REMARK   13  A    between atoms: C_23  and  O_24
REMARK   14  A    between atoms: O_24  and  C_25
REMARK   15  A    between atoms: C_25  and  C_26
REMARK                            x       y       z     vdW  Elec       q    Type
REMARK                         _______ _______ _______ _____ _____    ______ ____
ROOT
ATOM      1  C   UNL     1       1.561   6.618  20.474  0.00  0.00    +0.000 C 
ENDROOT
BRANCH   1   2
ATOM      2  N   UNL     1       1.559   7.827  21.310  0.00  0.00    +0.000 NA
ATOM      3  H   UNL     1       2.110   7.667  22.154  0.00  0.00    +0.000 HD
BRANCH   2   4
ATOM      4  C   UNL     1       0.214   8.263  21.706  0.00  0.00    +0.000 C 
BRANCH   4   5
ATOM      5  C   UNL     1       0.328   9.599  22.458  0.00  0.00    +0.000 C 
BRANCH   5   6
ATOM      6  C   UNL     1       0.755  10.768  21.550  0.00  0.00    +0.000 C 
BRANCH   6  12
ATOM      7  C   UNL     1      -1.325  11.948  20.652  0.00  0.00    +0.000 A 
ATOM      8  C   UNL     1      -2.198  12.283  19.609  0.00  0.00    +0.000 A 
ATOM      9  C   UNL     1      -2.066  11.686  18.362  0.00  0.00    +0.000 A 
ATOM     10  C   UNL     1      -1.047  10.765  18.145  0.00  0.00    +0.000 A 
ATOM     11  C   UNL     1      -0.131  10.455  19.162  0.00  0.00    +0.000 A 
ATOM     12  C   UNL     1      -0.236  11.074  20.428  0.00  0.00    +0.000 A 
BRANCH   7  14
ATOM     13  C   UNL     1      -2.794  12.268  22.470  0.00  0.00    +0.000 C 
ATOM     14  O   UNL     1      -1.487  12.441  21.924  0.00  0.00    +0.000 OA
ENDBRANCH   7  14
BRANCH  11  15
ATOM     15  O   UNL     1       0.908   9.575  18.974  0.00  0.00    +0.000 OA
ATOM     16  C   UNL     1       1.203   9.239  17.621  0.00  0.00    +0.000 C 
ENDBRANCH  11  15
ENDBRANCH   6  12
ENDBRANCH   5   6
ENDBRANCH   4   5
ENDBRANCH   2   4
ENDBRANCH   1   2
BRANCH   1  17
ATOM     17  C   UNL     1       2.824   6.576  19.582  0.00  0.00    +0.000 C 
BRANCH  17  18
ATOM     18  O   UNL     1       2.642   5.776  18.400  0.00  0.00    +0.000 OA
BRANCH  18  19
ATOM     19  C   UNL     1       3.728   5.664  17.567  0.00  0.00    +0.000 A 
ATOM     20  C   UNL     1       4.646   6.718  17.431  0.00  0.00    +0.000 A 
ATOM     21  C   UNL     1       5.761   6.611  16.598  0.00  0.00    +0.000 A 
ATOM     22  C   UNL     1       5.972   5.450  15.873  0.00  0.00    +0.000 A 
ATOM     23  C   UNL     1       5.076   4.389  16.006  0.00  0.00    +0.000 A 
ATOM     24  C   UNL     1       3.968   4.466  16.867  0.00  0.00    +0.000 A 
BRANCH  24  25
ATOM     25  O   UNL     1       3.236   3.306  16.873  0.00  0.00    +0.000 OA
BRANCH  25  26
ATOM     26  C   UNL     1       3.586   2.312  17.834  0.00  0.00    +0.000 C 
BRANCH  26  27
ATOM     27  C   UNL     1       2.806   2.466  19.132  0.00  0.00    +0.000 A 
ATOM     28  C   UNL     1       3.418   2.524  20.393  0.00  0.00    +0.000 A 
ATOM     29  C   UNL     1       2.666   2.808  21.539  0.00  0.00    +0.000 A 
ATOM     30  C   UNL     1       1.295   3.041  21.440  0.00  0.00    +0.000 A 
ATOM     31  C   UNL     1       0.670   2.972  20.199  0.00  0.00    +0.000 A 
ATOM     32  C   UNL     1       1.419   2.687  19.055  0.00  0.00    +0.000 A 
ENDBRANCH  26  27
ENDBRANCH  25  26
ENDBRANCH  24  25
ENDBRANCH  18  19
ENDBRANCH  17  18
ENDBRANCH   1  17
TORSDOF 13
ENDMDL
MODEL 4
REMARK VINA RESULT:      -6.8      1.644      2.398
REMARK  Name = 
REMARK  15 active torsions:
REMARK  status: ('A' for Active; 'I' for Inactive)
REMARK    1  A    between atoms: C_1  and  O_2
REMARK    2  A    between atoms: O_2  and  C_3
REMARK    3  A    between atoms: C_7  and  O_8
REMARK    4  A    between atoms: O_8  and  C_9
REMARK    5  A    between atoms: C_10  and  C_11
REMARK    6  A    between atoms: C_11  and  C_12
REMARK    7  A    between atoms: C_12  and  C_13
REMARK    8  A    between atoms: C_13  and  N_14
REMARK    9  A    between atoms: N_14  and  C_15
REMARK   10  A    between atoms: C_15  and  C_16
REMARK   11  A    between atoms: C_16  and  O_17
REMARK   12  A    between atoms: O_17  and  C_18
REMARK   13  A    between atoms: C_23  and  O_24
REMARK   14  A    between atoms: O_24  and  C_25
REMARK   15  A    between atoms: C_25  and  C_26
REMARK                            x       y       z     vdW  Elec       q    Type
REMARK                         _______ _______ _______ _____ _____    ______ ____
ROOT
ATOM      1  C   UNL     1       1.884   8.605  17.684  0.00  0.00    +0.000 C 
ENDROOT
BRANCH   1   2
ATOM      2  N   UNL     1       2.004  10.057  17.494  0.00  0.00    +0.000 NA
ATOM      3  H   UNL     1       2.986  10.315  17.392  0.00  0.00    +0.000 HD
BRANCH   2   4
ATOM      4  C   UNL     1       1.427  10.842  18.593  0.00  0.00    +0.000 C 
BRANCH   4   5
ATOM      5  C   UNL     1       0.468   9.943  19.392  0.00  0.00    +0.000 C 
BRANCH   5   6
ATOM      6  C   UNL     1      -0.937  10.552  19.552  0.00  0.00    +0.000 C 
BRANCH   6  12
ATOM      7  C   UNL     1      -1.079  12.981  20.328  0.00  0.00    +0.000 A 
ATOM      8  C   UNL     1      -1.234  13.948  21.331  0.00  0.00    +0.000 A 
ATOM      9  C   UNL     1      -1.248  13.577  22.669  0.00  0.00    +0.000 A 
ATOM     10  C   UNL     1      -1.128  12.234  23.012  0.00  0.00    +0.000 A 
ATOM     11  C   UNL     1      -1.024  11.247  22.020  0.00  0.00    +0.000 A 
ATOM     12  C   UNL     1      -1.035  11.606  20.653  0.00  0.00    +0.000 A 
BRANCH   7  14
ATOM     13  C   UNL     1       0.053  14.287  18.722  0.00  0.00    +0.000 C 
ATOM     14  O   UNL     1      -0.958  13.321  19.003  0.00  0.00    +0.000 OA
ENDBRANCH   7  14
BRANCH  11  15
ATOM     15  O   UNL     1      -0.938   9.909  22.321  0.00  0.00    +0.000 OA
ATOM     16  C   UNL     1       0.068   9.545  23.263  0.00  0.00    +0.000 C 
ENDBRANCH  11  15
ENDBRANCH   6  12
ENDBRANCH   5   6
ENDBRANCH   4   5
ENDBRANCH   2   4
ENDBRANCH   1   2
BRANCH   1  17
ATOM     17  C   UNL     1       3.272   7.975  17.947  0.00  0.00    +0.000 C 
BRANCH  17  18
ATOM     18  O   UNL     1       3.286   6.553  17.730  0.00  0.00    +0.000 OA
BRANCH  18  19
ATOM     19  C   UNL     1       4.464   6.019  17.266  0.00  0.00    +0.000 A 
ATOM     20  C   UNL     1       5.638   6.789  17.219  0.00  0.00    +0.000 A 
ATOM     21  C   UNL     1       6.843   6.252  16.763  0.00  0.00    +0.000 A 
ATOM     22  C   UNL     1       6.895   4.938  16.332  0.00  0.00    +0.000 A 
ATOM     23  C   UNL     1       5.740   4.156  16.384  0.00  0.00    +0.000 A 
ATOM     24  C   UNL     1       4.527   4.669  16.873  0.00  0.00    +0.000 A 
BRANCH  24  25
ATOM     25  O   UNL     1       3.528   3.727  16.868  0.00  0.00    +0.000 OA
BRANCH  25  26
ATOM     26  C   UNL     1       3.706   2.575  17.689  0.00  0.00    +0.000 C 
BRANCH  26  27
ATOM     27  C   UNL     1       2.880   2.646  18.967  0.00  0.00    +0.000 A 
ATOM     28  C   UNL     1       3.444   2.570  20.249  0.00  0.00    +0.000 A 
ATOM     29  C   UNL     1       2.658   2.783  21.388  0.00  0.00    +0.000 A 
ATOM     30  C   UNL     1       1.300   3.076  21.260  0.00  0.00    +0.000 A 
ATOM     31  C   UNL     1       0.723   3.139  19.995  0.00  0.00    +0.000 A 
ATOM     32  C   UNL     1       1.507   2.926  18.859  0.00  0.00    +0.000 A 
ENDBRANCH  26  27
ENDBRANCH  25  26
ENDBRANCH  24  25
ENDBRANCH  18  19
ENDBRANCH  17  18
ENDBRANCH   1  17
TORSDOF 13
ENDMDL
MODEL 5
REMARK VINA RESULT:      -6.8      1.336      2.759
REMARK  Name = 
REMARK  15 active torsions:
REMARK  status: ('A' for Active; 'I' for Inactive)
REMARK    1  A    between atoms: C_1  and  O_2
REMARK    2  A    between atoms: O_2  and  C_3
REMARK    3  A    between atoms: C_7  and  O_8
REMARK    4  A    between atoms: O_8  and  C_9
REMARK    5  A    between atoms: C_10  and  C_11
REMARK    6  A    between atoms: C_11  and  C_12
REMARK    7  A    between atoms: C_12  and  C_13
REMARK    8  A    between atoms: C_13  and  N_14
REMARK    9  A    between atoms: N_14  and  C_15
REMARK   10  A    between atoms: C_15  and  C_16
REMARK   11  A    between atoms: C_16  and  O_17
REMARK   12  A    between atoms: O_17  and  C_18
REMARK   13  A    between atoms: C_23  and  O_24
REMARK   14  A    between atoms: O_24  and  C_25
REMARK   15  A    between atoms: C_25  and  C_26
REMARK                            x       y       z     vdW  Elec       q    Type
REMARK                         _______ _______ _______ _____ _____    ______ ____
ROOT
ATOM      1  C   UNL     1       1.968   8.371  17.826  0.00  0.00    +0.000 C 
ENDROOT
BRANCH   1   2
ATOM      2  N   UNL     1       1.808   9.215  19.017  0.00  0.00    +0.000 NA
ATOM      3  H   UNL     1       2.681   9.708  19.214  0.00  0.00    +0.000 HD
BRANCH   2   4
ATOM      4  C   UNL     1       1.414   8.467  20.218  0.00  0.00    +0.000 C 
BRANCH   4   5
ATOM      5  C   UNL     1       0.968   9.465  21.298  0.00  0.00    +0.000 C 
BRANCH   5   6
ATOM      6  C   UNL     1      -0.466   9.985  21.084  0.00  0.00    +0.000 C 
BRANCH   6  12
ATOM      7  C   UNL     1      -0.360  12.536  21.013  0.00  0.00    +0.000 A 
ATOM      8  C   UNL     1      -0.361  13.751  20.315  0.00  0.00    +0.000 A 
ATOM      9  C   UNL     1      -0.636  13.779  18.954  0.00  0.00    +0.000 A 
ATOM     10  C   UNL     1      -0.891  12.591  18.279  0.00  0.00    +0.000 A 
ATOM     11  C   UNL     1      -0.843  11.359  18.950  0.00  0.00    +0.000 A 
ATOM     12  C   UNL     1      -0.539  11.311  20.330  0.00  0.00    +0.000 A 
BRANCH   7  14
ATOM     13  C   UNL     1      -1.258  13.056  23.132  0.00  0.00    +0.000 C 
ATOM     14  O   UNL     1      -0.194  12.481  22.375  0.00  0.00    +0.000 OA
ENDBRANCH   7  14
BRANCH  11  15
ATOM     15  O   UNL     1      -1.056  10.163  18.309  0.00  0.00    +0.000 OA
ATOM     16  C   UNL     1      -1.938  10.203  17.190  0.00  0.00    +0.000 C 
ENDBRANCH  11  15
ENDBRANCH   6  12
ENDBRANCH   5   6
ENDBRANCH   4   5
ENDBRANCH   2   4
ENDBRANCH   1   2
BRANCH   1  17
ATOM     17  C   UNL     1       3.064   7.305  18.057  0.00  0.00    +0.000 C 
BRANCH  17  18
ATOM     18  O   UNL     1       3.927   7.139  16.917  0.00  0.00    +0.000 OA
BRANCH  18  19
ATOM     19  C   UNL     1       5.074   6.412  17.122  0.00  0.00    +0.000 A 
ATOM     20  C   UNL     1       6.299   7.050  17.378  0.00  0.00    +0.000 A 
ATOM     21  C   UNL     1       7.468   6.321  17.601  0.00  0.00    +0.000 A 
ATOM     22  C   UNL     1       7.437   4.937  17.558  0.00  0.00    +0.000 A 
ATOM     23  C   UNL     1       6.226   4.288  17.318  0.00  0.00    +0.000 A 
ATOM     24  C   UNL     1       5.033   5.005  17.126  0.00  0.00    +0.000 A 
BRANCH  24  25
ATOM     25  O   UNL     1       3.956   4.176  16.937  0.00  0.00    +0.000 OA
BRANCH  25  26
ATOM     26  C   UNL     1       3.886   2.995  17.734  0.00  0.00    +0.000 C 
BRANCH  26  27
ATOM     27  C   UNL     1       3.004   3.180  18.960  0.00  0.00    +0.000 A 
ATOM     28  C   UNL     1       1.715   3.731  18.902  0.00  0.00    +0.000 A 
ATOM     29  C   UNL     1       0.894   3.746  20.036  0.00  0.00    +0.000 A 
ATOM     30  C   UNL     1       1.348   3.209  21.240  0.00  0.00    +0.000 A 
ATOM     31  C   UNL     1       2.630   2.673  21.318  0.00  0.00    +0.000 A 
ATOM     32  C   UNL     1       3.450   2.659  20.188  0.00  0.00    +0.000 A 
ENDBRANCH  26  27
ENDBRANCH  25  26
ENDBRANCH  24  25
ENDBRANCH  18  19
ENDBRANCH  17  18
ENDBRANCH   1  17
TORSDOF 13
ENDMDL
MODEL 6
REMARK VINA RESULT:      -6.8      2.241      3.286
REMARK  Name = 
REMARK  15 active torsions:
REMARK  status: ('A' for Active; 'I' for Inactive)
REMARK    1  A    between atoms: C_1  and  O_2
REMARK    2  A    between atoms: O_2  and  C_3
REMARK    3  A    between atoms: C_7  and  O_8
REMARK    4  A    between atoms: O_8  and  C_9
REMARK    5  A    between atoms: C_10  and  C_11
REMARK    6  A    between atoms: C_11  and  C_12
REMARK    7  A    between atoms: C_12  and  C_13
REMARK    8  A    between atoms: C_13  and  N_14
REMARK    9  A    between atoms: N_14  and  C_15
REMARK   10  A    between atoms: C_15  and  C_16
REMARK   11  A    between atoms: C_16  and  O_17
REMARK   12  A    between atoms: O_17  and  C_18
REMARK   13  A    between atoms: C_23  and  O_24
REMARK   14  A    between atoms: O_24  and  C_25
REMARK   15  A    between atoms: C_25  and  C_26
REMARK                            x       y       z     vdW  Elec       q    Type
REMARK                         _______ _______ _______ _____ _____    ______ ____
ROOT
ATOM      1  C   UNL     1       2.079   7.351  19.280  0.00  0.00    +0.000 C 
ENDROOT
BRANCH   1   2
ATOM      2  N   UNL     1       2.232   8.744  18.838  0.00  0.00    +0.000 NA
ATOM      3  H   UNL     1       2.411   9.347  19.642  0.00  0.00    +0.000 HD
BRANCH   2   4
ATOM      4  C   UNL     1       1.062   9.262  18.117  0.00  0.00    +0.000 C 
BRANCH   4   5
ATOM      5  C   UNL     1       0.180  10.045  19.104  0.00  0.00    +0.000 C 
BRANCH   5   6
ATOM      6  C   UNL     1      -0.333  11.378  18.527  0.00  0.00    +0.000 C 
BRANCH   6  12
ATOM      7  C   UNL     1      -2.323  12.258  19.865  0.00  0.00    +0.000 A 
ATOM      8  C   UNL     1      -3.692  12.520  20.010  0.00  0.00    +0.000 A 
ATOM      9  C   UNL     1      -4.601  12.048  19.072  0.00  0.00    +0.000 A 
ATOM     10  C   UNL     1      -4.145  11.329  17.973  0.00  0.00    +0.000 A 
ATOM     11  C   UNL     1      -2.773  11.102  17.783  0.00  0.00    +0.000 A 
ATOM     12  C   UNL     1      -1.833  11.598  18.714  0.00  0.00    +0.000 A 
BRANCH   7  14
ATOM     13  C   UNL     1      -1.624  12.038  22.107  0.00  0.00    +0.000 C 
ATOM     14  O   UNL     1      -1.408  12.621  20.823  0.00  0.00    +0.000 OA
ENDBRANCH   7  14
BRANCH  11  15
ATOM     15  O   UNL     1      -2.283  10.424  16.692  0.00  0.00    +0.000 OA
ATOM     16  C   UNL     1      -2.835  10.793  15.431  0.00  0.00    +0.000 C 
ENDBRANCH  11  15
ENDBRANCH   6  12
ENDBRANCH   5   6
ENDBRANCH   4   5
ENDBRANCH   2   4
ENDBRANCH   1   2
BRANCH   1  17
ATOM     17  C   UNL     1       2.769   6.387  18.287  0.00  0.00    +0.000 C 
BRANCH  17  18
ATOM     18  O   UNL     1       3.992   5.836  18.808  0.00  0.00    +0.000 OA
BRANCH  18  19
ATOM     19  C   UNL     1       4.945   5.485  17.883  0.00  0.00    +0.000 A 
ATOM     20  C   UNL     1       6.163   6.181  17.799  0.00  0.00    +0.000 A 
ATOM     21  C   UNL     1       7.144   5.824  16.873  0.00  0.00    +0.000 A 
ATOM     22  C   UNL     1       6.921   4.771  16.002  0.00  0.00    +0.000 A 
ATOM     23  C   UNL     1       5.722   4.061  16.082  0.00  0.00    +0.000 A 
ATOM     24  C   UNL     1       4.738   4.384  17.031  0.00  0.00    +0.000 A 
BRANCH  24  25
ATOM     25  O   UNL     1       3.655   3.544  16.959  0.00  0.00    +0.000 OA
BRANCH  25  26
ATOM     26  C   UNL     1       3.674   2.375  17.775  0.00  0.00    +0.000 C 
BRANCH  26  27
ATOM     27  C   UNL     1       2.860   2.548  19.049  0.00  0.00    +0.000 A 
ATOM     28  C   UNL     1       3.427   2.506  20.332  0.00  0.00    +0.000 A 
ATOM     29  C   UNL     1       2.658   2.812  21.462  0.00  0.00    +0.000 A 
ATOM     30  C   UNL     1       1.316   3.166  21.324  0.00  0.00    +0.000 A 
ATOM     31  C   UNL     1       0.736   3.197  20.059  0.00  0.00    +0.000 A 
ATOM     32  C   UNL     1       1.502   2.890  18.933  0.00  0.00    +0.000 A 
ENDBRANCH  26  27
ENDBRANCH  25  26
ENDBRANCH  24  25
ENDBRANCH  18  19
ENDBRANCH  17  18
ENDBRANCH   1  17
TORSDOF 13
ENDMDL
MODEL 7
REMARK VINA RESULT:      -6.8      2.903      4.010
REMARK  Name = 
REMARK  15 active torsions:
REMARK  status: ('A' for Active; 'I' for Inactive)
REMARK    1  A    between atoms: C_1  and  O_2
REMARK    2  A    between atoms: O_2  and  C_3
REMARK    3  A    between atoms: C_7  and  O_8
REMARK    4  A    between atoms: O_8  and  C_9
REMARK    5  A    between atoms: C_10  and  C_11
REMARK    6  A    between atoms: C_11  and  C_12
REMARK    7  A    between atoms: C_12  and  C_13
REMARK    8  A    between atoms: C_13  and  N_14
REMARK    9  A    between atoms: N_14  and  C_15
REMARK   10  A    between atoms: C_15  and  C_16
REMARK   11  A    between atoms: C_16  and  O_17
REMARK   12  A    between atoms: O_17  and  C_18
REMARK   13  A    between atoms: C_23  and  O_24
REMARK   14  A    between atoms: O_24  and  C_25
REMARK   15  A    between atoms: C_25  and  C_26
REMARK                            x       y       z     vdW  Elec       q    Type
REMARK                         _______ _______ _______ _____ _____    ______ ____
ROOT
ATOM      1  C   UNL     1       1.844   7.852  18.768  0.00  0.00    +0.000 C 
ENDROOT
BRANCH   1   2
ATOM      2  N   UNL     1       1.722   8.999  17.858  0.00  0.00    +0.000 NA
ATOM      3  H   UNL     1       2.630   9.215  17.446  0.00  0.00    +0.000 HD
BRANCH   2   4
ATOM      4  C   UNL     1       1.203  10.210  18.507  0.00  0.00    +0.000 C 
BRANCH   4   5
ATOM      5  C   UNL     1      -0.333  10.190  18.437  0.00  0.00    +0.000 C 
BRANCH   5   6
ATOM      6  C   UNL     1      -0.936  11.554  18.055  0.00  0.00    +0.000 C 
BRANCH   6  12
ATOM      7  C   UNL     1      -3.211  11.981  19.134  0.00  0.00    +0.000 A 
ATOM      8  C   UNL     1      -4.610  12.056  19.075  0.00  0.00    +0.000 A 
ATOM      9  C   UNL     1      -5.289  11.628  17.941  0.00  0.00    +0.000 A 
ATOM     10  C   UNL     1      -4.573  11.143  16.852  0.00  0.00    +0.000 A 
ATOM     11  C   UNL     1      -3.170  11.109  16.873  0.00  0.00    +0.000 A 
ATOM     12  C   UNL     1      -2.463  11.566  18.009  0.00  0.00    +0.000 A 
BRANCH   7  14
ATOM     13  C   UNL     1      -2.696  13.638  20.732  0.00  0.00    +0.000 C 
ATOM     14  O   UNL     1      -2.514  12.299  20.274  0.00  0.00    +0.000 OA
ENDBRANCH   7  14
BRANCH  11  15
ATOM     15  O   UNL     1      -2.428  10.668  15.803  0.00  0.00    +0.000 OA
ATOM     16  C   UNL     1      -3.170  10.261  14.656  0.00  0.00    +0.000 C 
ENDBRANCH  11  15
ENDBRANCH   6  12
ENDBRANCH   5   6
ENDBRANCH   4   5
ENDBRANCH   2   4
ENDBRANCH   1   2
BRANCH   1  17
ATOM     17  C   UNL     1       2.594   6.688  18.078  0.00  0.00    +0.000 C 
BRANCH  17  18
ATOM     18  O   UNL     1       4.021   6.771  18.247  0.00  0.00    +0.000 OA
BRANCH  18  19
ATOM     19  C   UNL     1       4.780   5.991  17.408  0.00  0.00    +0.000 A 
ATOM     20  C   UNL     1       4.925   6.319  16.050  0.00  0.00    +0.000 A 
ATOM     21  C   UNL     1       5.705   5.542  15.192  0.00  0.00    +0.000 A 
ATOM     22  C   UNL     1       6.344   4.412  15.673  0.00  0.00    +0.000 A 
ATOM     23  C   UNL     1       6.220   4.080  17.022  0.00  0.00    +0.000 A 
ATOM     24  C   UNL     1       5.468   4.870  17.908  0.00  0.00    +0.000 A 
BRANCH  24  25
ATOM     25  O   UNL     1       5.503   4.384  19.191  0.00  0.00    +0.000 OA
BRANCH  25  26
ATOM     26  C   UNL     1       4.832   3.153  19.447  0.00  0.00    +0.000 C 
BRANCH  26  27
ATOM     27  C   UNL     1       3.317   3.309  19.428  0.00  0.00    +0.000 A 
ATOM     28  C   UNL     1       2.501   2.743  18.438  0.00  0.00    +0.000 A 
ATOM     29  C   UNL     1       1.106   2.797  18.546  0.00  0.00    +0.000 A 
ATOM     30  C   UNL     1       0.510   3.414  19.646  0.00  0.00    +0.000 A 
ATOM     31  C   UNL     1       1.306   3.993  20.629  0.00  0.00    +0.000 A 
ATOM     32  C   UNL     1       2.697   3.941  20.520  0.00  0.00    +0.000 A 
ENDBRANCH  26  27
ENDBRANCH  25  26
ENDBRANCH  24  25
ENDBRANCH  18  19
ENDBRANCH  17  18
ENDBRANCH   1  17
TORSDOF 13
ENDMDL
MODEL 8
REMARK VINA RESULT:      -6.8      1.753      4.734
REMARK  Name = 
REMARK  15 active torsions:
REMARK  status: ('A' for Active; 'I' for Inactive)
REMARK    1  A    between atoms: C_1  and  O_2
REMARK    2  A    between atoms: O_2  and  C_3
REMARK    3  A    between atoms: C_7  and  O_8
REMARK    4  A    between atoms: O_8  and  C_9
REMARK    5  A    between atoms: C_10  and  C_11
REMARK    6  A    between atoms: C_11  and  C_12
REMARK    7  A    between atoms: C_12  and  C_13
REMARK    8  A    between atoms: C_13  and  N_14
REMARK    9  A    between atoms: N_14  and  C_15
REMARK   10  A    between atoms: C_15  and  C_16
REMARK   11  A    between atoms: C_16  and  O_17
REMARK   12  A    between atoms: O_17  and  C_18
REMARK   13  A    between atoms: C_23  and  O_24
REMARK   14  A    between atoms: O_24  and  C_25
REMARK   15  A    between atoms: C_25  and  C_26
REMARK                            x       y       z     vdW  Elec       q    Type
REMARK                         _______ _______ _______ _____ _____    ______ ____
ROOT
ATOM      1  C   UNL     1       1.444   8.407  19.843  0.00  0.00    +0.000 C 
ENDROOT
BRANCH   1   2
ATOM      2  N   UNL     1       1.386   9.813  19.420  0.00  0.00    +0.000 NA
ATOM      3  H   UNL     1       1.588  10.424  20.212  0.00  0.00    +0.000 HD
BRANCH   2   4
ATOM      4  C   UNL     1       0.089  10.200  18.850  0.00  0.00    +0.000 C 
BRANCH   4   5
ATOM      5  C   UNL     1      -0.009  11.734  18.841  0.00  0.00    +0.000 C 
BRANCH   5   6
ATOM      6  C   UNL     1       0.416  12.373  20.177  0.00  0.00    +0.000 C 
BRANCH   6  12
ATOM      7  C   UNL     1      -1.693  13.352  21.235  0.00  0.00    +0.000 A 
ATOM      8  C   UNL     1      -2.735  13.312  22.171  0.00  0.00    +0.000 A 
ATOM      9  C   UNL     1      -2.733  12.362  23.185  0.00  0.00    +0.000 A 
ATOM     10  C   UNL     1      -1.700  11.433  23.255  0.00  0.00    +0.000 A 
ATOM     11  C   UNL     1      -0.676  11.424  22.296  0.00  0.00    +0.000 A 
ATOM     12  C   UNL     1      -0.678  12.368  21.243  0.00  0.00    +0.000 A 
BRANCH   7  14
ATOM     13  C   UNL     1      -2.298  15.544  20.607  0.00  0.00    +0.000 C 
ATOM     14  O   UNL     1      -1.608  14.338  20.282  0.00  0.00    +0.000 OA
ENDBRANCH   7  14
BRANCH  11  15
ATOM     15  O   UNL     1       0.342  10.501  22.314  0.00  0.00    +0.000 OA
ATOM     16  C   UNL     1       0.148   9.377  23.169  0.00  0.00    +0.000 C 
ENDBRANCH  11  15
ENDBRANCH   6  12
ENDBRANCH   5   6
ENDBRANCH   4   5
ENDBRANCH   2   4
ENDBRANCH   1   2
BRANCH   1  17
ATOM     17  C   UNL     1       2.474   7.626  18.994  0.00  0.00    +0.000 C 
BRANCH  17  18
ATOM     18  O   UNL     1       3.027   6.496  19.693  0.00  0.00    +0.000 OA
BRANCH  18  19
ATOM     19  C   UNL     1       2.382   5.296  19.518  0.00  0.00    +0.000 A 
ATOM     20  C   UNL     1       1.536   4.777  20.512  0.00  0.00    +0.000 A 
ATOM     21  C   UNL     1       0.865   3.566  20.339  0.00  0.00    +0.000 A 
ATOM     22  C   UNL     1       1.037   2.842  19.172  0.00  0.00    +0.000 A 
ATOM     23  C   UNL     1       1.864   3.349  18.169  0.00  0.00    +0.000 A 
ATOM     24  C   UNL     1       2.519   4.583  18.311  0.00  0.00    +0.000 A 
BRANCH  24  25
ATOM     25  O   UNL     1       3.254   4.910  17.199  0.00  0.00    +0.000 OA
BRANCH  25  26
ATOM     26  C   UNL     1       4.553   4.336  17.076  0.00  0.00    +0.000 C 
BRANCH  26  27
ATOM     27  C   UNL     1       5.643   5.258  17.605  0.00  0.00    +0.000 A 
ATOM     28  C   UNL     1       6.490   4.912  18.668  0.00  0.00    +0.000 A 
ATOM     29  C   UNL     1       7.566   5.737  19.021  0.00  0.00    +0.000 A 
ATOM     30  C   UNL     1       7.809   6.914  18.314  0.00  0.00    +0.000 A 
ATOM     31  C   UNL     1       6.968   7.279  17.267  0.00  0.00    +0.000 A 
ATOM     32  C   UNL     1       5.895   6.457  16.916  0.00  0.00    +0.000 A 
ENDBRANCH  26  27
ENDBRANCH  25  26
ENDBRANCH  24  25
ENDBRANCH  18  19
ENDBRANCH  17  18
ENDBRANCH   1  17
TORSDOF 13
ENDMDL
MODEL 9
REMARK VINA RESULT:      -6.8      1.685      4.748
REMARK  Name = 
REMARK  15 active torsions:
REMARK  status: ('A' for Active; 'I' for Inactive)
REMARK    1  A    between atoms: C_1  and  O_2
REMARK    2  A    between atoms: O_2  and  C_3
REMARK    3  A    between atoms: C_7  and  O_8
REMARK    4  A    between atoms: O_8  and  C_9
REMARK    5  A    between atoms: C_10  and  C_11
REMARK    6  A    between atoms: C_11  and  C_12
REMARK    7  A    between atoms: C_12  and  C_13
REMARK    8  A    between atoms: C_13  and  N_14
REMARK    9  A    between atoms: N_14  and  C_15
REMARK   10  A    between atoms: C_15  and  C_16
REMARK   11  A    between atoms: C_16  and  O_17
REMARK   12  A    between atoms: O_17  and  C_18
REMARK   13  A    between atoms: C_23  and  O_24
REMARK   14  A    between atoms: O_24  and  C_25
REMARK   15  A    between atoms: C_25  and  C_26
REMARK                            x       y       z     vdW  Elec       q    Type
REMARK                         _______ _______ _______ _____ _____    ______ ____
ROOT
ATOM      1  C   UNL     1       1.652   8.283  18.005  0.00  0.00    +0.000 C 
ENDROOT
BRANCH   1   2
ATOM      2  N   UNL     1       1.743   9.629  17.422  0.00  0.00    +0.000 NA
ATOM      3  H   UNL     1       2.532   9.675  16.775  0.00  0.00    +0.000 HD
BRANCH   2   4
ATOM      4  C   UNL     1       1.898  10.692  18.424  0.00  0.00    +0.000 C 
BRANCH   4   5
ATOM      5  C   UNL     1       0.505  11.223  18.801  0.00  0.00    +0.000 C 
BRANCH   5   6
ATOM      6  C   UNL     1       0.552  12.345  19.854  0.00  0.00    +0.000 C 
BRANCH   6  12
ATOM      7  C   UNL     1      -1.595  12.960  21.093  0.00  0.00    +0.000 A 
ATOM      8  C   UNL     1      -2.536  12.747  22.110  0.00  0.00    +0.000 A 
ATOM      9  C   UNL     1      -2.293  11.810  23.107  0.00  0.00    +0.000 A 
ATOM     10  C   UNL     1      -1.119  11.065  23.080  0.00  0.00    +0.000 A 
ATOM     11  C   UNL     1      -0.190  11.227  22.041  0.00  0.00    +0.000 A 
ATOM     12  C   UNL     1      -0.434  12.157  21.005  0.00  0.00    +0.000 A 
BRANCH   7  14
ATOM     13  C   UNL     1      -1.731  15.276  20.668  0.00  0.00    +0.000 C 
ATOM     14  O   UNL     1      -1.754  13.946  20.151  0.00  0.00    +0.000 OA
ENDBRANCH   7  14
BRANCH  11  15
ATOM     15  O   UNL     1       0.964  10.485  21.964  0.00  0.00    +0.000 OA
ATOM     16  C   UNL     1       0.806   9.073  22.071  0.00  0.00    +0.000 C 
ENDBRANCH  11  15
ENDBRANCH   6  12
ENDBRANCH   5   6
ENDBRANCH   4   5
ENDBRANCH   2   4
ENDBRANCH   1   2
BRANCH   1  17
ATOM     17  C   UNL     1       3.030   7.581  17.969  0.00  0.00    +0.000 C 
BRANCH  17  18
ATOM     18  O   UNL     1       3.275   6.782  19.141  0.00  0.00    +0.000 OA
BRANCH  18  19
ATOM     19  C   UNL     1       2.602   5.587  19.215  0.00  0.00    +0.000 A 
ATOM     20  C   UNL     1       1.719   5.319  20.274  0.00  0.00    +0.000 A 
ATOM     21  C   UNL     1       1.019   4.114  20.353  0.00  0.00    +0.000 A 
ATOM     22  C   UNL     1       1.200   3.146  19.380  0.00  0.00    +0.000 A 
ATOM     23  C   UNL     1       2.064   3.401  18.315  0.00  0.00    +0.000 A 
ATOM     24  C   UNL     1       2.750   4.622  18.201  0.00  0.00    +0.000 A 
BRANCH  24  25
ATOM     25  O   UNL     1       3.520   4.679  17.066  0.00  0.00    +0.000 OA
BRANCH  25  26
ATOM     26  C   UNL     1       4.794   4.040  17.103  0.00  0.00    +0.000 C 
BRANCH  26  27
ATOM     27  C   UNL     1       5.918   5.014  17.430  0.00  0.00    +0.000 A 
ATOM     28  C   UNL     1       6.130   6.205  16.722  0.00  0.00    +0.000 A 
ATOM     29  C   UNL     1       7.088   7.131  17.153  0.00  0.00    +0.000 A 
ATOM     30  C   UNL     1       7.842   6.880  18.298  0.00  0.00    +0.000 A 
ATOM     31  C   UNL     1       7.654   5.695  19.003  0.00  0.00    +0.000 A 
ATOM     32  C   UNL     1       6.700   4.771  18.573  0.00  0.00    +0.000 A 
ENDBRANCH  26  27
ENDBRANCH  25  26
ENDBRANCH  24  25
ENDBRANCH  18  19
ENDBRANCH  17  18
ENDBRANCH   1  17
TORSDOF 13
ENDMDL
