MODEL 1
REMARK VINA RESULT:      -9.6      0.000      0.000
REMARK  Name = 
REMARK  7 active torsions:
REMARK  status: ('A' for Active; 'I' for Inactive)
REMARK    1  A    between atoms: C_1  and  O_2
REMARK    2  A    between atoms: O_2  and  C_3
REMARK    3  A    between atoms: C_6  and  C_7
REMARK    4  A    between atoms: N_12  and  C_13
REMARK    5  A    between atoms: C_19  and  C_20
REMARK    6  A    between atoms: C_20  and  C_22
REMARK    7  A    between atoms: N_31  and  C_32
REMARK                            x       y       z     vdW  Elec       q    Type
REMARK                         _______ _______ _______ _____ _____    ______ ____
ROOT
ATOM      1  C   UNL     1       1.766   8.036  19.614  0.00  0.00    +0.000 A 
ATOM      2  C   UNL     1       1.619   7.341  20.829  0.00  0.00    +0.000 A 
ATOM      3  C   UNL     1       1.696   5.946  20.900  0.00  0.00    +0.000 A 
ATOM      4  C   UNL     1       1.910   5.332  19.676  0.00  0.00    +0.000 A 
ATOM      5  C   UNL     1       2.575   5.959  18.623  0.00  0.00    +0.000 A 
ATOM      6  C   UNL     1       2.338   7.348  18.524  0.00  0.00    +0.000 A 
ATOM      7  C   UNL     1       2.860   4.886  17.723  0.00  0.00    +0.000 A 
ATOM      8  C   UNL     1       1.597   4.302  17.695  0.00  0.00    +0.000 A 
ATOM      9  N   UNL     1       1.424   4.186  19.081  0.00  0.00    +0.000 N 
ATOM     10  C   UNL     1       0.757   3.064  19.681  0.00  0.00    +0.000 C 
ENDROOT
BRANCH   1  16
ATOM     11  C   UNL     1      -0.308  12.240  20.890  0.00  0.00    +0.000 A 
ATOM     12  C   UNL     1      -0.743  11.797  22.122  0.00  0.00    +0.000 A 
ATOM     13  C   UNL     1      -0.359  10.536  22.482  0.00  0.00    +0.000 A 
ATOM     14  N   UNL     1       0.356   9.735  21.684  0.00  0.00    +0.000 NA
ATOM     15  C   UNL     1       0.693  10.196  20.474  0.00  0.00    +0.000 A 
ATOM     16  N   UNL     1       1.308   9.362  19.544  0.00  0.00    +0.000 N 
ATOM     17  N   UNL     1       0.407  11.442  20.059  0.00  0.00    +0.000 NA
ATOM     18  H   UNL     1       1.554   9.893  18.722  0.00  0.00    +0.000 HD
BRANCH  11  22
ATOM     19  C   UNL     1      -1.164  16.218  19.453  0.00  0.00    +0.000 A 
ATOM     20  C   UNL     1      -1.868  15.695  20.534  0.00  0.00    +0.000 A 
ATOM     21  C   UNL     1      -1.586  14.410  21.008  0.00  0.00    +0.000 A 
ATOM     22  C   UNL     1      -0.608  13.601  20.398  0.00  0.00    +0.000 A 
ATOM     23  C   UNL     1       0.074  14.142  19.295  0.00  0.00    +0.000 A 
ATOM     24  C   UNL     1      -0.200  15.434  18.824  0.00  0.00    +0.000 A 
BRANCH  19  26
ATOM     25  C   UNL     1      -0.880  17.973  17.907  0.00  0.00    +0.000 C 
ATOM     26  O   UNL     1      -1.522  17.483  19.079  0.00  0.00    +0.000 OA
ENDBRANCH  19  26
ENDBRANCH  11  22
ENDBRANCH   1  16
BRANCH   7  27
ATOM     27  C   UNL     1       3.969   3.912  17.646  0.00  0.00    +0.000 C 
ATOM     28  O   UNL     1       3.806   2.807  17.120  0.00  0.00    +0.000 OA
BRANCH  27  29
ATOM     29  C   UNL     1       5.304   4.115  18.355  0.00  0.00    +0.000 C 
ATOM     30  O   UNL     1       5.488   3.595  19.457  0.00  0.00    +0.000 OA
ATOM     31  N   UNL     1       6.300   4.717  17.578  0.00  0.00    +0.000 N 
ATOM     32  C   UNL     1       7.688   4.739  18.015  0.00  0.00    +0.000 C 
ATOM     33  C   UNL     1       8.041   6.097  18.617  0.00  0.00    +0.000 C 
ATOM     34  C   UNL     1       7.598   7.254  17.713  0.00  0.00    +0.000 C 
ATOM     35  C   UNL     1       6.147   7.097  17.249  0.00  0.00    +0.000 C 
ATOM     36  C   UNL     1       5.951   5.733  16.594  0.00  0.00    +0.000 C 
ENDBRANCH  27  29
ENDBRANCH   7  27
TORSDOF 5
ENDMDL
MODEL 2
REMARK VINA RESULT:      -9.4      1.075      1.589
REMARK  Name = 
REMARK  7 active torsions:
REMARK  status: ('A' for Active; 'I' for Inactive)
REMARK    1  A    between atoms: C_1  and  O_2
REMARK    2  A    between atoms: O_2  and  C_3
REMARK    3  A    between atoms: C_6  and  C_7
REMARK    4  A    between atoms: N_12  and  C_13
REMARK    5  A    between atoms: C_19  and  C_20
REMARK    6  A    between atoms: C_20  and  C_22
REMARK    7  A    between atoms: N_31  and  C_32
REMARK                            x       y       z     vdW  Elec       q    Type
REMARK                         _______ _______ _______ _____ _____    ______ ____
ROOT
ATOM      1  C   UNL     1       1.772   8.072  19.902  0.00  0.00    +0.000 A 
ATOM      2  C   UNL     1       1.608   7.266  21.044  0.00  0.00    +0.000 A 
ATOM      3  C   UNL     1       1.673   5.870  20.983  0.00  0.00    +0.000 A 
ATOM      4  C   UNL     1       1.893   5.373  19.709  0.00  0.00    +0.000 A 
ATOM      5  C   UNL     1       2.572   6.092  18.725  0.00  0.00    +0.000 A 
ATOM      6  C   UNL     1       2.348   7.486  18.756  0.00  0.00    +0.000 A 
ATOM      7  C   UNL     1       2.856   5.106  17.729  0.00  0.00    +0.000 A 
ATOM      8  C   UNL     1       1.589   4.539  17.636  0.00  0.00    +0.000 A 
ATOM      9  N   UNL     1       1.403   4.293  19.004  0.00  0.00    +0.000 N 
ATOM     10  C   UNL     1       0.721   3.126  19.489  0.00  0.00    +0.000 C 
ENDROOT
BRANCH   1  16
ATOM     11  C   UNL     1      -0.793  12.086  18.946  0.00  0.00    +0.000 A 
ATOM     12  C   UNL     1      -1.555  11.513  17.947  0.00  0.00    +0.000 A 
ATOM     13  C   UNL     1      -1.371  10.176  17.737  0.00  0.00    +0.000 A 
ATOM     14  N   UNL     1      -0.475   9.447  18.413  0.00  0.00    +0.000 NA
ATOM     15  C   UNL     1       0.280  10.071  19.324  0.00  0.00    +0.000 A 
ATOM     16  N   UNL     1       1.326   9.403  19.955  0.00  0.00    +0.000 N 
ATOM     17  N   UNL     1       0.129  11.370  19.635  0.00  0.00    +0.000 NA
ATOM     18  H   UNL     1       1.736  10.000  20.658  0.00  0.00    +0.000 HD
BRANCH  11  22
ATOM     19  C   UNL     1      -1.206  16.246  20.014  0.00  0.00    +0.000 A 
ATOM     20  C   UNL     1      -0.329  15.864  19.003  0.00  0.00    +0.000 A 
ATOM     21  C   UNL     1      -0.201  14.518  18.648  0.00  0.00    +0.000 A 
ATOM     22  C   UNL     1      -0.928  13.511  19.311  0.00  0.00    +0.000 A 
ATOM     23  C   UNL     1      -1.790  13.919  20.344  0.00  0.00    +0.000 A 
ATOM     24  C   UNL     1      -1.928  15.269  20.695  0.00  0.00    +0.000 A 
BRANCH  19  26
ATOM     25  C   UNL     1      -1.151  18.429  19.131  0.00  0.00    +0.000 C 
ATOM     26  O   UNL     1      -1.251  17.587  20.274  0.00  0.00    +0.000 OA
ENDBRANCH  19  26
ENDBRANCH  11  22
ENDBRANCH   1  16
BRANCH   7  27
ATOM     27  C   UNL     1       3.958   4.134  17.569  0.00  0.00    +0.000 C 
ATOM     28  O   UNL     1       3.795   3.092  16.926  0.00  0.00    +0.000 OA
BRANCH  27  29
ATOM     29  C   UNL     1       5.281   4.245  18.319  0.00  0.00    +0.000 C 
ATOM     30  O   UNL     1       5.412   3.675  19.404  0.00  0.00    +0.000 OA
ATOM     31  N   UNL     1       6.325   4.831  17.593  0.00  0.00    +0.000 N 
ATOM     32  C   UNL     1       7.700   4.770  18.066  0.00  0.00    +0.000 C 
ATOM     33  C   UNL     1       8.098   6.086  18.731  0.00  0.00    +0.000 C 
ATOM     34  C   UNL     1       7.733   7.298  17.864  0.00  0.00    +0.000 C 
ATOM     35  C   UNL     1       6.289   7.227  17.357  0.00  0.00    +0.000 C 
ATOM     36  C   UNL     1       6.049   5.900  16.643  0.00  0.00    +0.000 C 
ENDBRANCH  27  29
ENDBRANCH   7  27
TORSDOF 5
ENDMDL
MODEL 3
REMARK VINA RESULT:      -9.1      1.077      1.781
REMARK  Name = 
REMARK  7 active torsions:
REMARK  status: ('A' for Active; 'I' for Inactive)
REMARK    1  A    between atoms: C_1  and  O_2
REMARK    2  A    between atoms: O_2  and  C_3
REMARK    3  A    between atoms: C_6  and  C_7
REMARK    4  A    between atoms: N_12  and  C_13
REMARK    5  A    between atoms: C_19  and  C_20
REMARK    6  A    between atoms: C_20  and  C_22
REMARK    7  A    between atoms: N_31  and  C_32
REMARK                            x       y       z     vdW  Elec       q    Type
REMARK                         _______ _______ _______ _____ _____    ______ ____
ROOT
ATOM      1  C   UNL     1       1.572   8.068  19.864  0.00  0.00    +0.000 A 
ATOM      2  C   UNL     1       1.568   7.275  21.026  0.00  0.00    +0.000 A 
ATOM      3  C   UNL     1       1.765   5.890  20.980  0.00  0.00    +0.000 A 
ATOM      4  C   UNL     1       1.944   5.390  19.700  0.00  0.00    +0.000 A 
ATOM      5  C   UNL     1       2.479   6.150  18.661  0.00  0.00    +0.000 A 
ATOM      6  C   UNL     1       2.122   7.517  18.688  0.00  0.00    +0.000 A 
ATOM      7  C   UNL     1       2.788   5.177  17.662  0.00  0.00    +0.000 A 
ATOM      8  C   UNL     1       1.580   4.487  17.667  0.00  0.00    +0.000 A 
ATOM      9  N   UNL     1       1.514   4.253  19.047  0.00  0.00    +0.000 N 
ATOM     10  C   UNL     1       0.986   3.036  19.596  0.00  0.00    +0.000 C 
ENDROOT
BRANCH   1  16
ATOM     11  C   UNL     1       0.795  12.787  19.006  0.00  0.00    +0.000 A 
ATOM     12  C   UNL     1       1.874  12.940  18.160  0.00  0.00    +0.000 A 
ATOM     13  C   UNL     1       2.573  11.805  17.858  0.00  0.00    +0.000 A 
ATOM     14  N   UNL     1       2.280  10.608  18.378  0.00  0.00    +0.000 NA
ATOM     15  C   UNL     1       1.263  10.534  19.245  0.00  0.00    +0.000 A 
ATOM     16  N   UNL     1       1.002   9.350  19.930  0.00  0.00    +0.000 N 
ATOM     17  N   UNL     1       0.487  11.586  19.555  0.00  0.00    +0.000 NA
ATOM     18  H   UNL     1       0.162   9.455  20.479  0.00  0.00    +0.000 HD
BRANCH  11  22
ATOM     19  C   UNL     1      -1.767  16.089  20.081  0.00  0.00    +0.000 A 
ATOM     20  C   UNL     1      -0.730  16.272  19.171  0.00  0.00    +0.000 A 
ATOM     21  C   UNL     1       0.096  15.201  18.814  0.00  0.00    +0.000 A 
ATOM     22  C   UNL     1      -0.077  13.922  19.375  0.00  0.00    +0.000 A 
ATOM     23  C   UNL     1      -1.117  13.767  20.308  0.00  0.00    +0.000 A 
ATOM     24  C   UNL     1      -1.952  14.836  20.661  0.00  0.00    +0.000 A 
BRANCH  19  26
ATOM     25  C   UNL     1      -2.485  18.209  19.346  0.00  0.00    +0.000 C 
ATOM     26  O   UNL     1      -2.510  17.203  20.353  0.00  0.00    +0.000 OA
ENDBRANCH  19  26
ENDBRANCH  11  22
ENDBRANCH   1  16
BRANCH   7  27
ATOM     27  C   UNL     1       3.967   4.312  17.437  0.00  0.00    +0.000 C 
ATOM     28  O   UNL     1       3.910   3.353  16.660  0.00  0.00    +0.000 OA
BRANCH  27  29
ATOM     29  C   UNL     1       5.244   4.418  18.262  0.00  0.00    +0.000 C 
ATOM     30  O   UNL     1       5.300   3.870  19.364  0.00  0.00    +0.000 OA
ATOM     31  N   UNL     1       6.340   4.968  17.587  0.00  0.00    +0.000 N 
ATOM     32  C   UNL     1       7.683   4.895  18.141  0.00  0.00    +0.000 C 
ATOM     33  C   UNL     1       8.067   6.218  18.800  0.00  0.00    +0.000 C 
ATOM     34  C   UNL     1       7.776   7.416  17.886  0.00  0.00    +0.000 C 
ATOM     35  C   UNL     1       6.364   7.358  17.296  0.00  0.00    +0.000 C 
ATOM     36  C   UNL     1       6.141   6.020  16.598  0.00  0.00    +0.000 C 
ENDBRANCH  27  29
ENDBRANCH   7  27
TORSDOF 5
ENDMDL
MODEL 4
REMARK VINA RESULT:      -8.9      3.360     10.913
REMARK  Name = 
REMARK  7 active torsions:
REMARK  status: ('A' for Active; 'I' for Inactive)
REMARK    1  A    between atoms: C_1  and  O_2
REMARK    2  A    between atoms: O_2  and  C_3
REMARK    3  A    between atoms: C_6  and  C_7
REMARK    4  A    between atoms: N_12  and  C_13
REMARK    5  A    between atoms: C_19  and  C_20
REMARK    6  A    between atoms: C_20  and  C_22
REMARK    7  A    between atoms: N_31  and  C_32
REMARK                            x       y       z     vdW  Elec       q    Type
REMARK                         _______ _______ _______ _____ _____    ______ ____
ROOT
ATOM      1  C   UNL     1      -0.133  10.387  20.394  0.00  0.00    +0.000 A 
ATOM      2  C   UNL     1      -0.145  10.202  21.790  0.00  0.00    +0.000 A 
ATOM      3  C   UNL     1      -0.727  11.132  22.657  0.00  0.00    +0.000 A 
ATOM      4  C   UNL     1      -1.265  12.238  22.017  0.00  0.00    +0.000 A 
ATOM      5  C   UNL     1      -1.742  12.193  20.707  0.00  0.00    +0.000 A 
ATOM      6  C   UNL     1      -1.017  11.340  19.846  0.00  0.00    +0.000 A 
ATOM      7  C   UNL     1      -2.485  13.407  20.583  0.00  0.00    +0.000 A 
ATOM      8  C   UNL     1      -1.538  14.282  21.106  0.00  0.00    +0.000 A 
ATOM      9  N   UNL     1      -1.295  13.588  22.299  0.00  0.00    +0.000 N 
ATOM     10  C   UNL     1      -1.041  14.261  23.542  0.00  0.00    +0.000 C 
ENDROOT
BRANCH   1  16
ATOM     11  C   UNL     1       2.726   6.729  18.962  0.00  0.00    +0.000 A 
ATOM     12  C   UNL     1       2.476   5.936  20.062  0.00  0.00    +0.000 A 
ATOM     13  C   UNL     1       1.547   6.404  20.948  0.00  0.00    +0.000 A 
ATOM     14  N   UNL     1       0.935   7.585  20.807  0.00  0.00    +0.000 NA
ATOM     15  C   UNL     1       1.267   8.341  19.754  0.00  0.00    +0.000 A 
ATOM     16  N   UNL     1       0.776   9.637  19.630  0.00  0.00    +0.000 N 
ATOM     17  N   UNL     1       2.127   7.936  18.804  0.00  0.00    +0.000 NA
ATOM     18  H   UNL     1       1.068  10.028  18.746  0.00  0.00    +0.000 HD
BRANCH  11  22
ATOM     19  C   UNL     1       5.489   5.520  15.876  0.00  0.00    +0.000 A 
ATOM     20  C   UNL     1       5.239   6.870  16.105  0.00  0.00    +0.000 A 
ATOM     21  C   UNL     1       4.352   7.265  17.111  0.00  0.00    +0.000 A 
ATOM     22  C   UNL     1       3.670   6.320  17.900  0.00  0.00    +0.000 A 
ATOM     23  C   UNL     1       3.922   4.962  17.635  0.00  0.00    +0.000 A 
ATOM     24  C   UNL     1       4.818   4.564  16.635  0.00  0.00    +0.000 A 
BRANCH  19  26
ATOM     25  C   UNL     1       6.260   3.958  14.290  0.00  0.00    +0.000 C 
ATOM     26  O   UNL     1       6.376   5.252  14.870  0.00  0.00    +0.000 OA
ENDBRANCH  19  26
ENDBRANCH  11  22
ENDBRANCH   1  16
BRANCH   7  27
ATOM     27  C   UNL     1      -3.879  13.767  20.920  0.00  0.00    +0.000 C 
ATOM     28  O   UNL     1      -4.218  14.949  21.037  0.00  0.00    +0.000 OA
BRANCH  27  29
ATOM     29  C   UNL     1      -4.929  12.737  21.324  0.00  0.00    +0.000 C 
ATOM     30  O   UNL     1      -4.892  12.247  22.454  0.00  0.00    +0.000 OA
ATOM     31  N   UNL     1      -5.990  12.589  20.423  0.00  0.00    +0.000 N 
ATOM     32  C   UNL     1      -7.190  11.850  20.785  0.00  0.00    +0.000 C 
ATOM     33  C   UNL     1      -7.154  10.442  20.194  0.00  0.00    +0.000 C 
ATOM     34  C   UNL     1      -6.793  10.459  18.703  0.00  0.00    +0.000 C 
ATOM     35  C   UNL     1      -5.560  11.324  18.420  0.00  0.00    +0.000 C 
ATOM     36  C   UNL     1      -5.760  12.724  18.991  0.00  0.00    +0.000 C 
ENDBRANCH  27  29
ENDBRANCH   7  27
TORSDOF 5
ENDMDL
MODEL 5
REMARK VINA RESULT:      -8.8      2.310     10.651
REMARK  Name = 
REMARK  7 active torsions:
REMARK  status: ('A' for Active; 'I' for Inactive)
REMARK    1  A    between atoms: C_1  and  O_2
REMARK    2  A    between atoms: O_2  and  C_3
REMARK    3  A    between atoms: C_6  and  C_7
REMARK    4  A    between atoms: N_12  and  C_13
REMARK    5  A    between atoms: C_19  and  C_20
REMARK    6  A    between atoms: C_20  and  C_22
REMARK    7  A    between atoms: N_31  and  C_32
REMARK                            x       y       z     vdW  Elec       q    Type
REMARK                         _______ _______ _______ _____ _____    ______ ____
ROOT
ATOM      1  C   UNL     1       0.405  11.589  18.764  0.00  0.00    +0.000 A 
ATOM      2  C   UNL     1      -0.995  11.546  18.623  0.00  0.00    +0.000 A 
ATOM      3  C   UNL     1      -1.840  12.390  19.351  0.00  0.00    +0.000 A 
ATOM      4  C   UNL     1      -1.175  13.241  20.219  0.00  0.00    +0.000 A 
ATOM      5  C   UNL     1       0.131  13.677  19.994  0.00  0.00    +0.000 A 
ATOM      6  C   UNL     1       0.973  12.722  19.383  0.00  0.00    +0.000 A 
ATOM      7  C   UNL     1       0.283  14.759  20.916  0.00  0.00    +0.000 A 
ATOM      8  C   UNL     1      -0.212  14.129  22.054  0.00  0.00    +0.000 A 
ATOM      9  N   UNL     1      -1.422  13.687  21.501  0.00  0.00    +0.000 N 
ATOM     10  C   UNL     1      -2.645  13.656  22.253  0.00  0.00    +0.000 C 
ENDROOT
BRANCH   1  16
ATOM     11  C   UNL     1       2.610   7.261  18.701  0.00  0.00    +0.000 A 
ATOM     12  C   UNL     1       2.292   6.938  20.004  0.00  0.00    +0.000 A 
ATOM     13  C   UNL     1       1.485   7.820  20.667  0.00  0.00    +0.000 A 
ATOM     14  N   UNL     1       1.054   8.964  20.123  0.00  0.00    +0.000 NA
ATOM     15  C   UNL     1       1.449   9.254  18.878  0.00  0.00    +0.000 A 
ATOM     16  N   UNL     1       1.155  10.491  18.312  0.00  0.00    +0.000 N 
ATOM     17  N   UNL     1       2.194   8.420  18.134  0.00  0.00    +0.000 NA
ATOM     18  H   UNL     1       1.463  10.507  17.351  0.00  0.00    +0.000 HD
BRANCH  11  22
ATOM     19  C   UNL     1       5.009   4.677  16.213  0.00  0.00    +0.000 A 
ATOM     20  C   UNL     1       4.010   4.143  17.022  0.00  0.00    +0.000 A 
ATOM     21  C   UNL     1       3.224   4.980  17.821  0.00  0.00    +0.000 A 
ATOM     22  C   UNL     1       3.433   6.371  17.854  0.00  0.00    +0.000 A 
ATOM     23  C   UNL     1       4.462   6.884  17.046  0.00  0.00    +0.000 A 
ATOM     24  C   UNL     1       5.244   6.049  16.236  0.00  0.00    +0.000 A 
BRANCH  19  26
ATOM     25  C   UNL     1       6.541   4.321  14.459  0.00  0.00    +0.000 C 
ATOM     26  O   UNL     1       5.711   3.767  15.473  0.00  0.00    +0.000 OA
ENDBRANCH  19  26
ENDBRANCH  11  22
ENDBRANCH   1  16
BRANCH   7  27
ATOM     27  C   UNL     1      -0.053  16.197  20.837  0.00  0.00    +0.000 C 
ATOM     28  O   UNL     1      -0.341  16.837  21.853  0.00  0.00    +0.000 OA
BRANCH  27  29
ATOM     29  C   UNL     1      -0.251  16.932  19.516  0.00  0.00    +0.000 C 
ATOM     30  O   UNL     1      -1.379  17.003  19.025  0.00  0.00    +0.000 OA
ATOM     31  N   UNL     1       0.861  17.657  19.071  0.00  0.00    +0.000 N 
ATOM     32  C   UNL     1       0.752  18.614  17.980  0.00  0.00    +0.000 C 
ATOM     33  C   UNL     1       1.260  18.003  16.675  0.00  0.00    +0.000 C 
ATOM     34  C   UNL     1       2.629  17.334  16.854  0.00  0.00    +0.000 C 
ATOM     35  C   UNL     1       2.659  16.405  18.072  0.00  0.00    +0.000 C 
ATOM     36  C   UNL     1       2.208  17.160  19.319  0.00  0.00    +0.000 C 
ENDBRANCH  27  29
ENDBRANCH   7  27
TORSDOF 5
ENDMDL
MODEL 6
REMARK VINA RESULT:      -8.8      2.280     10.700
REMARK  Name = 
REMARK  7 active torsions:
REMARK  status: ('A' for Active; 'I' for Inactive)
REMARK    1  A    between atoms: C_1  and  O_2
REMARK    2  A    between atoms: O_2  and  C_3
REMARK    3  A    between atoms: C_6  and  C_7
REMARK    4  A    between atoms: N_12  and  C_13
REMARK    5  A    between atoms: C_19  and  C_20
REMARK    6  A    between atoms: C_20  and  C_22
REMARK    7  A    between atoms: N_31  and  C_32
REMARK                            x       y       z     vdW  Elec       q    Type
REMARK                         _______ _______ _______ _____ _____    ______ ____
ROOT
ATOM      1  C   UNL     1       0.433  11.253  19.189  0.00  0.00    +0.000 A 
ATOM      2  C   UNL     1      -0.796  11.562  18.576  0.00  0.00    +0.000 A 
ATOM      3  C   UNL     1      -1.787  12.300  19.230  0.00  0.00    +0.000 A 
ATOM      4  C   UNL     1      -1.450  12.674  20.521  0.00  0.00    +0.000 A 
ATOM      5  C   UNL     1      -0.131  12.864  20.932  0.00  0.00    +0.000 A 
ATOM      6  C   UNL     1       0.802  11.987  20.336  0.00  0.00    +0.000 A 
ATOM      7  C   UNL     1      -0.266  13.546  22.180  0.00  0.00    +0.000 A 
ATOM      8  C   UNL     1      -1.220  12.718  22.764  0.00  0.00    +0.000 A 
ATOM      9  N   UNL     1      -2.145  12.743  21.711  0.00  0.00    +0.000 N 
ATOM     10  C   UNL     1      -3.564  12.747  21.934  0.00  0.00    +0.000 C 
ENDROOT
BRANCH   1  16
ATOM     11  C   UNL     1       2.710   6.984  18.753  0.00  0.00    +0.000 A 
ATOM     12  C   UNL     1       2.380   6.536  20.015  0.00  0.00    +0.000 A 
ATOM     13  C   UNL     1       1.550   7.339  20.745  0.00  0.00    +0.000 A 
ATOM     14  N   UNL     1       1.107   8.522  20.305  0.00  0.00    +0.000 NA
ATOM     15  C   UNL     1       1.514   8.934  19.099  0.00  0.00    +0.000 A 
ATOM     16  N   UNL     1       1.207  10.214  18.647  0.00  0.00    +0.000 N 
ATOM     17  N   UNL     1       2.283   8.185  18.290  0.00  0.00    +0.000 NA
ATOM     18  H   UNL     1       1.528  10.325  17.696  0.00  0.00    +0.000 HD
BRANCH  11  22
ATOM     19  C   UNL     1       5.183   4.682  16.068  0.00  0.00    +0.000 A 
ATOM     20  C   UNL     1       4.284   4.043  16.917  0.00  0.00    +0.000 A 
ATOM     21  C   UNL     1       3.474   4.787  17.781  0.00  0.00    +0.000 A 
ATOM     22  C   UNL     1       3.559   6.191  17.838  0.00  0.00    +0.000 A 
ATOM     23  C   UNL     1       4.489   6.812  16.987  0.00  0.00    +0.000 A 
ATOM     24  C   UNL     1       5.295   6.069  16.113  0.00  0.00    +0.000 A 
BRANCH  19  26
ATOM     25  C   UNL     1       5.828   4.124  13.872  0.00  0.00    +0.000 C 
ATOM     26  O   UNL     1       5.919   3.855  15.266  0.00  0.00    +0.000 OA
ENDBRANCH  19  26
ENDBRANCH  11  22
ENDBRANCH   1  16
BRANCH   7  27
ATOM     27  C   UNL     1      -0.423  14.975  22.529  0.00  0.00    +0.000 C 
ATOM     28  O   UNL     1       0.032  15.423  23.586  0.00  0.00    +0.000 OA
BRANCH  27  29
ATOM     29  C   UNL     1      -1.297  15.934  21.729  0.00  0.00    +0.000 C 
ATOM     30  O   UNL     1      -2.498  16.023  21.992  0.00  0.00    +0.000 OA
ATOM     31  N   UNL     1      -0.599  16.803  20.882  0.00  0.00    +0.000 N 
ATOM     32  C   UNL     1      -1.257  17.941  20.258  0.00  0.00    +0.000 C 
ATOM     33  C   UNL     1      -1.618  17.625  18.808  0.00  0.00    +0.000 C 
ATOM     34  C   UNL     1      -0.431  17.027  18.042  0.00  0.00    +0.000 C 
ATOM     35  C   UNL     1       0.236  15.887  18.817  0.00  0.00    +0.000 C 
ATOM     36  C   UNL     1       0.619  16.358  20.217  0.00  0.00    +0.000 C 
ENDBRANCH  27  29
ENDBRANCH   7  27
TORSDOF 5
ENDMDL
MODEL 7
REMARK VINA RESULT:      -8.5      1.525      2.284
REMARK  Name = 
REMARK  7 active torsions:
REMARK  status: ('A' for Active; 'I' for Inactive)
REMARK    1  A    between atoms: C_1  and  O_2
REMARK    2  A    between atoms: O_2  and  C_3
REMARK    3  A    between atoms: C_6  and  C_7
REMARK    4  A    between atoms: N_12  and  C_13
REMARK    5  A    between atoms: C_19  and  C_20
REMARK    6  A    between atoms: C_20  and  C_22
REMARK    7  A    between atoms: N_31  and  C_32
REMARK                            x       y       z     vdW  Elec       q    Type
REMARK                         _______ _______ _______ _____ _____    ______ ____
ROOT
ATOM      1  C   UNL     1       1.518   7.205  20.519  0.00  0.00    +0.000 A 
ATOM      2  C   UNL     1       1.487   6.118  21.412  0.00  0.00    +0.000 A 
ATOM      3  C   UNL     1       1.713   4.803  20.990  0.00  0.00    +0.000 A 
ATOM      4  C   UNL     1       1.947   4.682  19.629  0.00  0.00    +0.000 A 
ATOM      5  C   UNL     1       2.505   5.708  18.866  0.00  0.00    +0.000 A 
ATOM      6  C   UNL     1       2.121   7.009  19.259  0.00  0.00    +0.000 A 
ATOM      7  C   UNL     1       2.869   5.055  17.648  0.00  0.00    +0.000 A 
ATOM      8  C   UNL     1       1.675   4.382  17.411  0.00  0.00    +0.000 A 
ATOM      9  N   UNL     1       1.564   3.770  18.668  0.00  0.00    +0.000 N 
ATOM     10  C   UNL     1       1.039   2.444  18.834  0.00  0.00    +0.000 C 
ENDROOT
BRANCH   1  16
ATOM     11  C   UNL     1       0.070  11.842  20.449  0.00  0.00    +0.000 A 
ATOM     12  C   UNL     1       0.688  12.149  19.255  0.00  0.00    +0.000 A 
ATOM     13  C   UNL     1       1.293  11.112  18.602  0.00  0.00    +0.000 A 
ATOM     14  N   UNL     1       1.341   9.868  19.093  0.00  0.00    +0.000 NA
ATOM     15  C   UNL     1       0.779   9.645  20.288  0.00  0.00    +0.000 A 
ATOM     16  N   UNL     1       0.922   8.412  20.918  0.00  0.00    +0.000 N 
ATOM     17  N   UNL     1       0.115  10.592  20.973  0.00  0.00    +0.000 NA
ATOM     18  H   UNL     1       0.376   8.400  21.767  0.00  0.00    +0.000 HD
BRANCH  11  22
ATOM     19  C   UNL     1      -2.063  14.821  22.729  0.00  0.00    +0.000 A 
ATOM     20  C   UNL     1      -1.608  13.659  23.344  0.00  0.00    +0.000 A 
ATOM     21  C   UNL     1      -0.907  12.696  22.610  0.00  0.00    +0.000 A 
ATOM     22  C   UNL     1      -0.664  12.857  21.233  0.00  0.00    +0.000 A 
ATOM     23  C   UNL     1      -1.153  14.029  20.629  0.00  0.00    +0.000 A 
ATOM     24  C   UNL     1      -1.846  14.999  21.365  0.00  0.00    +0.000 A 
BRANCH  19  26
ATOM     25  C   UNL     1      -2.929  15.240  24.879  0.00  0.00    +0.000 C 
ATOM     26  O   UNL     1      -2.731  15.691  23.544  0.00  0.00    +0.000 OA
ENDBRANCH  19  26
ENDBRANCH  11  22
ENDBRANCH   1  16
BRANCH   7  27
ATOM     27  C   UNL     1       4.071   4.298  17.238  0.00  0.00    +0.000 C 
ATOM     28  O   UNL     1       4.038   3.532  16.270  0.00  0.00    +0.000 OA
BRANCH  27  29
ATOM     29  C   UNL     1       5.351   4.260  18.065  0.00  0.00    +0.000 C 
ATOM     30  O   UNL     1       5.399   3.554  19.074  0.00  0.00    +0.000 OA
ATOM     31  N   UNL     1       6.455   4.887  17.475  0.00  0.00    +0.000 N 
ATOM     32  C   UNL     1       7.798   4.711  18.009  0.00  0.00    +0.000 C 
ATOM     33  C   UNL     1       8.203   5.915  18.856  0.00  0.00    +0.000 C 
ATOM     34  C   UNL     1       7.931   7.240  18.130  0.00  0.00    +0.000 C 
ATOM     35  C   UNL     1       6.517   7.293  17.543  0.00  0.00    +0.000 C 
ATOM     36  C   UNL     1       6.272   6.076  16.655  0.00  0.00    +0.000 C 
ENDBRANCH  27  29
ENDBRANCH   7  27
TORSDOF 5
ENDMDL
MODEL 8
REMARK VINA RESULT:      -8.5      5.625     11.781
REMARK  Name = 
REMARK  7 active torsions:
REMARK  status: ('A' for Active; 'I' for Inactive)
REMARK    1  A    between atoms: C_1  and  O_2
REMARK    2  A    between atoms: O_2  and  C_3
REMARK    3  A    between atoms: C_6  and  C_7
REMARK    4  A    between atoms: N_12  and  C_13
REMARK    5  A    between atoms: C_19  and  C_20
REMARK    6  A    between atoms: C_20  and  C_22
REMARK    7  A    between atoms: N_31  and  C_32
REMARK                            x       y       z     vdW  Elec       q    Type
REMARK                         _______ _______ _______ _____ _____    ______ ____
ROOT
ATOM      1  C   UNL     1       8.575  10.191  18.093  0.00  0.00    +0.000 A 
ATOM      2  C   UNL     1       9.331   9.872  19.237  0.00  0.00    +0.000 A 
ATOM      3  C   UNL     1      10.106  10.826  19.905  0.00  0.00    +0.000 A 
ATOM      4  C   UNL     1      10.068  12.085  19.327  0.00  0.00    +0.000 A 
ATOM      5  C   UNL     1       8.977  12.544  18.590  0.00  0.00    +0.000 A 
ATOM      6  C   UNL     1       8.325  11.553  17.824  0.00  0.00    +0.000 A 
ATOM      7  C   UNL     1       9.216  13.949  18.484  0.00  0.00    +0.000 A 
ATOM      8  C   UNL     1      10.546  13.901  18.080  0.00  0.00    +0.000 A 
ATOM      9  N   UNL     1      11.013  13.065  19.104  0.00  0.00    +0.000 N 
ATOM     10  C   UNL     1      12.311  13.226  19.696  0.00  0.00    +0.000 C 
ENDROOT
BRANCH   1  16
ATOM     11  C   UNL     1       7.236   5.749  16.650  0.00  0.00    +0.000 A 
ATOM     12  C   UNL     1       7.476   5.144  17.866  0.00  0.00    +0.000 A 
ATOM     13  C   UNL     1       7.845   5.969  18.891  0.00  0.00    +0.000 A 
ATOM     14  N   UNL     1       8.019   7.287  18.740  0.00  0.00    +0.000 NA
ATOM     15  C   UNL     1       7.835   7.807  17.521  0.00  0.00    +0.000 A 
ATOM     16  N   UNL     1       8.140   9.141  17.267  0.00  0.00    +0.000 N 
ATOM     17  N   UNL     1       7.417   7.081  16.470  0.00  0.00    +0.000 NA
ATOM     18  H   UNL     1       7.872   9.378  16.323  0.00  0.00    +0.000 HD
BRANCH  11  22
ATOM     19  C   UNL     1       5.908   3.493  13.219  0.00  0.00    +0.000 A 
ATOM     20  C   UNL     1       6.981   4.373  13.109  0.00  0.00    +0.000 A 
ATOM     21  C   UNL     1       7.420   5.097  14.222  0.00  0.00    +0.000 A 
ATOM     22  C   UNL     1       6.782   4.982  15.471  0.00  0.00    +0.000 A 
ATOM     23  C   UNL     1       5.686   4.104  15.552  0.00  0.00    +0.000 A 
ATOM     24  C   UNL     1       5.251   3.369  14.441  0.00  0.00    +0.000 A 
BRANCH  19  26
ATOM     25  C   UNL     1       4.334   3.235  11.486  0.00  0.00    +0.000 C 
ATOM     26  O   UNL     1       5.569   2.837  12.069  0.00  0.00    +0.000 OA
ENDBRANCH  19  26
ENDBRANCH  11  22
ENDBRANCH   1  16
BRANCH   7  27
ATOM     27  C   UNL     1       8.904  15.088  19.374  0.00  0.00    +0.000 C 
ATOM     28  O   UNL     1       9.676  16.047  19.471  0.00  0.00    +0.000 OA
BRANCH  27  29
ATOM     29  C   UNL     1       7.736  15.081  20.355  0.00  0.00    +0.000 C 
ATOM     30  O   UNL     1       7.892  14.598  21.478  0.00  0.00    +0.000 OA
ATOM     31  N   UNL     1       6.622  15.828  19.953  0.00  0.00    +0.000 N 
ATOM     32  C   UNL     1       5.545  16.135  20.881  0.00  0.00    +0.000 C 
ATOM     33  C   UNL     1       4.361  15.194  20.662  0.00  0.00    +0.000 C 
ATOM     34  C   UNL     1       3.974  15.101  19.181  0.00  0.00    +0.000 C 
ATOM     35  C   UNL     1       5.189  14.851  18.283  0.00  0.00    +0.000 C 
ATOM     36  C   UNL     1       6.260  15.906  18.545  0.00  0.00    +0.000 C 
ENDBRANCH  27  29
ENDBRANCH   7  27
TORSDOF 5
ENDMDL
MODEL 9
REMARK VINA RESULT:      -8.3      2.698     11.133
REMARK  Name = 
REMARK  7 active torsions:
REMARK  status: ('A' for Active; 'I' for Inactive)
REMARK    1  A    between atoms: C_1  and  O_2
REMARK    2  A    between atoms: O_2  and  C_3
REMARK    3  A    between atoms: C_6  and  C_7
REMARK    4  A    between atoms: N_12  and  C_13
REMARK    5  A    between atoms: C_19  and  C_20
REMARK    6  A    between atoms: C_20  and  C_22
REMARK    7  A    between atoms: N_31  and  C_32
REMARK                            x       y       z     vdW  Elec       q    Type
REMARK                         _______ _______ _______ _____ _____    ______ ____
ROOT
ATOM      1  C   UNL     1       0.473  11.024  18.682  0.00  0.00    +0.000 A 
ATOM      2  C   UNL     1      -0.870  11.107  18.269  0.00  0.00    +0.000 A 
ATOM      3  C   UNL     1      -1.817  11.862  18.969  0.00  0.00    +0.000 A 
ATOM      4  C   UNL     1      -1.313  12.492  20.095  0.00  0.00    +0.000 A 
ATOM      5  C   UNL     1       0.025  12.868  20.214  0.00  0.00    +0.000 A 
ATOM      6  C   UNL     1       0.941  11.982  19.605  0.00  0.00    +0.000 A 
ATOM      7  C   UNL     1       0.024  13.751  21.338  0.00  0.00    +0.000 A 
ATOM      8  C   UNL     1      -0.712  12.962  22.217  0.00  0.00    +0.000 A 
ATOM      9  N   UNL     1      -1.799  12.715  21.367  0.00  0.00    +0.000 N 
ATOM     10  C   UNL     1      -3.149  12.634  21.850  0.00  0.00    +0.000 C 
ENDROOT
BRANCH   1  16
ATOM     11  C   UNL     1       2.921   6.833  18.460  0.00  0.00    +0.000 A 
ATOM     12  C   UNL     1       2.688   6.481  19.774  0.00  0.00    +0.000 A 
ATOM     13  C   UNL     1       1.866   7.309  20.485  0.00  0.00    +0.000 A 
ATOM     14  N   UNL     1       1.341   8.430  19.977  0.00  0.00    +0.000 NA
ATOM     15  C   UNL     1       1.655   8.753  18.717  0.00  0.00    +0.000 A 
ATOM     16  N   UNL     1       1.262   9.976  18.181  0.00  0.00    +0.000 N 
ATOM     17  N   UNL     1       2.410   7.970  17.927  0.00  0.00    +0.000 NA
ATOM     18  H   UNL     1       1.520  10.017  17.206  0.00  0.00    +0.000 HD
BRANCH  11  22
ATOM     19  C   UNL     1       5.344   4.390  15.856  0.00  0.00    +0.000 A 
ATOM     20  C   UNL     1       5.460   5.777  15.827  0.00  0.00    +0.000 A 
ATOM     21  C   UNL     1       4.683   6.570  16.677  0.00  0.00    +0.000 A 
ATOM     22  C   UNL     1       3.750   6.000  17.563  0.00  0.00    +0.000 A 
ATOM     23  C   UNL     1       3.634   4.599  17.559  0.00  0.00    +0.000 A 
ATOM     24  C   UNL     1       4.419   3.801  16.715  0.00  0.00    +0.000 A 
BRANCH  19  26
ATOM     25  C   UNL     1       6.679   4.499  13.918  0.00  0.00    +0.000 C 
ATOM     26  O   UNL     1       6.154   3.717  14.985  0.00  0.00    +0.000 OA
ENDBRANCH  19  26
ENDBRANCH  11  22
ENDBRANCH   1  16
BRANCH   7  27
ATOM     27  C   UNL     1      -0.241  15.200  21.473  0.00  0.00    +0.000 C 
ATOM     28  O   UNL     1      -0.429  15.905  20.476  0.00  0.00    +0.000 OA
BRANCH  27  29
ATOM     29  C   UNL     1      -0.117  15.948  22.795  0.00  0.00    +0.000 C 
ATOM     30  O   UNL     1       0.982  16.022  23.348  0.00  0.00    +0.000 OA
ATOM     31  N   UNL     1      -1.251  16.678  23.170  0.00  0.00    +0.000 N 
ATOM     32  C   UNL     1      -1.202  17.645  24.256  0.00  0.00    +0.000 C 
ATOM     33  C   UNL     1      -1.784  17.047  25.536  0.00  0.00    +0.000 C 
ATOM     34  C   UNL     1      -3.141  16.378  25.286  0.00  0.00    +0.000 C 
ATOM     35  C   UNL     1      -3.105  15.438  24.077  0.00  0.00    +0.000 C 
ATOM     36  C   UNL     1      -2.582  16.181  22.851  0.00  0.00    +0.000 C 
ENDBRANCH  27  29
ENDBRANCH   7  27
TORSDOF 5
ENDMDL
