MODEL 1
REMARK VINA RESULT:      -8.1      0.000      0.000
REMARK  Name = 
REMARK  5 active torsions:
REMARK  status: ('A' for Active; 'I' for Inactive)
REMARK    1  A    between atoms: C_2  and  C_11
REMARK    2  A    between atoms: N_3  and  C_4
REMARK    3  A    between atoms: C_16  and  S_17
REMARK    4  A    between atoms: S_17  and  C_18
REMARK    5  A    between atoms: C_21  and  N_22
REMARK                            x       y       z     vdW  Elec       q    Type
REMARK                         _______ _______ _______ _____ _____    ______ ____
ROOT
ATOM      1  C   UNL     1       2.505   3.621  18.613  0.00  0.00    +0.000 A 
ATOM      2  C   UNL     1       1.701   2.472  18.761  0.00  0.00    +0.000 A 
ATOM      3  C   UNL     1       0.978   2.246  19.930  0.00  0.00    +0.000 A 
ATOM      4  C   UNL     1       1.044   3.172  20.961  0.00  0.00    +0.000 A 
ATOM      5  C   UNL     1       1.818   4.329  20.817  0.00  0.00    +0.000 A 
ATOM      6  C   UNL     1       2.551   4.580  19.642  0.00  0.00    +0.000 A 
ENDROOT
BRANCH   1   8
ATOM      7  O   UNL     1       2.518   3.568  16.298  0.00  0.00    +0.000 OA
ATOM      8  C   UNL     1       3.204   3.723  17.303  0.00  0.00    +0.000 C 
ATOM      9  N   UNL     1       4.572   3.918  17.328  0.00  0.00    +0.000 N 
ATOM     10  H   UNL     1       5.031   3.926  18.235  0.00  0.00    +0.000 HD
BRANCH   9  11
ATOM     11  C   UNL     1       5.420   4.134  16.210  0.00  0.00    +0.000 A 
ATOM     12  C   UNL     1       5.091   3.669  14.930  0.00  0.00    +0.000 A 
ATOM     13  C   UNL     1       5.909   3.936  13.828  0.00  0.00    +0.000 A 
ATOM     14  C   UNL     1       7.070   4.679  13.986  0.00  0.00    +0.000 A 
ATOM     15  C   UNL     1       7.429   5.138  15.252  0.00  0.00    +0.000 A 
ATOM     16  C   UNL     1       6.612   4.863  16.360  0.00  0.00    +0.000 A 
ATOM     17  I   UNL     1       7.278   5.551  18.231  0.00  0.00    +0.000 I 
ENDBRANCH   9  11
ENDBRANCH   1   8
BRANCH   6  18
ATOM     18  S   UNL     1       3.551   6.064  19.619  0.00  0.00    +0.000 S 
BRANCH  18  19
ATOM     19  C   UNL     1       2.369   7.382  19.387  0.00  0.00    +0.000 A 
ATOM     20  C   UNL     1       1.647   7.857  20.493  0.00  0.00    +0.000 A 
ATOM     21  C   UNL     1       0.826   8.985  20.384  0.00  0.00    +0.000 A 
ATOM     22  C   UNL     1       0.728   9.653  19.159  0.00  0.00    +0.000 A 
ATOM     23  C   UNL     1       1.434   9.185  18.042  0.00  0.00    +0.000 A 
ATOM     24  C   UNL     1       2.253   8.054  18.162  0.00  0.00    +0.000 A 
BRANCH  22  25
ATOM     25  N   UNL     1      -0.093  10.867  19.047  0.00  0.00    +0.000 N 
ATOM     26  O   UNL     1       0.446  11.886  18.588  0.00  0.00    +0.000 OA
ATOM     27  O   UNL     1      -1.276  10.803  19.415  0.00  0.00    +0.000 OA
ENDBRANCH  22  25
ENDBRANCH  18  19
ENDBRANCH   6  18
TORSDOF 5
ENDMDL
MODEL 2
REMARK VINA RESULT:      -8.0      3.330      6.190
REMARK  Name = 
REMARK  5 active torsions:
REMARK  status: ('A' for Active; 'I' for Inactive)
REMARK    1  A    between atoms: C_2  and  C_11
REMARK    2  A    between atoms: N_3  and  C_4
REMARK    3  A    between atoms: C_16  and  S_17
REMARK    4  A    between atoms: S_17  and  C_18
REMARK    5  A    between atoms: C_21  and  N_22
REMARK                            x       y       z     vdW  Elec       q    Type
REMARK                         _______ _______ _______ _____ _____    ______ ____
ROOT
ATOM      1  C   UNL     1       2.122   4.438  19.680  0.00  0.00    +0.000 A 
ATOM      2  C   UNL     1       1.567   4.371  20.975  0.00  0.00    +0.000 A 
ATOM      3  C   UNL     1       1.690   3.221  21.750  0.00  0.00    +0.000 A 
ATOM      4  C   UNL     1       2.377   2.128  21.243  0.00  0.00    +0.000 A 
ATOM      5  C   UNL     1       2.954   2.190  19.970  0.00  0.00    +0.000 A 
ATOM      6  C   UNL     1       2.848   3.344  19.172  0.00  0.00    +0.000 A 
ENDROOT
BRANCH   1   8
ATOM      7  O   UNL     1       1.606   5.685  17.798  0.00  0.00    +0.000 OA
ATOM      8  C   UNL     1       1.916   5.738  18.984  0.00  0.00    +0.000 C 
ATOM      9  N   UNL     1       2.153   6.889  19.710  0.00  0.00    +0.000 N 
ATOM     10  H   UNL     1       2.507   6.786  20.658  0.00  0.00    +0.000 HD
BRANCH   9  11
ATOM     11  C   UNL     1       1.934   8.225  19.280  0.00  0.00    +0.000 A 
ATOM     12  C   UNL     1       2.496   8.724  18.098  0.00  0.00    +0.000 A 
ATOM     13  C   UNL     1       2.228  10.024  17.658  0.00  0.00    +0.000 A 
ATOM     14  C   UNL     1       1.386  10.847  18.392  0.00  0.00    +0.000 A 
ATOM     15  C   UNL     1       0.828  10.380  19.580  0.00  0.00    +0.000 A 
ATOM     16  C   UNL     1       1.103   9.079  20.026  0.00  0.00    +0.000 A 
ATOM     17  I   UNL     1       0.257   8.498  21.861  0.00  0.00    +0.000 I 
ENDBRANCH   9  11
ENDBRANCH   1   8
BRANCH   6  18
ATOM     18  S   UNL     1       3.575   3.264  17.539  0.00  0.00    +0.000 S 
BRANCH  18  19
ATOM     19  C   UNL     1       4.921   4.436  17.603  0.00  0.00    +0.000 A 
ATOM     20  C   UNL     1       5.046   5.392  16.583  0.00  0.00    +0.000 A 
ATOM     21  C   UNL     1       5.992   6.418  16.674  0.00  0.00    +0.000 A 
ATOM     22  C   UNL     1       6.819   6.500  17.799  0.00  0.00    +0.000 A 
ATOM     23  C   UNL     1       6.714   5.547  18.821  0.00  0.00    +0.000 A 
ATOM     24  C   UNL     1       5.763   4.522  18.720  0.00  0.00    +0.000 A 
BRANCH  22  25
ATOM     25  N   UNL     1       7.782   7.603  17.926  0.00  0.00    +0.000 N 
ATOM     26  O   UNL     1       7.705   8.531  17.106  0.00  0.00    +0.000 OA
ATOM     27  O   UNL     1       8.614   7.544  18.843  0.00  0.00    +0.000 OA
ENDBRANCH  22  25
ENDBRANCH  18  19
ENDBRANCH   6  18
TORSDOF 5
ENDMDL
MODEL 3
REMARK VINA RESULT:      -7.9      2.958      7.147
REMARK  Name = 
REMARK  5 active torsions:
REMARK  status: ('A' for Active; 'I' for Inactive)
REMARK    1  A    between atoms: C_2  and  C_11
REMARK    2  A    between atoms: N_3  and  C_4
REMARK    3  A    between atoms: C_16  and  S_17
REMARK    4  A    between atoms: S_17  and  C_18
REMARK    5  A    between atoms: C_21  and  N_22
REMARK                            x       y       z     vdW  Elec       q    Type
REMARK                         _______ _______ _______ _____ _____    ______ ____
ROOT
ATOM      1  C   UNL     1       2.644   5.197  19.219  0.00  0.00    +0.000 A 
ATOM      2  C   UNL     1       1.379   4.599  19.390  0.00  0.00    +0.000 A 
ATOM      3  C   UNL     1       1.259   3.271  19.792  0.00  0.00    +0.000 A 
ATOM      4  C   UNL     1       2.405   2.529  20.037  0.00  0.00    +0.000 A 
ATOM      5  C   UNL     1       3.667   3.117  19.895  0.00  0.00    +0.000 A 
ATOM      6  C   UNL     1       3.810   4.459  19.497  0.00  0.00    +0.000 A 
ENDROOT
BRANCH   1   8
ATOM      7  O   UNL     1       3.254   6.924  17.802  0.00  0.00    +0.000 OA
ATOM      8  C   UNL     1       2.603   6.624  18.798  0.00  0.00    +0.000 C 
ATOM      9  N   UNL     1       1.893   7.500  19.596  0.00  0.00    +0.000 N 
ATOM     10  H   UNL     1       1.486   7.134  20.453  0.00  0.00    +0.000 HD
BRANCH   9  11
ATOM     11  C   UNL     1       1.647   8.875  19.339  0.00  0.00    +0.000 A 
ATOM     12  C   UNL     1       2.119   9.508  18.183  0.00  0.00    +0.000 A 
ATOM     13  C   UNL     1       1.822  10.849  17.915  0.00  0.00    +0.000 A 
ATOM     14  C   UNL     1       1.041  11.578  18.800  0.00  0.00    +0.000 A 
ATOM     15  C   UNL     1       0.573  10.976  19.966  0.00  0.00    +0.000 A 
ATOM     16  C   UNL     1       0.878   9.634  20.239  0.00  0.00    +0.000 A 
ATOM     17  I   UNL     1       0.172   8.843  22.054  0.00  0.00    +0.000 I 
ENDBRANCH   9  11
ENDBRANCH   1   8
BRANCH   6  18
ATOM     18  S   UNL     1       5.481   5.063  19.291  0.00  0.00    +0.000 S 
BRANCH  18  19
ATOM     19  C   UNL     1       5.881   4.668  17.596  0.00  0.00    +0.000 A 
ATOM     20  C   UNL     1       4.857   4.260  16.727  0.00  0.00    +0.000 A 
ATOM     21  C   UNL     1       5.101   4.088  15.360  0.00  0.00    +0.000 A 
ATOM     22  C   UNL     1       6.380   4.331  14.850  0.00  0.00    +0.000 A 
ATOM     23  C   UNL     1       7.416   4.729  15.706  0.00  0.00    +0.000 A 
ATOM     24  C   UNL     1       7.162   4.898  17.074  0.00  0.00    +0.000 A 
BRANCH  22  25
ATOM     25  N   UNL     1       6.634   4.200  13.408  0.00  0.00    +0.000 N 
ATOM     26  O   UNL     1       5.972   3.359  12.782  0.00  0.00    +0.000 OA
ATOM     27  O   UNL     1       7.493   4.937  12.901  0.00  0.00    +0.000 OA
ENDBRANCH  22  25
ENDBRANCH  18  19
ENDBRANCH   6  18
TORSDOF 5
ENDMDL
MODEL 4
REMARK VINA RESULT:      -7.9      2.969      7.024
REMARK  Name = 
REMARK  5 active torsions:
REMARK  status: ('A' for Active; 'I' for Inactive)
REMARK    1  A    between atoms: C_2  and  C_11
REMARK    2  A    between atoms: N_3  and  C_4
REMARK    3  A    between atoms: C_16  and  S_17
REMARK    4  A    between atoms: S_17  and  C_18
REMARK    5  A    between atoms: C_21  and  N_22
REMARK                            x       y       z     vdW  Elec       q    Type
REMARK                         _______ _______ _______ _____ _____    ______ ____
ROOT
ATOM      1  C   UNL     1       2.576   5.127  19.175  0.00  0.00    +0.000 A 
ATOM      2  C   UNL     1       1.317   4.502  19.298  0.00  0.00    +0.000 A 
ATOM      3  C   UNL     1       1.209   3.182  19.728  0.00  0.00    +0.000 A 
ATOM      4  C   UNL     1       2.358   2.474  20.049  0.00  0.00    +0.000 A 
ATOM      5  C   UNL     1       3.612   3.090  19.955  0.00  0.00    +0.000 A 
ATOM      6  C   UNL     1       3.743   4.425  19.530  0.00  0.00    +0.000 A 
ENDROOT
BRANCH   1   8
ATOM      7  O   UNL     1       3.044   6.790  17.633  0.00  0.00    +0.000 OA
ATOM      8  C   UNL     1       2.522   6.542  18.716  0.00  0.00    +0.000 C 
ATOM      9  N   UNL     1       1.951   7.465  19.571  0.00  0.00    +0.000 N 
ATOM     10  H   UNL     1       1.650   7.138  20.486  0.00  0.00    +0.000 HD
BRANCH   9  11
ATOM     11  C   UNL     1       1.714   8.838  19.303  0.00  0.00    +0.000 A 
ATOM     12  C   UNL     1       2.248   9.476  18.176  0.00  0.00    +0.000 A 
ATOM     13  C   UNL     1       1.961  10.816  17.894  0.00  0.00    +0.000 A 
ATOM     14  C   UNL     1       1.130  11.541  18.735  0.00  0.00    +0.000 A 
ATOM     15  C   UNL     1       0.600  10.935  19.873  0.00  0.00    +0.000 A 
ATOM     16  C   UNL     1       0.894   9.593  20.159  0.00  0.00    +0.000 A 
ATOM     17  I   UNL     1       0.091   8.797  21.931  0.00  0.00    +0.000 I 
ENDBRANCH   9  11
ENDBRANCH   1   8
BRANCH   6  18
ATOM     18  S   UNL     1       5.408   5.066  19.392  0.00  0.00    +0.000 S 
BRANCH  18  19
ATOM     19  C   UNL     1       5.746   5.025  17.639  0.00  0.00    +0.000 A 
ATOM     20  C   UNL     1       6.778   5.823  17.121  0.00  0.00    +0.000 A 
ATOM     21  C   UNL     1       7.173   5.707  15.784  0.00  0.00    +0.000 A 
ATOM     22  C   UNL     1       6.537   4.779  14.952  0.00  0.00    +0.000 A 
ATOM     23  C   UNL     1       5.497   3.983  15.451  0.00  0.00    +0.000 A 
ATOM     24  C   UNL     1       5.108   4.107  16.793  0.00  0.00    +0.000 A 
BRANCH  22  25
ATOM     25  N   UNL     1       6.977   4.616  13.560  0.00  0.00    +0.000 N 
ATOM     26  O   UNL     1       7.813   5.422  13.123  0.00  0.00    +0.000 OA
ATOM     27  O   UNL     1       6.491   3.684  12.903  0.00  0.00    +0.000 OA
ENDBRANCH  22  25
ENDBRANCH  18  19
ENDBRANCH   6  18
TORSDOF 5
ENDMDL
MODEL 5
REMARK VINA RESULT:      -7.8      0.702      1.317
REMARK  Name = 
REMARK  5 active torsions:
REMARK  status: ('A' for Active; 'I' for Inactive)
REMARK    1  A    between atoms: C_2  and  C_11
REMARK    2  A    between atoms: N_3  and  C_4
REMARK    3  A    between atoms: C_16  and  S_17
REMARK    4  A    between atoms: S_17  and  C_18
REMARK    5  A    between atoms: C_21  and  N_22
REMARK                            x       y       z     vdW  Elec       q    Type
REMARK                         _______ _______ _______ _____ _____    ______ ____
ROOT
ATOM      1  C   UNL     1       2.683   3.408  18.443  0.00  0.00    +0.000 A 
ATOM      2  C   UNL     1       1.723   2.376  18.414  0.00  0.00    +0.000 A 
ATOM      3  C   UNL     1       0.612   2.404  19.254  0.00  0.00    +0.000 A 
ATOM      4  C   UNL     1       0.445   3.470  20.125  0.00  0.00    +0.000 A 
ATOM      5  C   UNL     1       1.378   4.513  20.147  0.00  0.00    +0.000 A 
ATOM      6  C   UNL     1       2.503   4.508  19.302  0.00  0.00    +0.000 A 
ENDROOT
BRANCH   1   8
ATOM      7  O   UNL     1       4.253   2.104  17.348  0.00  0.00    +0.000 OA
ATOM      8  C   UNL     1       3.804   3.238  17.478  0.00  0.00    +0.000 C 
ATOM      9  N   UNL     1       4.286   4.376  16.860  0.00  0.00    +0.000 N 
ATOM     10  H   UNL     1       3.889   5.269  17.139  0.00  0.00    +0.000 HD
BRANCH   9  11
ATOM     11  C   UNL     1       5.279   4.437  15.847  0.00  0.00    +0.000 A 
ATOM     12  C   UNL     1       5.013   4.056  14.525  0.00  0.00    +0.000 A 
ATOM     13  C   UNL     1       5.984   4.173  13.526  0.00  0.00    +0.000 A 
ATOM     14  C   UNL     1       7.239   4.680  13.830  0.00  0.00    +0.000 A 
ATOM     15  C   UNL     1       7.534   5.051  15.141  0.00  0.00    +0.000 A 
ATOM     16  C   UNL     1       6.563   4.926  16.146  0.00  0.00    +0.000 A 
ATOM     17  I   UNL     1       7.133   5.457  18.098  0.00  0.00    +0.000 I 
ENDBRANCH   9  11
ENDBRANCH   1   8
BRANCH   6  18
ATOM     18  S   UNL     1       3.650   5.870  19.480  0.00  0.00    +0.000 S 
BRANCH  18  19
ATOM     19  C   UNL     1       2.623   7.324  19.338  0.00  0.00    +0.000 A 
ATOM     20  C   UNL     1       2.457   7.925  18.081  0.00  0.00    +0.000 A 
ATOM     21  C   UNL     1       1.545   8.971  17.900  0.00  0.00    +0.000 A 
ATOM     22  C   UNL     1       0.783   9.419  18.983  0.00  0.00    +0.000 A 
ATOM     23  C   UNL     1       0.945   8.837  20.248  0.00  0.00    +0.000 A 
ATOM     24  C   UNL     1       1.861   7.790  20.419  0.00  0.00    +0.000 A 
BRANCH  22  25
ATOM     25  N   UNL     1      -0.212  10.484  18.792  0.00  0.00    +0.000 N 
ATOM     26  O   UNL     1      -1.407  10.152  18.739  0.00  0.00    +0.000 OA
ATOM     27  O   UNL     1       0.197  11.650  18.697  0.00  0.00    +0.000 OA
ENDBRANCH  22  25
ENDBRANCH  18  19
ENDBRANCH   6  18
TORSDOF 5
ENDMDL
MODEL 6
REMARK VINA RESULT:      -7.7      3.350      6.031
REMARK  Name = 
REMARK  5 active torsions:
REMARK  status: ('A' for Active; 'I' for Inactive)
REMARK    1  A    between atoms: C_2  and  C_11
REMARK    2  A    between atoms: N_3  and  C_4
REMARK    3  A    between atoms: C_16  and  S_17
REMARK    4  A    between atoms: S_17  and  C_18
REMARK    5  A    between atoms: C_21  and  N_22
REMARK                            x       y       z     vdW  Elec       q    Type
REMARK                         _______ _______ _______ _____ _____    ______ ____
ROOT
ATOM      1  C   UNL     1       2.048   4.260  19.647  0.00  0.00    +0.000 A 
ATOM      2  C   UNL     1       1.340   4.151  20.862  0.00  0.00    +0.000 A 
ATOM      3  C   UNL     1       1.418   2.997  21.638  0.00  0.00    +0.000 A 
ATOM      4  C   UNL     1       2.213   1.943  21.213  0.00  0.00    +0.000 A 
ATOM      5  C   UNL     1       2.941   2.049  20.022  0.00  0.00    +0.000 A 
ATOM      6  C   UNL     1       2.881   3.208  19.226  0.00  0.00    +0.000 A 
ENDROOT
BRANCH   1   8
ATOM      7  O   UNL     1       1.508   5.505  17.770  0.00  0.00    +0.000 OA
ATOM      8  C   UNL     1       1.869   5.559  18.941  0.00  0.00    +0.000 C 
ATOM      9  N   UNL     1       2.186   6.708  19.639  0.00  0.00    +0.000 N 
ATOM     10  H   UNL     1       2.575   6.602  20.573  0.00  0.00    +0.000 HD
BRANCH   9  11
ATOM     11  C   UNL     1       2.008   8.046  19.199  0.00  0.00    +0.000 A 
ATOM     12  C   UNL     1       2.590   8.520  18.016  0.00  0.00    +0.000 A 
ATOM     13  C   UNL     1       2.361   9.824  17.565  0.00  0.00    +0.000 A 
ATOM     14  C   UNL     1       1.541  10.677  18.289  0.00  0.00    +0.000 A 
ATOM     15  C   UNL     1       0.963  10.235  19.478  0.00  0.00    +0.000 A 
ATOM     16  C   UNL     1       1.199   8.929  19.934  0.00  0.00    +0.000 A 
ATOM     17  I   UNL     1       0.328   8.387  21.769  0.00  0.00    +0.000 I 
ENDBRANCH   9  11
ENDBRANCH   1   8
BRANCH   6  18
ATOM     18  S   UNL     1       3.808   3.182  17.696  0.00  0.00    +0.000 S 
BRANCH  18  19
ATOM     19  C   UNL     1       4.886   4.601  17.816  0.00  0.00    +0.000 A 
ATOM     20  C   UNL     1       5.775   4.697  18.897  0.00  0.00    +0.000 A 
ATOM     21  C   UNL     1       6.737   5.712  18.947  0.00  0.00    +0.000 A 
ATOM     22  C   UNL     1       6.820   6.639  17.904  0.00  0.00    +0.000 A 
ATOM     23  C   UNL     1       5.932   6.564  16.822  0.00  0.00    +0.000 A 
ATOM     24  C   UNL     1       4.971   5.543  16.781  0.00  0.00    +0.000 A 
BRANCH  22  25
ATOM     25  N   UNL     1       7.858   7.679  17.924  0.00  0.00    +0.000 N 
ATOM     26  O   UNL     1       8.667   7.666  18.864  0.00  0.00    +0.000 OA
ATOM     27  O   UNL     1       7.868   8.507  17.001  0.00  0.00    +0.000 OA
ENDBRANCH  22  25
ENDBRANCH  18  19
ENDBRANCH   6  18
TORSDOF 5
ENDMDL
MODEL 7
REMARK VINA RESULT:      -7.6      3.114      7.304
REMARK  Name = 
REMARK  5 active torsions:
REMARK  status: ('A' for Active; 'I' for Inactive)
REMARK    1  A    between atoms: C_2  and  C_11
REMARK    2  A    between atoms: N_3  and  C_4
REMARK    3  A    between atoms: C_16  and  S_17
REMARK    4  A    between atoms: S_17  and  C_18
REMARK    5  A    between atoms: C_21  and  N_22
REMARK                            x       y       z     vdW  Elec       q    Type
REMARK                         _______ _______ _______ _____ _____    ______ ____
ROOT
ATOM      1  C   UNL     1       2.214   4.437  19.597  0.00  0.00    +0.000 A 
ATOM      2  C   UNL     1       1.154   3.531  19.390  0.00  0.00    +0.000 A 
ATOM      3  C   UNL     1       1.315   2.410  18.580  0.00  0.00    +0.000 A 
ATOM      4  C   UNL     1       2.542   2.177  17.975  0.00  0.00    +0.000 A 
ATOM      5  C   UNL     1       3.609   3.055  18.193  0.00  0.00    +0.000 A 
ATOM      6  C   UNL     1       3.470   4.191  19.013  0.00  0.00    +0.000 A 
ENDROOT
BRANCH   1   8
ATOM      7  O   UNL     1       2.081   5.407  21.696  0.00  0.00    +0.000 OA
ATOM      8  C   UNL     1       1.887   5.578  20.497  0.00  0.00    +0.000 C 
ATOM      9  N   UNL     1       1.335   6.704  19.917  0.00  0.00    +0.000 N 
ATOM     10  H   UNL     1       1.132   6.671  18.921  0.00  0.00    +0.000 HD
BRANCH   9  11
ATOM     11  C   UNL     1       1.033   7.931  20.563  0.00  0.00    +0.000 A 
ATOM     12  C   UNL     1       0.591   7.979  21.892  0.00  0.00    +0.000 A 
ATOM     13  C   UNL     1       0.350   9.198  22.534  0.00  0.00    +0.000 A 
ATOM     14  C   UNL     1       0.551  10.393  21.859  0.00  0.00    +0.000 A 
ATOM     15  C   UNL     1       0.974  10.371  20.531  0.00  0.00    +0.000 A 
ATOM     16  C   UNL     1       1.209   9.149  19.884  0.00  0.00    +0.000 A 
ATOM     17  I   UNL     1       1.785   9.231  17.864  0.00  0.00    +0.000 I 
ENDBRANCH   9  11
ENDBRANCH   1   8
BRANCH   6  18
ATOM     18  S   UNL     1       4.895   5.264  19.150  0.00  0.00    +0.000 S 
BRANCH  18  19
ATOM     19  C   UNL     1       5.592   5.274  17.505  0.00  0.00    +0.000 A 
ATOM     20  C   UNL     1       6.740   4.511  17.242  0.00  0.00    +0.000 A 
ATOM     21  C   UNL     1       7.227   4.373  15.938  0.00  0.00    +0.000 A 
ATOM     22  C   UNL     1       6.558   4.996  14.880  0.00  0.00    +0.000 A 
ATOM     23  C   UNL     1       5.416   5.770  15.127  0.00  0.00    +0.000 A 
ATOM     24  C   UNL     1       4.936   5.903  16.438  0.00  0.00    +0.000 A 
BRANCH  22  25
ATOM     25  N   UNL     1       7.034   4.816  13.501  0.00  0.00    +0.000 N 
ATOM     26  O   UNL     1       7.900   5.600  13.085  0.00  0.00    +0.000 OA
ATOM     27  O   UNL     1       6.544   3.892  12.835  0.00  0.00    +0.000 OA
ENDBRANCH  22  25
ENDBRANCH  18  19
ENDBRANCH   6  18
TORSDOF 5
ENDMDL
MODEL 8
REMARK VINA RESULT:      -7.6      3.760      5.570
REMARK  Name = 
REMARK  5 active torsions:
REMARK  status: ('A' for Active; 'I' for Inactive)
REMARK    1  A    between atoms: C_2  and  C_11
REMARK    2  A    between atoms: N_3  and  C_4
REMARK    3  A    between atoms: C_16  and  S_17
REMARK    4  A    between atoms: S_17  and  C_18
REMARK    5  A    between atoms: C_21  and  N_22
REMARK                            x       y       z     vdW  Elec       q    Type
REMARK                         _______ _______ _______ _____ _____    ______ ____
ROOT
ATOM      1  C   UNL     1       1.166   8.964  20.016  0.00  0.00    +0.000 A 
ATOM      2  C   UNL     1       1.449   8.355  21.256  0.00  0.00    +0.000 A 
ATOM      3  C   UNL     1       0.911   8.853  22.440  0.00  0.00    +0.000 A 
ATOM      4  C   UNL     1       0.075   9.960  22.396  0.00  0.00    +0.000 A 
ATOM      5  C   UNL     1      -0.233  10.558  21.169  0.00  0.00    +0.000 A 
ATOM      6  C   UNL     1       0.294  10.067  19.960  0.00  0.00    +0.000 A 
ENDROOT
BRANCH   1   8
ATOM      7  O   UNL     1       1.581   8.801  17.743  0.00  0.00    +0.000 OA
ATOM      8  C   UNL     1       1.807   8.307  18.844  0.00  0.00    +0.000 C 
ATOM      9  N   UNL     1       2.546   7.165  19.083  0.00  0.00    +0.000 N 
ATOM     10  H   UNL     1       2.566   6.805  20.034  0.00  0.00    +0.000 HD
BRANCH   9  11
ATOM     11  C   UNL     1       3.312   6.434  18.137  0.00  0.00    +0.000 A 
ATOM     12  C   UNL     1       4.260   7.055  17.313  0.00  0.00    +0.000 A 
ATOM     13  C   UNL     1       5.046   6.315  16.425  0.00  0.00    +0.000 A 
ATOM     14  C   UNL     1       4.901   4.937  16.347  0.00  0.00    +0.000 A 
ATOM     15  C   UNL     1       3.953   4.298  17.144  0.00  0.00    +0.000 A 
ATOM     16  C   UNL     1       3.158   5.041  18.030  0.00  0.00    +0.000 A 
ATOM     17  I   UNL     1       1.720   3.984  19.139  0.00  0.00    +0.000 I 
ENDBRANCH   9  11
ENDBRANCH   1   8
BRANCH   6  18
ATOM     18  S   UNL     1      -0.129  10.968  18.473  0.00  0.00    +0.000 S 
BRANCH  18  19
ATOM     19  C   UNL     1      -1.914  10.938  18.439  0.00  0.00    +0.000 A 
ATOM     20  C   UNL     1      -2.629  11.967  19.071  0.00  0.00    +0.000 A 
ATOM     21  C   UNL     1      -4.018  12.062  18.939  0.00  0.00    +0.000 A 
ATOM     22  C   UNL     1      -4.705  11.124  18.160  0.00  0.00    +0.000 A 
ATOM     23  C   UNL     1      -4.007  10.084  17.531  0.00  0.00    +0.000 A 
ATOM     24  C   UNL     1      -2.614   9.998  17.670  0.00  0.00    +0.000 A 
BRANCH  22  25
ATOM     25  N   UNL     1      -6.158  11.244  17.976  0.00  0.00    +0.000 N 
ATOM     26  O   UNL     1      -6.879  10.392  18.516  0.00  0.00    +0.000 OA
ATOM     27  O   UNL     1      -6.579  12.190  17.293  0.00  0.00    +0.000 OA
ENDBRANCH  22  25
ENDBRANCH  18  19
ENDBRANCH   6  18
TORSDOF 5
ENDMDL
MODEL 9
REMARK VINA RESULT:      -7.6      4.006      6.270
REMARK  Name = 
REMARK  5 active torsions:
REMARK  status: ('A' for Active; 'I' for Inactive)
REMARK    1  A    between atoms: C_2  and  C_11
REMARK    2  A    between atoms: N_3  and  C_4
REMARK    3  A    between atoms: C_16  and  S_17
REMARK    4  A    between atoms: S_17  and  C_18
REMARK    5  A    between atoms: C_21  and  N_22
REMARK                            x       y       z     vdW  Elec       q    Type
REMARK                         _______ _______ _______ _____ _____    ______ ____
ROOT
ATOM      1  C   UNL     1       0.538   9.627  20.645  0.00  0.00    +0.000 A 
ATOM      2  C   UNL     1       0.679   8.965  21.883  0.00  0.00    +0.000 A 
ATOM      3  C   UNL     1       0.081   9.465  23.037  0.00  0.00    +0.000 A 
ATOM      4  C   UNL     1      -0.672  10.627  22.965  0.00  0.00    +0.000 A 
ATOM      5  C   UNL     1      -0.840  11.280  21.739  0.00  0.00    +0.000 A 
ATOM      6  C   UNL     1      -0.251  10.789  20.559  0.00  0.00    +0.000 A 
ENDROOT
BRANCH   1   8
ATOM      7  O   UNL     1       1.105   9.489  18.404  0.00  0.00    +0.000 OA
ATOM      8  C   UNL     1       1.227   8.962  19.505  0.00  0.00    +0.000 C 
ATOM      9  N   UNL     1       1.888   7.777  19.769  0.00  0.00    +0.000 N 
ATOM     10  H   UNL     1       1.821   7.398  20.710  0.00  0.00    +0.000 HD
BRANCH   9  11
ATOM     11  C   UNL     1       2.680   7.027  18.861  0.00  0.00    +0.000 A 
ATOM     12  C   UNL     1       3.359   7.632  17.795  0.00  0.00    +0.000 A 
ATOM     13  C   UNL     1       4.181   6.889  16.942  0.00  0.00    +0.000 A 
ATOM     14  C   UNL     1       4.343   5.526  17.142  0.00  0.00    +0.000 A 
ATOM     15  C   UNL     1       3.664   4.897  18.185  0.00  0.00    +0.000 A 
ATOM     16  C   UNL     1       2.834   5.641  19.037  0.00  0.00    +0.000 A 
ATOM     17  I   UNL     1       1.813   4.583  20.539  0.00  0.00    +0.000 I 
ENDBRANCH   9  11
ENDBRANCH   1   8
BRANCH   6  18
ATOM     18  S   UNL     1      -0.491  11.759  19.075  0.00  0.00    +0.000 S 
BRANCH  18  19
ATOM     19  C   UNL     1      -2.246  11.645  18.760  0.00  0.00    +0.000 A 
ATOM     20  C   UNL     1      -2.723  10.653  17.889  0.00  0.00    +0.000 A 
ATOM     21  C   UNL     1      -4.096  10.434  17.734  0.00  0.00    +0.000 A 
ATOM     22  C   UNL     1      -5.006  11.207  18.461  0.00  0.00    +0.000 A 
ATOM     23  C   UNL     1      -4.546  12.209  19.326  0.00  0.00    +0.000 A 
ATOM     24  C   UNL     1      -3.169  12.421  19.474  0.00  0.00    +0.000 A 
BRANCH  22  25
ATOM     25  N   UNL     1      -6.449  10.952  18.341  0.00  0.00    +0.000 N 
ATOM     26  O   UNL     1      -7.143  11.820  17.791  0.00  0.00    +0.000 OA
ATOM     27  O   UNL     1      -6.888   9.884  18.794  0.00  0.00    +0.000 OA
ENDBRANCH  22  25
ENDBRANCH  18  19
ENDBRANCH   6  18
TORSDOF 5
ENDMDL
