MODEL 1
REMARK VINA RESULT:      -8.4      0.000      0.000
REMARK  Name = 
REMARK  7 active torsions:
REMARK  status: ('A' for Active; 'I' for Inactive)
REMARK    1  A    between atoms: C_1  and  C_2
REMARK    2  A    between atoms: C_2  and  C_3
REMARK    3  A    between atoms: C_3  and  C_4
REMARK    4  A    between atoms: C_9  and  N_10
REMARK    5  A    between atoms: C_12  and  C_13
REMARK    6  A    between atoms: C_16  and  C_17
REMARK    7  A    between atoms: C_23  and  C_24
REMARK                            x       y       z     vdW  Elec       q    Type
REMARK                         _______ _______ _______ _____ _____    ______ ____
ROOT
ATOM      1  C   UNL     1       1.897   8.736  18.185  0.00  0.00    +0.000 A 
ATOM      2  N   UNL     1       3.014   9.065  17.507  0.00  0.00    +0.000 NA
ATOM      3  N   UNL     1       3.970   8.117  17.309  0.00  0.00    +0.000 NA
ATOM      4  C   UNL     1       3.777   6.859  17.771  0.00  0.00    +0.000 A 
ATOM      5  C   UNL     1       2.612   6.577  18.509  0.00  0.00    +0.000 A 
ATOM      6  N   UNL     1       1.657   7.523  18.722  0.00  0.00    +0.000 NA
ENDROOT
BRANCH   4   7
ATOM      7  C   UNL     1       4.847   5.906  17.409  0.00  0.00    +0.000 A 
ATOM      8  C   UNL     1       4.899   5.339  16.123  0.00  0.00    +0.000 A 
ATOM      9  C   UNL     1       5.971   4.530  15.730  0.00  0.00    +0.000 A 
ATOM     10  C   UNL     1       7.020   4.287  16.608  0.00  0.00    +0.000 A 
ATOM     11  C   UNL     1       6.966   4.790  17.902  0.00  0.00    +0.000 A 
ATOM     12  C   UNL     1       5.867   5.548  18.309  0.00  0.00    +0.000 A 
ENDBRANCH   4   7
BRANCH   5  13
ATOM     13  C   UNL     1       2.261   5.245  19.056  0.00  0.00    +0.000 A 
ATOM     14  C   UNL     1       1.808   4.191  18.240  0.00  0.00    +0.000 A 
ATOM     15  C   UNL     1       1.214   3.052  18.792  0.00  0.00    +0.000 A 
ATOM     16  C   UNL     1       1.148   2.901  20.174  0.00  0.00    +0.000 A 
ATOM     17  C   UNL     1       1.711   3.869  21.000  0.00  0.00    +0.000 A 
ATOM     18  C   UNL     1       2.261   5.029  20.447  0.00  0.00    +0.000 A 
ENDBRANCH   5  13
BRANCH   1  21
ATOM     19  N   UNL     1      -0.162  11.593  18.774  0.00  0.00    +0.000 N 
ATOM     20  C   UNL     1       1.051  10.991  18.928  0.00  0.00    +0.000 A 
ATOM     21  C   UNL     1       0.886   9.756  18.334  0.00  0.00    +0.000 A 
ATOM     22  N   UNL     1      -0.406   9.643  17.890  0.00  0.00    +0.000 NA
ATOM     23  N   UNL     1      -1.041  10.769  18.182  0.00  0.00    +0.000 NA
BRANCH  19  29
ATOM     24  C   UNL     1      -1.692  13.671  23.165  0.00  0.00    +0.000 C 
ATOM     25  O   UNL     1      -0.822  14.047  23.959  0.00  0.00    +0.000 OA
ATOM     26  N   UNL     1      -1.367  13.234  21.885  0.00  0.00    +0.000 N 
ATOM     27  C   UNL     1       0.047  12.988  21.585  0.00  0.00    +0.000 C 
ATOM     28  C   UNL     1       0.408  13.525  20.211  0.00  0.00    +0.000 C 
ATOM     29  C   UNL     1      -0.512  12.962  19.124  0.00  0.00    +0.000 C 
ATOM     30  C   UNL     1      -1.991  13.151  19.496  0.00  0.00    +0.000 C 
ATOM     31  C   UNL     1      -2.323  12.698  20.919  0.00  0.00    +0.000 C 
BRANCH  24  32
ATOM     32  C   UNL     1      -3.162  13.667  23.549  0.00  0.00    +0.000 C 
BRANCH  32  34
ATOM     33  C   UNL     1      -5.012  12.350  24.659  0.00  0.00    +0.000 C 
ATOM     34  C   UNL     1      -3.556  12.357  24.230  0.00  0.00    +0.000 C 
ENDBRANCH  32  34
ENDBRANCH  24  32
ENDBRANCH  19  29
ENDBRANCH   1  21
TORSDOF 6
ENDMDL
MODEL 2
REMARK VINA RESULT:      -8.4      1.404      1.582
REMARK  Name = 
REMARK  7 active torsions:
REMARK  status: ('A' for Active; 'I' for Inactive)
REMARK    1  A    between atoms: C_1  and  C_2
REMARK    2  A    between atoms: C_2  and  C_3
REMARK    3  A    between atoms: C_3  and  C_4
REMARK    4  A    between atoms: C_9  and  N_10
REMARK    5  A    between atoms: C_12  and  C_13
REMARK    6  A    between atoms: C_16  and  C_17
REMARK    7  A    between atoms: C_23  and  C_24
REMARK                            x       y       z     vdW  Elec       q    Type
REMARK                         _______ _______ _______ _____ _____    ______ ____
ROOT
ATOM      1  C   UNL     1       1.818   8.810  18.606  0.00  0.00    +0.000 A 
ATOM      2  N   UNL     1       2.837   9.154  17.795  0.00  0.00    +0.000 NA
ATOM      3  N   UNL     1       3.739   8.205  17.427  0.00  0.00    +0.000 NA
ATOM      4  C   UNL     1       3.589   6.930  17.860  0.00  0.00    +0.000 A 
ATOM      5  C   UNL     1       2.532   6.631  18.739  0.00  0.00    +0.000 A 
ATOM      6  N   UNL     1       1.633   7.578  19.120  0.00  0.00    +0.000 NA
ENDROOT
BRANCH   4   7
ATOM      7  C   UNL     1       4.582   5.981  17.314  0.00  0.00    +0.000 A 
ATOM      8  C   UNL     1       4.816   5.902  15.929  0.00  0.00    +0.000 A 
ATOM      9  C   UNL     1       5.835   5.096  15.411  0.00  0.00    +0.000 A 
ATOM     10  C   UNL     1       6.651   4.366  16.267  0.00  0.00    +0.000 A 
ATOM     11  C   UNL     1       6.406   4.383  17.634  0.00  0.00    +0.000 A 
ATOM     12  C   UNL     1       5.351   5.144  18.143  0.00  0.00    +0.000 A 
ENDBRANCH   4   7
BRANCH   5  13
ATOM     13  C   UNL     1       2.235   5.280  19.274  0.00  0.00    +0.000 A 
ATOM     14  C   UNL     1       1.676   4.261  18.480  0.00  0.00    +0.000 A 
ATOM     15  C   UNL     1       1.142   3.106  19.057  0.00  0.00    +0.000 A 
ATOM     16  C   UNL     1       1.242   2.902  20.430  0.00  0.00    +0.000 A 
ATOM     17  C   UNL     1       1.910   3.834  21.218  0.00  0.00    +0.000 A 
ATOM     18  C   UNL     1       2.402   5.011  20.646  0.00  0.00    +0.000 A 
ENDBRANCH   5  13
BRANCH   1  21
ATOM     19  N   UNL     1      -0.161  11.522  19.823  0.00  0.00    +0.000 N 
ATOM     20  C   UNL     1       0.956  10.753  19.961  0.00  0.00    +0.000 A 
ATOM     21  C   UNL     1       0.855   9.835  18.935  0.00  0.00    +0.000 A 
ATOM     22  N   UNL     1      -0.315  10.052  18.255  0.00  0.00    +0.000 NA
ATOM     23  N   UNL     1      -0.936  11.076  18.821  0.00  0.00    +0.000 NA
BRANCH  19  29
ATOM     24  C   UNL     1      -4.285  12.712  22.565  0.00  0.00    +0.000 C 
ATOM     25  O   UNL     1      -4.310  12.360  23.750  0.00  0.00    +0.000 OA
ATOM     26  N   UNL     1      -3.140  12.563  21.789  0.00  0.00    +0.000 N 
ATOM     27  C   UNL     1      -2.049  11.747  22.329  0.00  0.00    +0.000 C 
ATOM     28  C   UNL     1      -0.704  12.406  22.069  0.00  0.00    +0.000 C 
ATOM     29  C   UNL     1      -0.503  12.714  20.583  0.00  0.00    +0.000 C 
ATOM     30  C   UNL     1      -1.698  13.496  20.013  0.00  0.00    +0.000 C 
ATOM     31  C   UNL     1      -3.052  12.878  20.365  0.00  0.00    +0.000 C 
BRANCH  24  32
ATOM     32  C   UNL     1      -5.503  13.327  21.898  0.00  0.00    +0.000 C 
BRANCH  32  34
ATOM     33  C   UNL     1      -7.663  12.204  22.577  0.00  0.00    +0.000 C 
ATOM     34  C   UNL     1      -6.544  12.263  21.552  0.00  0.00    +0.000 C 
ENDBRANCH  32  34
ENDBRANCH  24  32
ENDBRANCH  19  29
ENDBRANCH   1  21
TORSDOF 6
ENDMDL
MODEL 3
REMARK VINA RESULT:      -8.3      3.312     10.150
REMARK  Name = 
REMARK  7 active torsions:
REMARK  status: ('A' for Active; 'I' for Inactive)
REMARK    1  A    between atoms: C_1  and  C_2
REMARK    2  A    between atoms: C_2  and  C_3
REMARK    3  A    between atoms: C_3  and  C_4
REMARK    4  A    between atoms: C_9  and  N_10
REMARK    5  A    between atoms: C_12  and  C_13
REMARK    6  A    between atoms: C_16  and  C_17
REMARK    7  A    between atoms: C_23  and  C_24
REMARK                            x       y       z     vdW  Elec       q    Type
REMARK                         _______ _______ _______ _____ _____    ______ ____
ROOT
ATOM      1  C   UNL     1       1.421   8.103  20.682  0.00  0.00    +0.000 A 
ATOM      2  N   UNL     1       1.772   8.698  21.838  0.00  0.00    +0.000 NA
ATOM      3  N   UNL     1       1.263   9.926  22.132  0.00  0.00    +0.000 NA
ATOM      4  C   UNL     1       0.398  10.517  21.274  0.00  0.00    +0.000 A 
ATOM      5  C   UNL     1       0.096   9.873  20.060  0.00  0.00    +0.000 A 
ATOM      6  N   UNL     1       0.610   8.651  19.755  0.00  0.00    +0.000 NA
ENDROOT
BRANCH   4   7
ATOM      7  C   UNL     1      -0.151  11.803  21.754  0.00  0.00    +0.000 A 
ATOM      8  C   UNL     1      -1.211  11.832  22.679  0.00  0.00    +0.000 A 
ATOM      9  C   UNL     1      -1.659  13.037  23.230  0.00  0.00    +0.000 A 
ATOM     10  C   UNL     1      -1.046  14.235  22.882  0.00  0.00    +0.000 A 
ATOM     11  C   UNL     1      -0.034  14.240  21.929  0.00  0.00    +0.000 A 
ATOM     12  C   UNL     1       0.371  13.042  21.338  0.00  0.00    +0.000 A 
ENDBRANCH   4   7
BRANCH   5  13
ATOM     13  C   UNL     1      -0.847  10.392  19.040  0.00  0.00    +0.000 A 
ATOM     14  C   UNL     1      -1.779  11.408  19.323  0.00  0.00    +0.000 A 
ATOM     15  C   UNL     1      -2.838  11.680  18.452  0.00  0.00    +0.000 A 
ATOM     16  C   UNL     1      -2.932  11.010  17.237  0.00  0.00    +0.000 A 
ATOM     17  C   UNL     1      -1.946  10.097  16.877  0.00  0.00    +0.000 A 
ATOM     18  C   UNL     1      -0.914   9.790  17.769  0.00  0.00    +0.000 A 
ENDBRANCH   5  13
BRANCH   1  21
ATOM     19  N   UNL     1       3.183   5.120  19.817  0.00  0.00    +0.000 N 
ATOM     20  C   UNL     1       3.099   6.478  19.736  0.00  0.00    +0.000 A 
ATOM     21  C   UNL     1       1.945   6.781  20.429  0.00  0.00    +0.000 A 
ATOM     22  N   UNL     1       1.363   5.617  20.859  0.00  0.00    +0.000 NA
ATOM     23  N   UNL     1       2.123   4.607  20.462  0.00  0.00    +0.000 NA
BRANCH  19  29
ATOM     24  C   UNL     1       5.849   5.163  15.478  0.00  0.00    +0.000 C 
ATOM     25  O   UNL     1       6.839   5.901  15.418  0.00  0.00    +0.000 OA
ATOM     26  N   UNL     1       5.156   4.976  16.669  0.00  0.00    +0.000 N 
ATOM     27  C   UNL     1       5.469   5.867  17.790  0.00  0.00    +0.000 C 
ATOM     28  C   UNL     1       5.548   5.088  19.092  0.00  0.00    +0.000 C 
ATOM     29  C   UNL     1       4.273   4.279  19.346  0.00  0.00    +0.000 C 
ATOM     30  C   UNL     1       3.912   3.415  18.126  0.00  0.00    +0.000 C 
ATOM     31  C   UNL     1       3.932   4.189  16.807  0.00  0.00    +0.000 C 
BRANCH  24  32
ATOM     32  C   UNL     1       5.340   4.425  14.252  0.00  0.00    +0.000 C 
BRANCH  32  34
ATOM     33  C   UNL     1       6.012   3.233  12.127  0.00  0.00    +0.000 C 
ATOM     34  C   UNL     1       6.492   3.858  13.425  0.00  0.00    +0.000 C 
ENDBRANCH  32  34
ENDBRANCH  24  32
ENDBRANCH  19  29
ENDBRANCH   1  21
TORSDOF 6
ENDMDL
MODEL 4
REMARK VINA RESULT:      -8.3      1.166      1.579
REMARK  Name = 
REMARK  7 active torsions:
REMARK  status: ('A' for Active; 'I' for Inactive)
REMARK    1  A    between atoms: C_1  and  C_2
REMARK    2  A    between atoms: C_2  and  C_3
REMARK    3  A    between atoms: C_3  and  C_4
REMARK    4  A    between atoms: C_9  and  N_10
REMARK    5  A    between atoms: C_12  and  C_13
REMARK    6  A    between atoms: C_16  and  C_17
REMARK    7  A    between atoms: C_23  and  C_24
REMARK                            x       y       z     vdW  Elec       q    Type
REMARK                         _______ _______ _______ _____ _____    ______ ____
ROOT
ATOM      1  C   UNL     1       1.760   8.696  18.691  0.00  0.00    +0.000 A 
ATOM      2  N   UNL     1       2.820   8.979  17.910  0.00  0.00    +0.000 NA
ATOM      3  N   UNL     1       3.713   7.993  17.623  0.00  0.00    +0.000 NA
ATOM      4  C   UNL     1       3.511   6.743  18.105  0.00  0.00    +0.000 A 
ATOM      5  C   UNL     1       2.411   6.509  18.950  0.00  0.00    +0.000 A 
ATOM      6  N   UNL     1       1.521   7.493  19.249  0.00  0.00    +0.000 NA
ENDROOT
BRANCH   4   7
ATOM      7  C   UNL     1       4.502   5.747  17.645  0.00  0.00    +0.000 A 
ATOM      8  C   UNL     1       4.252   4.957  16.508  0.00  0.00    +0.000 A 
ATOM      9  C   UNL     1       5.229   4.098  15.993  0.00  0.00    +0.000 A 
ATOM     10  C   UNL     1       6.480   4.023  16.594  0.00  0.00    +0.000 A 
ATOM     11  C   UNL     1       6.733   4.752  17.750  0.00  0.00    +0.000 A 
ATOM     12  C   UNL     1       5.736   5.564  18.294  0.00  0.00    +0.000 A 
ENDBRANCH   4   7
BRANCH   5  13
ATOM     13  C   UNL     1       2.057   5.191  19.529  0.00  0.00    +0.000 A 
ATOM     14  C   UNL     1       2.385   4.836  20.851  0.00  0.00    +0.000 A 
ATOM     15  C   UNL     1       2.305   3.510  21.285  0.00  0.00    +0.000 A 
ATOM     16  C   UNL     1       1.804   2.528  20.437  0.00  0.00    +0.000 A 
ATOM     17  C   UNL     1       1.347   2.879  19.170  0.00  0.00    +0.000 A 
ATOM     18  C   UNL     1       1.473   4.197  18.721  0.00  0.00    +0.000 A 
ENDBRANCH   5  13
BRANCH   1  21
ATOM     19  N   UNL     1      -0.200  11.505  19.703  0.00  0.00    +0.000 N 
ATOM     20  C   UNL     1       0.889  10.715  19.923  0.00  0.00    +0.000 A 
ATOM     21  C   UNL     1       0.810   9.757  18.933  0.00  0.00    +0.000 A 
ATOM     22  N   UNL     1      -0.323   9.973  18.192  0.00  0.00    +0.000 NA
ATOM     23  N   UNL     1      -0.941  11.036  18.686  0.00  0.00    +0.000 NA
BRANCH  19  29
ATOM     24  C   UNL     1      -3.856  12.570  23.085  0.00  0.00    +0.000 C 
ATOM     25  O   UNL     1      -3.615  12.361  24.279  0.00  0.00    +0.000 OA
ATOM     26  N   UNL     1      -2.868  12.451  22.114  0.00  0.00    +0.000 N 
ATOM     27  C   UNL     1      -1.599  11.827  22.501  0.00  0.00    +0.000 C 
ATOM     28  C   UNL     1      -0.422  12.589  21.915  0.00  0.00    +0.000 C 
ATOM     29  C   UNL     1      -0.544  12.737  20.396  0.00  0.00    +0.000 C 
ATOM     30  C   UNL     1      -1.914  13.312  20.003  0.00  0.00    +0.000 C 
ATOM     31  C   UNL     1      -3.088  12.599  20.677  0.00  0.00    +0.000 C 
BRANCH  24  32
ATOM     32  C   UNL     1      -5.246  12.966  22.618  0.00  0.00    +0.000 C 
BRANCH  32  34
ATOM     33  C   UNL     1      -7.594  12.378  23.347  0.00  0.00    +0.000 C 
ATOM     34  C   UNL     1      -6.249  12.940  23.771  0.00  0.00    +0.000 C 
ENDBRANCH  32  34
ENDBRANCH  24  32
ENDBRANCH  19  29
ENDBRANCH   1  21
TORSDOF 6
ENDMDL
MODEL 5
REMARK VINA RESULT:      -8.3      2.313      3.001
REMARK  Name = 
REMARK  7 active torsions:
REMARK  status: ('A' for Active; 'I' for Inactive)
REMARK    1  A    between atoms: C_1  and  C_2
REMARK    2  A    between atoms: C_2  and  C_3
REMARK    3  A    between atoms: C_3  and  C_4
REMARK    4  A    between atoms: C_9  and  N_10
REMARK    5  A    between atoms: C_12  and  C_13
REMARK    6  A    between atoms: C_16  and  C_17
REMARK    7  A    between atoms: C_23  and  C_24
REMARK                            x       y       z     vdW  Elec       q    Type
REMARK                         _______ _______ _______ _____ _____    ______ ____
ROOT
ATOM      1  C   UNL     1       1.251   8.574  20.392  0.00  0.00    +0.000 A 
ATOM      2  N   UNL     1       1.884   9.009  19.286  0.00  0.00    +0.000 NA
ATOM      3  N   UNL     1       2.567   8.116  18.519  0.00  0.00    +0.000 NA
ATOM      4  C   UNL     1       2.581   6.806  18.864  0.00  0.00    +0.000 A 
ATOM      5  C   UNL     1       1.939   6.409  20.052  0.00  0.00    +0.000 A 
ATOM      6  N   UNL     1       1.264   7.299  20.829  0.00  0.00    +0.000 NA
ENDROOT
BRANCH   4   7
ATOM      7  C   UNL     1       3.279   5.930  17.900  0.00  0.00    +0.000 A 
ATOM      8  C   UNL     1       4.432   6.376  17.228  0.00  0.00    +0.000 A 
ATOM      9  C   UNL     1       5.169   5.518  16.405  0.00  0.00    +0.000 A 
ATOM     10  C   UNL     1       4.778   4.193  16.250  0.00  0.00    +0.000 A 
ATOM     11  C   UNL     1       3.613   3.743  16.859  0.00  0.00    +0.000 A 
ATOM     12  C   UNL     1       2.849   4.618  17.632  0.00  0.00    +0.000 A 
ENDBRANCH   4   7
BRANCH   5  13
ATOM     13  C   UNL     1       1.856   5.011  20.540  0.00  0.00    +0.000 A 
ATOM     14  C   UNL     1       2.927   4.378  21.199  0.00  0.00    +0.000 A 
ATOM     15  C   UNL     1       2.939   2.993  21.392  0.00  0.00    +0.000 A 
ATOM     16  C   UNL     1       1.840   2.227  21.018  0.00  0.00    +0.000 A 
ATOM     17  C   UNL     1       0.715   2.850  20.487  0.00  0.00    +0.000 A 
ATOM     18  C   UNL     1       0.723   4.228  20.250  0.00  0.00    +0.000 A 
ENDBRANCH   5  13
BRANCH   1  21
ATOM     19  N   UNL     1      -0.449  11.357  21.846  0.00  0.00    +0.000 N 
ATOM     20  C   UNL     1       0.404  10.895  20.889  0.00  0.00    +0.000 A 
ATOM     21  C   UNL     1       0.498   9.544  21.153  0.00  0.00    +0.000 A 
ATOM     22  N   UNL     1      -0.252   9.252  22.262  0.00  0.00    +0.000 NA
ATOM     23  N   UNL     1      -0.812  10.375  22.687  0.00  0.00    +0.000 NA
BRANCH  19  29
ATOM     24  C   UNL     1      -5.236  13.096  21.903  0.00  0.00    +0.000 C 
ATOM     25  O   UNL     1      -5.825  13.127  22.990  0.00  0.00    +0.000 OA
ATOM     26  N   UNL     1      -3.884  12.780  21.820  0.00  0.00    +0.000 N 
ATOM     27  C   UNL     1      -3.233  12.238  23.015  0.00  0.00    +0.000 C 
ATOM     28  C   UNL     1      -1.861  12.861  23.212  0.00  0.00    +0.000 C 
ATOM     29  C   UNL     1      -0.985  12.704  21.966  0.00  0.00    +0.000 C 
ATOM     30  C   UNL     1      -1.717  13.199  20.708  0.00  0.00    +0.000 C 
ATOM     31  C   UNL     1      -3.136  12.642  20.572  0.00  0.00    +0.000 C 
BRANCH  24  32
ATOM     32  C   UNL     1      -5.961  13.400  20.604  0.00  0.00    +0.000 C 
BRANCH  32  34
ATOM     33  C   UNL     1      -6.924  11.093  20.231  0.00  0.00    +0.000 C 
ATOM     34  C   UNL     1      -7.231  12.562  20.465  0.00  0.00    +0.000 C 
ENDBRANCH  32  34
ENDBRANCH  24  32
ENDBRANCH  19  29
ENDBRANCH   1  21
TORSDOF 6
ENDMDL
MODEL 6
REMARK VINA RESULT:      -8.3      2.252      2.928
REMARK  Name = 
REMARK  7 active torsions:
REMARK  status: ('A' for Active; 'I' for Inactive)
REMARK    1  A    between atoms: C_1  and  C_2
REMARK    2  A    between atoms: C_2  and  C_3
REMARK    3  A    between atoms: C_3  and  C_4
REMARK    4  A    between atoms: C_9  and  N_10
REMARK    5  A    between atoms: C_12  and  C_13
REMARK    6  A    between atoms: C_16  and  C_17
REMARK    7  A    between atoms: C_23  and  C_24
REMARK                            x       y       z     vdW  Elec       q    Type
REMARK                         _______ _______ _______ _____ _____    ______ ____
ROOT
ATOM      1  C   UNL     1       1.970   8.428  18.579  0.00  0.00    +0.000 A 
ATOM      2  N   UNL     1       3.011   8.788  17.803  0.00  0.00    +0.000 NA
ATOM      3  N   UNL     1       3.945   7.854  17.474  0.00  0.00    +0.000 NA
ATOM      4  C   UNL     1       3.803   6.580  17.909  0.00  0.00    +0.000 A 
ATOM      5  C   UNL     1       2.721   6.264  18.751  0.00  0.00    +0.000 A 
ATOM      6  N   UNL     1       1.790   7.196  19.093  0.00  0.00    +0.000 NA
ENDROOT
BRANCH   4   7
ATOM      7  C   UNL     1       4.834   5.647  17.405  0.00  0.00    +0.000 A 
ATOM      8  C   UNL     1       4.607   4.884  16.245  0.00  0.00    +0.000 A 
ATOM      9  C   UNL     1       5.617   4.089  15.692  0.00  0.00    +0.000 A 
ATOM     10  C   UNL     1       6.878   4.054  16.277  0.00  0.00    +0.000 A 
ATOM     11  C   UNL     1       7.110   4.755  17.454  0.00  0.00    +0.000 A 
ATOM     12  C   UNL     1       6.083   5.501  18.035  0.00  0.00    +0.000 A 
ENDBRANCH   4   7
BRANCH   5  13
ATOM     13  C   UNL     1       2.431   4.911  19.283  0.00  0.00    +0.000 A 
ATOM     14  C   UNL     1       1.761   3.931  18.526  0.00  0.00    +0.000 A 
ATOM     15  C   UNL     1       1.246   2.780  19.127  0.00  0.00    +0.000 A 
ATOM     16  C   UNL     1       1.473   2.538  20.478  0.00  0.00    +0.000 A 
ATOM     17  C   UNL     1       2.248   3.427  21.216  0.00  0.00    +0.000 A 
ATOM     18  C   UNL     1       2.722   4.602  20.625  0.00  0.00    +0.000 A 
ENDBRANCH   5  13
BRANCH   1  21
ATOM     19  N   UNL     1      -0.421  11.077  18.719  0.00  0.00    +0.000 N 
ATOM     20  C   UNL     1       0.543  10.426  18.008  0.00  0.00    +0.000 A 
ATOM     21  C   UNL     1       0.976   9.436  18.867  0.00  0.00    +0.000 A 
ATOM     22  N   UNL     1       0.302   9.548  20.055  0.00  0.00    +0.000 NA
ATOM     23  N   UNL     1      -0.538  10.568  19.956  0.00  0.00    +0.000 NA
BRANCH  19  29
ATOM     24  C   UNL     1      -5.356  12.035  19.539  0.00  0.00    +0.000 C 
ATOM     25  O   UNL     1      -5.656  12.693  20.542  0.00  0.00    +0.000 OA
ATOM     26  N   UNL     1      -4.030  11.858  19.158  0.00  0.00    +0.000 N 
ATOM     27  C   UNL     1      -2.986  12.250  20.110  0.00  0.00    +0.000 C 
ATOM     28  C   UNL     1      -1.854  12.974  19.401  0.00  0.00    +0.000 C 
ATOM     29  C   UNL     1      -1.288  12.145  18.245  0.00  0.00    +0.000 C 
ATOM     30  C   UNL     1      -2.407  11.669  17.305  0.00  0.00    +0.000 C 
ATOM     31  C   UNL     1      -3.587  11.030  18.039  0.00  0.00    +0.000 C 
BRANCH  24  32
ATOM     32  C   UNL     1      -6.421  11.387  18.672  0.00  0.00    +0.000 C 
BRANCH  32  34
ATOM     33  C   UNL     1      -6.418  13.298  17.017  0.00  0.00    +0.000 C 
ATOM     34  C   UNL     1      -7.259  12.437  17.942  0.00  0.00    +0.000 C 
ENDBRANCH  32  34
ENDBRANCH  24  32
ENDBRANCH  19  29
ENDBRANCH   1  21
TORSDOF 6
ENDMDL
MODEL 7
REMARK VINA RESULT:      -8.3      3.277     10.441
REMARK  Name = 
REMARK  7 active torsions:
REMARK  status: ('A' for Active; 'I' for Inactive)
REMARK    1  A    between atoms: C_1  and  C_2
REMARK    2  A    between atoms: C_2  and  C_3
REMARK    3  A    between atoms: C_3  and  C_4
REMARK    4  A    between atoms: C_9  and  N_10
REMARK    5  A    between atoms: C_12  and  C_13
REMARK    6  A    between atoms: C_16  and  C_17
REMARK    7  A    between atoms: C_23  and  C_24
REMARK                            x       y       z     vdW  Elec       q    Type
REMARK                         _______ _______ _______ _____ _____    ______ ____
ROOT
ATOM      1  C   UNL     1       0.829   9.784  19.328  0.00  0.00    +0.000 A 
ATOM      2  N   UNL     1       1.113  10.399  20.492  0.00  0.00    +0.000 NA
ATOM      3  N   UNL     1       0.274  11.367  20.951  0.00  0.00    +0.000 NA
ATOM      4  C   UNL     1      -0.840  11.681  20.246  0.00  0.00    +0.000 A 
ATOM      5  C   UNL     1      -1.069  11.039  19.016  0.00  0.00    +0.000 A 
ATOM      6  N   UNL     1      -0.228  10.077  18.546  0.00  0.00    +0.000 NA
ENDROOT
BRANCH   4   7
ATOM      7  C   UNL     1      -1.711  12.681  20.899  0.00  0.00    +0.000 A 
ATOM      8  C   UNL     1      -1.726  14.017  20.459  0.00  0.00    +0.000 A 
ATOM      9  C   UNL     1      -2.631  14.944  20.988  0.00  0.00    +0.000 A 
ATOM     10  C   UNL     1      -3.549  14.550  21.954  0.00  0.00    +0.000 A 
ATOM     11  C   UNL     1      -3.518  13.251  22.445  0.00  0.00    +0.000 A 
ATOM     12  C   UNL     1      -2.575  12.344  21.957  0.00  0.00    +0.000 A 
ENDBRANCH   4   7
BRANCH   5  13
ATOM     13  C   UNL     1      -2.253  11.266  18.152  0.00  0.00    +0.000 A 
ATOM     14  C   UNL     1      -3.531  11.533  18.680  0.00  0.00    +0.000 A 
ATOM     15  C   UNL     1      -4.673  11.459  17.878  0.00  0.00    +0.000 A 
ATOM     16  C   UNL     1      -4.554  11.211  16.515  0.00  0.00    +0.000 A 
ATOM     17  C   UNL     1      -3.291  11.077  15.947  0.00  0.00    +0.000 A 
ATOM     18  C   UNL     1      -2.152  11.104  16.757  0.00  0.00    +0.000 A 
ENDBRANCH   5  13
BRANCH   1  21
ATOM     19  N   UNL     1       2.882   6.913  18.784  0.00  0.00    +0.000 N 
ATOM     20  C   UNL     1       2.083   7.619  19.633  0.00  0.00    +0.000 A 
ATOM     21  C   UNL     1       1.718   8.729  18.900  0.00  0.00    +0.000 A 
ATOM     22  N   UNL     1       2.331   8.677  17.675  0.00  0.00    +0.000 NA
ATOM     23  N   UNL     1       3.055   7.568  17.625  0.00  0.00    +0.000 NA
BRANCH  19  29
ATOM     24  C   UNL     1       6.570   4.370  16.361  0.00  0.00    +0.000 C 
ATOM     25  O   UNL     1       7.736   4.568  16.717  0.00  0.00    +0.000 OA
ATOM     26  N   UNL     1       5.496   4.904  17.065  0.00  0.00    +0.000 N 
ATOM     27  C   UNL     1       5.782   5.915  18.086  0.00  0.00    +0.000 C 
ATOM     28  C   UNL     1       4.950   5.672  19.334  0.00  0.00    +0.000 C 
ATOM     29  C   UNL     1       3.455   5.595  19.012  0.00  0.00    +0.000 C 
ATOM     30  C   UNL     1       3.183   4.593  17.879  0.00  0.00    +0.000 C 
ATOM     31  C   UNL     1       4.095   4.785  16.665  0.00  0.00    +0.000 C 
BRANCH  24  32
ATOM     32  C   UNL     1       6.251   3.531  15.135  0.00  0.00    +0.000 C 
BRANCH  32  34
ATOM     33  C   UNL     1       6.136   3.513  12.610  0.00  0.00    +0.000 C 
ATOM     34  C   UNL     1       6.539   4.299  13.845  0.00  0.00    +0.000 C 
ENDBRANCH  32  34
ENDBRANCH  24  32
ENDBRANCH  19  29
ENDBRANCH   1  21
TORSDOF 6
ENDMDL
MODEL 8
REMARK VINA RESULT:      -8.2      2.266      3.629
REMARK  Name = 
REMARK  7 active torsions:
REMARK  status: ('A' for Active; 'I' for Inactive)
REMARK    1  A    between atoms: C_1  and  C_2
REMARK    2  A    between atoms: C_2  and  C_3
REMARK    3  A    between atoms: C_3  and  C_4
REMARK    4  A    between atoms: C_9  and  N_10
REMARK    5  A    between atoms: C_12  and  C_13
REMARK    6  A    between atoms: C_16  and  C_17
REMARK    7  A    between atoms: C_23  and  C_24
REMARK                            x       y       z     vdW  Elec       q    Type
REMARK                         _______ _______ _______ _____ _____    ______ ____
ROOT
ATOM      1  C   UNL     1       2.112   8.302  18.274  0.00  0.00    +0.000 A 
ATOM      2  N   UNL     1       3.169   8.699  17.538  0.00  0.00    +0.000 NA
ATOM      3  N   UNL     1       4.109   7.782  17.182  0.00  0.00    +0.000 NA
ATOM      4  C   UNL     1       3.958   6.487  17.549  0.00  0.00    +0.000 A 
ATOM      5  C   UNL     1       2.859   6.131  18.352  0.00  0.00    +0.000 A 
ATOM      6  N   UNL     1       1.921   7.046  18.721  0.00  0.00    +0.000 NA
ENDROOT
BRANCH   4   7
ATOM      7  C   UNL     1       4.998   5.580  17.020  0.00  0.00    +0.000 A 
ATOM      8  C   UNL     1       4.799   4.884  15.814  0.00  0.00    +0.000 A 
ATOM      9  C   UNL     1       5.820   4.117  15.243  0.00  0.00    +0.000 A 
ATOM     10  C   UNL     1       7.066   4.043  15.857  0.00  0.00    +0.000 A 
ATOM     11  C   UNL     1       7.270   4.677  17.076  0.00  0.00    +0.000 A 
ATOM     12  C   UNL     1       6.231   5.393  17.672  0.00  0.00    +0.000 A 
ENDBRANCH   4   7
BRANCH   5  13
ATOM     13  C   UNL     1       2.557   4.753  18.808  0.00  0.00    +0.000 A 
ATOM     14  C   UNL     1       3.322   4.101  19.794  0.00  0.00    +0.000 A 
ATOM     15  C   UNL     1       3.208   2.724  20.003  0.00  0.00    +0.000 A 
ATOM     16  C   UNL     1       2.260   1.987  19.300  0.00  0.00    +0.000 A 
ATOM     17  C   UNL     1       1.401   2.635  18.417  0.00  0.00    +0.000 A 
ATOM     18  C   UNL     1       1.548   4.004  18.173  0.00  0.00    +0.000 A 
ENDBRANCH   5  13
BRANCH   1  21
ATOM     19  N   UNL     1       0.012  10.918  19.499  0.00  0.00    +0.000 N 
ATOM     20  C   UNL     1       1.130  10.157  19.670  0.00  0.00    +0.000 A 
ATOM     21  C   UNL     1       1.113   9.296  18.592  0.00  0.00    +0.000 A 
ATOM     22  N   UNL     1      -0.013   9.534  17.847  0.00  0.00    +0.000 NA
ATOM     23  N   UNL     1      -0.686  10.519  18.424  0.00  0.00    +0.000 NA
BRANCH  19  29
ATOM     24  C   UNL     1       0.764  15.916  18.873  0.00  0.00    +0.000 C 
ATOM     25  O   UNL     1      -0.045  16.537  18.176  0.00  0.00    +0.000 OA
ATOM     26  N   UNL     1       0.552  14.586  19.219  0.00  0.00    +0.000 N 
ATOM     27  C   UNL     1      -0.521  13.862  18.531  0.00  0.00    +0.000 C 
ATOM     28  C   UNL     1      -1.310  13.009  19.510  0.00  0.00    +0.000 C 
ATOM     29  C   UNL     1      -0.399  12.063  20.297  0.00  0.00    +0.000 C 
ATOM     30  C   UNL     1       0.770  12.826  20.940  0.00  0.00    +0.000 C 
ATOM     31  C   UNL     1       1.495  13.758  19.968  0.00  0.00    +0.000 C 
BRANCH  24  32
ATOM     32  C   UNL     1       2.033  16.575  19.386  0.00  0.00    +0.000 C 
BRANCH  32  34
ATOM     33  C   UNL     1       3.500  15.694  17.526  0.00  0.00    +0.000 C 
ATOM     34  C   UNL     1       2.980  16.929  18.240  0.00  0.00    +0.000 C 
ENDBRANCH  32  34
ENDBRANCH  24  32
ENDBRANCH  19  29
ENDBRANCH   1  21
TORSDOF 6
ENDMDL
MODEL 9
REMARK VINA RESULT:      -8.1      2.092      2.815
REMARK  Name = 
REMARK  7 active torsions:
REMARK  status: ('A' for Active; 'I' for Inactive)
REMARK    1  A    between atoms: C_1  and  C_2
REMARK    2  A    between atoms: C_2  and  C_3
REMARK    3  A    between atoms: C_3  and  C_4
REMARK    4  A    between atoms: C_9  and  N_10
REMARK    5  A    between atoms: C_12  and  C_13
REMARK    6  A    between atoms: C_16  and  C_17
REMARK    7  A    between atoms: C_23  and  C_24
REMARK                            x       y       z     vdW  Elec       q    Type
REMARK                         _______ _______ _______ _____ _____    ______ ____
ROOT
ATOM      1  C   UNL     1       2.215   8.128  18.647  0.00  0.00    +0.000 A 
ATOM      2  N   UNL     1       3.159   8.731  17.899  0.00  0.00    +0.000 NA
ATOM      3  N   UNL     1       4.134   7.974  17.326  0.00  0.00    +0.000 NA
ATOM      4  C   UNL     1       4.128   6.630  17.496  0.00  0.00    +0.000 A 
ATOM      5  C   UNL     1       3.145   6.053  18.320  0.00  0.00    +0.000 A 
ATOM      6  N   UNL     1       2.174   6.806  18.905  0.00  0.00    +0.000 NA
ENDROOT
BRANCH   4   7
ATOM      7  C   UNL     1       5.185   5.918  16.747  0.00  0.00    +0.000 A 
ATOM      8  C   UNL     1       6.268   5.325  17.421  0.00  0.00    +0.000 A 
ATOM      9  C   UNL     1       7.209   4.548  16.738  0.00  0.00    +0.000 A 
ATOM     10  C   UNL     1       7.078   4.334  15.370  0.00  0.00    +0.000 A 
ATOM     11  C   UNL     1       6.049   4.954  14.672  0.00  0.00    +0.000 A 
ATOM     12  C   UNL     1       5.145   5.776  15.348  0.00  0.00    +0.000 A 
ENDBRANCH   4   7
BRANCH   5  13
ATOM     13  C   UNL     1       3.005   4.599  18.577  0.00  0.00    +0.000 A 
ATOM     14  C   UNL     1       3.635   3.961  19.663  0.00  0.00    +0.000 A 
ATOM     15  C   UNL     1       3.730   2.568  19.727  0.00  0.00    +0.000 A 
ATOM     16  C   UNL     1       3.116   1.782  18.758  0.00  0.00    +0.000 A 
ATOM     17  C   UNL     1       2.373   2.388  17.749  0.00  0.00    +0.000 A 
ATOM     18  C   UNL     1       2.319   3.782  17.659  0.00  0.00    +0.000 A 
ENDBRANCH   5  13
BRANCH   1  21
ATOM     19  N   UNL     1      -0.449  10.367  19.448  0.00  0.00    +0.000 N 
ATOM     20  C   UNL     1       0.423   9.895  18.513  0.00  0.00    +0.000 A 
ATOM     21  C   UNL     1       1.171   8.960  19.198  0.00  0.00    +0.000 A 
ATOM     22  N   UNL     1       0.761   8.931  20.506  0.00  0.00    +0.000 NA
ATOM     23  N   UNL     1      -0.219   9.811  20.649  0.00  0.00    +0.000 NA
BRANCH  19  29
ATOM     24  C   UNL     1      -0.599  15.458  19.466  0.00  0.00    +0.000 C 
ATOM     25  O   UNL     1      -0.337  16.045  18.410  0.00  0.00    +0.000 OA
ATOM     26  N   UNL     1      -0.729  14.074  19.512  0.00  0.00    +0.000 N 
ATOM     27  C   UNL     1      -0.299  13.306  18.340  0.00  0.00    +0.000 C 
ATOM     28  C   UNL     1      -1.295  12.203  18.022  0.00  0.00    +0.000 C 
ATOM     29  C   UNL     1      -1.544  11.301  19.234  0.00  0.00    +0.000 C 
ATOM     30  C   UNL     1      -1.909  12.129  20.476  0.00  0.00    +0.000 C 
ATOM     31  C   UNL     1      -0.956  13.298  20.729  0.00  0.00    +0.000 C 
BRANCH  24  32
ATOM     32  C   UNL     1      -0.792  16.219  20.766  0.00  0.00    +0.000 C 
BRANCH  32  34
ATOM     33  C   UNL     1      -3.261  16.169  21.301  0.00  0.00    +0.000 C 
ATOM     34  C   UNL     1      -2.106  16.997  20.766  0.00  0.00    +0.000 C 
ENDBRANCH  32  34
ENDBRANCH  24  32
ENDBRANCH  19  29
ENDBRANCH   1  21
TORSDOF 6
ENDMDL
