MODEL 1
REMARK VINA RESULT:      -6.0      0.000      0.000
REMARK  Name = 
REMARK  5 active torsions:
REMARK  status: ('A' for Active; 'I' for Inactive)
REMARK    1  A    between atoms: C_1  and  C_2
REMARK    2  A    between atoms: C_7  and  C_9
REMARK    3  A    between atoms: C_9  and  C_10
REMARK    4  A    between atoms: C_9  and  C_11
REMARK    5  A    between atoms: C_9  and  C_12
REMARK                            x       y       z     vdW  Elec       q    Type
REMARK                         _______ _______ _______ _____ _____    ______ ____
ROOT
ATOM      1  C   UNL     1       5.765   4.279  14.965  0.00  0.00    +0.000 C 
ATOM      2  C   UNL     1       5.568   4.380  16.435  0.00  0.00    +0.000 A 
ATOM      3  C   UNL     1       6.445   4.811  17.334  0.00  0.00    +0.000 A 
ATOM      4  C   UNL     1       5.738   4.704  18.609  0.00  0.00    +0.000 A 
ATOM      5  O   UNL     1       6.256   5.025  19.664  0.00  0.00    +0.000 OA
ATOM      6  N   UNL     1       4.477   4.192  18.334  0.00  0.00    +0.000 N 
ATOM      7  C   UNL     1       3.430   3.965  19.201  0.00  0.00    +0.000 C 
ATOM      8  O   UNL     1       3.542   4.145  20.420  0.00  0.00    +0.000 OA
ATOM      9  O   UNL     1       4.346   3.980  16.943  0.00  0.00    +0.000 OA
ENDROOT
BRANCH   7  10
ATOM     10  C   UNL     1       2.084   3.453  18.622  0.00  0.00    +0.000 C 
ATOM     11  C   UNL     1       2.249   2.064  17.986  0.00  0.00    +0.000 C 
ATOM     12  C   UNL     1       1.052   3.333  19.771  0.00  0.00    +0.000 C 
ATOM     13  C   UNL     1       1.505   4.447  17.603  0.00  0.00    +0.000 C 
ENDBRANCH   7  10
TORSDOF 1
ENDMDL
MODEL 2
REMARK VINA RESULT:      -6.0      1.940      2.336
REMARK  Name = 
REMARK  5 active torsions:
REMARK  status: ('A' for Active; 'I' for Inactive)
REMARK    1  A    between atoms: C_1  and  C_2
REMARK    2  A    between atoms: C_7  and  C_9
REMARK    3  A    between atoms: C_9  and  C_10
REMARK    4  A    between atoms: C_9  and  C_11
REMARK    5  A    between atoms: C_9  and  C_12
REMARK                            x       y       z     vdW  Elec       q    Type
REMARK                         _______ _______ _______ _____ _____    ______ ____
ROOT
ATOM      1  C   UNL     1       3.288   7.528  17.502  0.00  0.00    +0.000 C 
ATOM      2  C   UNL     1       3.847   6.301  18.126  0.00  0.00    +0.000 A 
ATOM      3  C   UNL     1       5.117   5.912  18.136  0.00  0.00    +0.000 A 
ATOM      4  C   UNL     1       5.105   4.653  18.880  0.00  0.00    +0.000 A 
ATOM      5  O   UNL     1       6.121   4.014  19.085  0.00  0.00    +0.000 OA
ATOM      6  N   UNL     1       3.786   4.405  19.239  0.00  0.00    +0.000 N 
ATOM      7  C   UNL     1       3.279   3.372  19.995  0.00  0.00    +0.000 C 
ATOM      8  O   UNL     1       3.994   2.451  20.406  0.00  0.00    +0.000 OA
ATOM      9  O   UNL     1       2.963   5.452  18.767  0.00  0.00    +0.000 OA
ENDROOT
BRANCH   7  10
ATOM     10  C   UNL     1       1.760   3.365  20.320  0.00  0.00    +0.000 C 
ATOM     11  C   UNL     1       0.953   2.735  19.174  0.00  0.00    +0.000 C 
ATOM     12  C   UNL     1       1.520   2.521  21.596  0.00  0.00    +0.000 C 
ATOM     13  C   UNL     1       1.251   4.784  20.620  0.00  0.00    +0.000 C 
ENDBRANCH   7  10
TORSDOF 1
ENDMDL
MODEL 3
REMARK VINA RESULT:      -6.0      1.208      1.441
REMARK  Name = 
REMARK  5 active torsions:
REMARK  status: ('A' for Active; 'I' for Inactive)
REMARK    1  A    between atoms: C_1  and  C_2
REMARK    2  A    between atoms: C_7  and  C_9
REMARK    3  A    between atoms: C_9  and  C_10
REMARK    4  A    between atoms: C_9  and  C_11
REMARK    5  A    between atoms: C_9  and  C_12
REMARK                            x       y       z     vdW  Elec       q    Type
REMARK                         _______ _______ _______ _____ _____    ______ ____
ROOT
ATOM      1  C   UNL     1       5.607   4.210  13.863  0.00  0.00    +0.000 C 
ATOM      2  C   UNL     1       5.919   4.240  15.316  0.00  0.00    +0.000 A 
ATOM      3  C   UNL     1       7.089   4.517  15.881  0.00  0.00    +0.000 A 
ATOM      4  C   UNL     1       6.833   4.406  17.315  0.00  0.00    +0.000 A 
ATOM      5  O   UNL     1       7.704   4.603  18.144  0.00  0.00    +0.000 OA
ATOM      6  N   UNL     1       5.499   4.051  17.466  0.00  0.00    +0.000 N 
ATOM      7  C   UNL     1       4.777   3.883  18.627  0.00  0.00    +0.000 C 
ATOM      8  O   UNL     1       5.304   3.973  19.742  0.00  0.00    +0.000 OA
ATOM      9  O   UNL     1       4.893   3.942  16.194  0.00  0.00    +0.000 OA
ENDROOT
BRANCH   7  10
ATOM     10  C   UNL     1       3.263   3.555  18.519  0.00  0.00    +0.000 C 
ATOM     11  C   UNL     1       3.040   2.192  17.847  0.00  0.00    +0.000 C 
ATOM     12  C   UNL     1       2.657   3.492  19.943  0.00  0.00    +0.000 C 
ATOM     13  C   UNL     1       2.509   4.659  17.761  0.00  0.00    +0.000 C 
ENDBRANCH   7  10
TORSDOF 1
ENDMDL
MODEL 4
REMARK VINA RESULT:      -5.9      0.209      1.252
REMARK  Name = 
REMARK  5 active torsions:
REMARK  status: ('A' for Active; 'I' for Inactive)
REMARK    1  A    between atoms: C_1  and  C_2
REMARK    2  A    between atoms: C_7  and  C_9
REMARK    3  A    between atoms: C_9  and  C_10
REMARK    4  A    between atoms: C_9  and  C_11
REMARK    5  A    between atoms: C_9  and  C_12
REMARK                            x       y       z     vdW  Elec       q    Type
REMARK                         _______ _______ _______ _____ _____    ______ ____
ROOT
ATOM      1  C   UNL     1       5.790   4.096  14.801  0.00  0.00    +0.000 C 
ATOM      2  C   UNL     1       5.623   4.235  16.272  0.00  0.00    +0.000 A 
ATOM      3  C   UNL     1       6.527   4.664  17.145  0.00  0.00    +0.000 A 
ATOM      4  C   UNL     1       5.842   4.602  18.435  0.00  0.00    +0.000 A 
ATOM      5  O   UNL     1       6.387   4.934  19.473  0.00  0.00    +0.000 OA
ATOM      6  N   UNL     1       4.564   4.115  18.195  0.00  0.00    +0.000 N 
ATOM      7  C   UNL     1       3.529   3.932  19.086  0.00  0.00    +0.000 C 
ATOM      8  O   UNL     1       3.667   4.136  20.298  0.00  0.00    +0.000 OA
ATOM      9  O   UNL     1       4.402   3.875  16.812  0.00  0.00    +0.000 OA
ENDROOT
BRANCH   7  10
ATOM     10  C   UNL     1       2.160   3.439  18.543  0.00  0.00    +0.000 C 
ATOM     11  C   UNL     1       1.540   4.472  17.589  0.00  0.00    +0.000 C 
ATOM     12  C   UNL     1       2.373   2.124  17.753  0.00  0.00    +0.000 C 
ATOM     13  C   UNL     1       1.191   3.118  19.692  0.00  0.00    +0.000 C 
ENDBRANCH   7  10
TORSDOF 1
ENDMDL
MODEL 5
REMARK VINA RESULT:      -5.9      1.941      2.700
REMARK  Name = 
REMARK  5 active torsions:
REMARK  status: ('A' for Active; 'I' for Inactive)
REMARK    1  A    between atoms: C_1  and  C_2
REMARK    2  A    between atoms: C_7  and  C_9
REMARK    3  A    between atoms: C_9  and  C_10
REMARK    4  A    between atoms: C_9  and  C_11
REMARK    5  A    between atoms: C_9  and  C_12
REMARK                            x       y       z     vdW  Elec       q    Type
REMARK                         _______ _______ _______ _____ _____    ______ ____
ROOT
ATOM      1  C   UNL     1       3.101   7.663  17.606  0.00  0.00    +0.000 C 
ATOM      2  C   UNL     1       3.710   6.417  18.144  0.00  0.00    +0.000 A 
ATOM      3  C   UNL     1       4.979   6.038  18.048  0.00  0.00    +0.000 A 
ATOM      4  C   UNL     1       5.025   4.754  18.745  0.00  0.00    +0.000 A 
ATOM      5  O   UNL     1       6.057   4.115  18.854  0.00  0.00    +0.000 OA
ATOM      6  N   UNL     1       3.737   4.483  19.188  0.00  0.00    +0.000 N 
ATOM      7  C   UNL     1       3.290   3.419  19.941  0.00  0.00    +0.000 C 
ATOM      8  O   UNL     1       4.038   2.489  20.266  0.00  0.00    +0.000 OA
ATOM      9  O   UNL     1       2.877   5.540  18.815  0.00  0.00    +0.000 OA
ENDROOT
BRANCH   7  10
ATOM     10  C   UNL     1       1.798   3.390  20.373  0.00  0.00    +0.000 C 
ATOM     11  C   UNL     1       1.275   4.808  20.646  0.00  0.00    +0.000 C 
ATOM     12  C   UNL     1       0.953   2.780  19.227  0.00  0.00    +0.000 C 
ATOM     13  C   UNL     1       1.595   2.494  21.604  0.00  0.00    +0.000 C 
ENDBRANCH   7  10
TORSDOF 1
ENDMDL
MODEL 6
REMARK VINA RESULT:      -5.9      1.223      1.916
REMARK  Name = 
REMARK  5 active torsions:
REMARK  status: ('A' for Active; 'I' for Inactive)
REMARK    1  A    between atoms: C_1  and  C_2
REMARK    2  A    between atoms: C_7  and  C_9
REMARK    3  A    between atoms: C_9  and  C_10
REMARK    4  A    between atoms: C_9  and  C_11
REMARK    5  A    between atoms: C_9  and  C_12
REMARK                            x       y       z     vdW  Elec       q    Type
REMARK                         _______ _______ _______ _____ _____    ______ ____
ROOT
ATOM      1  C   UNL     1       5.641   4.162  13.856  0.00  0.00    +0.000 C 
ATOM      2  C   UNL     1       5.956   4.217  15.308  0.00  0.00    +0.000 A 
ATOM      3  C   UNL     1       7.122   4.522  15.865  0.00  0.00    +0.000 A 
ATOM      4  C   UNL     1       6.873   4.427  17.302  0.00  0.00    +0.000 A 
ATOM      5  O   UNL     1       7.743   4.651  18.125  0.00  0.00    +0.000 OA
ATOM      6  N   UNL     1       5.546   4.052  17.461  0.00  0.00    +0.000 N 
ATOM      7  C   UNL     1       4.829   3.888  18.627  0.00  0.00    +0.000 C 
ATOM      8  O   UNL     1       5.358   4.003  19.739  0.00  0.00    +0.000 OA
ATOM      9  O   UNL     1       4.938   3.914  16.193  0.00  0.00    +0.000 OA
ENDROOT
BRANCH   7  10
ATOM     10  C   UNL     1       3.321   3.534  18.529  0.00  0.00    +0.000 C 
ATOM     11  C   UNL     1       2.560   4.581  17.701  0.00  0.00    +0.000 C 
ATOM     12  C   UNL     1       3.169   2.164  17.822  0.00  0.00    +0.000 C 
ATOM     13  C   UNL     1       2.693   3.389  19.923  0.00  0.00    +0.000 C 
ENDBRANCH   7  10
TORSDOF 1
ENDMDL
MODEL 7
REMARK VINA RESULT:      -5.9      1.599      2.068
REMARK  Name = 
REMARK  5 active torsions:
REMARK  status: ('A' for Active; 'I' for Inactive)
REMARK    1  A    between atoms: C_1  and  C_2
REMARK    2  A    between atoms: C_7  and  C_9
REMARK    3  A    between atoms: C_9  and  C_10
REMARK    4  A    between atoms: C_9  and  C_11
REMARK    5  A    between atoms: C_9  and  C_12
REMARK                            x       y       z     vdW  Elec       q    Type
REMARK                         _______ _______ _______ _____ _____    ______ ____
ROOT
ATOM      1  C   UNL     1       5.615   4.270  13.978  0.00  0.00    +0.000 C 
ATOM      2  C   UNL     1       5.952   4.439  15.416  0.00  0.00    +0.000 A 
ATOM      3  C   UNL     1       7.141   4.282  15.986  0.00  0.00    +0.000 A 
ATOM      4  C   UNL     1       6.906   4.570  17.399  0.00  0.00    +0.000 A 
ATOM      5  O   UNL     1       7.800   4.523  18.225  0.00  0.00    +0.000 OA
ATOM      6  N   UNL     1       5.557   4.867  17.536  0.00  0.00    +0.000 N 
ATOM      7  C   UNL     1       4.869   5.257  18.665  0.00  0.00    +0.000 C 
ATOM      8  O   UNL     1       5.416   5.320  19.772  0.00  0.00    +0.000 OA
ATOM      9  O   UNL     1       4.926   4.792  16.274  0.00  0.00    +0.000 OA
ENDROOT
BRANCH   7  10
ATOM     10  C   UNL     1       3.362   5.607  18.533  0.00  0.00    +0.000 C 
ATOM     11  C   UNL     1       2.609   4.520  17.751  0.00  0.00    +0.000 C 
ATOM     12  C   UNL     1       2.739   5.698  19.947  0.00  0.00    +0.000 C 
ATOM     13  C   UNL     1       3.168   6.980  17.870  0.00  0.00    +0.000 C 
ENDBRANCH   7  10
TORSDOF 1
ENDMDL
MODEL 8
REMARK VINA RESULT:      -5.9      0.143      1.179
REMARK  Name = 
REMARK  5 active torsions:
REMARK  status: ('A' for Active; 'I' for Inactive)
REMARK    1  A    between atoms: C_1  and  C_2
REMARK    2  A    between atoms: C_7  and  C_9
REMARK    3  A    between atoms: C_9  and  C_10
REMARK    4  A    between atoms: C_9  and  C_11
REMARK    5  A    between atoms: C_9  and  C_12
REMARK                            x       y       z     vdW  Elec       q    Type
REMARK                         _______ _______ _______ _____ _____    ______ ____
ROOT
ATOM      1  C   UNL     1       5.914   4.236  15.079  0.00  0.00    +0.000 C 
ATOM      2  C   UNL     1       5.657   4.367  16.538  0.00  0.00    +0.000 A 
ATOM      3  C   UNL     1       6.481   4.855  17.458  0.00  0.00    +0.000 A 
ATOM      4  C   UNL     1       5.731   4.752  18.708  0.00  0.00    +0.000 A 
ATOM      5  O   UNL     1       6.195   5.120  19.772  0.00  0.00    +0.000 OA
ATOM      6  N   UNL     1       4.502   4.184  18.399  0.00  0.00    +0.000 N 
ATOM      7  C   UNL     1       3.432   3.938  19.233  0.00  0.00    +0.000 C 
ATOM      8  O   UNL     1       3.490   4.153  20.449  0.00  0.00    +0.000 OA
ATOM      9  O   UNL     1       4.432   3.932  17.011  0.00  0.00    +0.000 OA
ENDROOT
BRANCH   7  10
ATOM     10  C   UNL     1       2.130   3.358  18.618  0.00  0.00    +0.000 C 
ATOM     11  C   UNL     1       1.074   3.099  19.704  0.00  0.00    +0.000 C 
ATOM     12  C   UNL     1       1.544   4.383  17.616  0.00  0.00    +0.000 C 
ATOM     13  C   UNL     1       2.415   2.072  17.826  0.00  0.00    +0.000 C 
ENDBRANCH   7  10
TORSDOF 1
ENDMDL
MODEL 9
REMARK VINA RESULT:      -5.9      1.206      1.843
REMARK  Name = 
REMARK  5 active torsions:
REMARK  status: ('A' for Active; 'I' for Inactive)
REMARK    1  A    between atoms: C_1  and  C_2
REMARK    2  A    between atoms: C_7  and  C_9
REMARK    3  A    between atoms: C_9  and  C_10
REMARK    4  A    between atoms: C_9  and  C_11
REMARK    5  A    between atoms: C_9  and  C_12
REMARK                            x       y       z     vdW  Elec       q    Type
REMARK                         _______ _______ _______ _____ _____    ______ ____
ROOT
ATOM      1  C   UNL     1       5.637   4.167  13.889  0.00  0.00    +0.000 C 
ATOM      2  C   UNL     1       5.948   4.221  15.341  0.00  0.00    +0.000 A 
ATOM      3  C   UNL     1       7.115   4.515  15.902  0.00  0.00    +0.000 A 
ATOM      4  C   UNL     1       6.860   4.424  17.338  0.00  0.00    +0.000 A 
ATOM      5  O   UNL     1       7.730   4.640  18.164  0.00  0.00    +0.000 OA
ATOM      6  N   UNL     1       5.529   4.062  17.494  0.00  0.00    +0.000 N 
ATOM      7  C   UNL     1       4.808   3.907  18.658  0.00  0.00    +0.000 C 
ATOM      8  O   UNL     1       5.334   4.017  19.771  0.00  0.00    +0.000 OA
ATOM      9  O   UNL     1       4.924   3.929  16.224  0.00  0.00    +0.000 OA
ENDROOT
BRANCH   7  10
ATOM     10  C   UNL     1       3.296   3.566  18.554  0.00  0.00    +0.000 C 
ATOM     11  C   UNL     1       2.653   3.481  19.947  0.00  0.00    +0.000 C 
ATOM     12  C   UNL     1       2.578   4.687  17.764  0.00  0.00    +0.000 C 
ATOM     13  C   UNL     1       3.074   2.259  17.778  0.00  0.00    +0.000 C 
ENDBRANCH   7  10
TORSDOF 1
ENDMDL
