MODEL 1
REMARK VINA RESULT:      -7.6      0.000      0.000
REMARK  Name = 
REMARK  10 active torsions:
REMARK  status: ('A' for Active; 'I' for Inactive)
REMARK    1  A    between atoms: C_1  and  C_2
REMARK    2  A    between atoms: C_2  and  O_3
REMARK    3  A    between atoms: O_3  and  C_4
REMARK    4  A    between atoms: C_7  and  N_8
REMARK    5  A    between atoms: C_9  and  C_11
REMARK    6  A    between atoms: C_11  and  C_12
REMARK    7  A    between atoms: C_12  and  C_13
REMARK    8  A    between atoms: C_14  and  C_15
REMARK    9  A    between atoms: C_20  and  C_21
REMARK   10  A    between atoms: C_26  and  C_27
REMARK                            x       y       z     vdW  Elec       q    Type
REMARK                         _______ _______ _______ _____ _____    ______ ____
ROOT
ATOM      1  C   UNL     1       1.283   8.484  20.240  0.00  0.00    +0.000 A 
ATOM      2  C   UNL     1       1.280   9.071  18.946  0.00  0.00    +0.000 A 
ATOM      3  C   UNL     1       2.213   8.797  17.819  0.00  0.00    +0.000 C 
ATOM      4  N   UNL     1       0.285   9.964  18.804  0.00  0.00    +0.000 NA
ATOM      5  N   UNL     1      -0.208  10.116  20.069  0.00  0.00    +0.000 N 
ATOM      6  C   UNL     1      -1.136  11.126  20.378  0.00  0.00    +0.000 A 
ATOM      7  N   UNL     1      -1.254  11.594  21.578  0.00  0.00    +0.000 NA
ATOM      8  C   UNL     1      -2.273  12.475  21.811  0.00  0.00    +0.000 A 
ATOM      9  C   UNL     1      -2.327  13.026  23.208  0.00  0.00    +0.000 C 
ATOM     10  C   UNL     1      -3.200  12.776  20.890  0.00  0.00    +0.000 A 
ATOM     11  C   UNL     1      -3.067  12.187  19.539  0.00  0.00    +0.000 A 
ATOM     12  O   UNL     1      -3.958  12.309  18.707  0.00  0.00    +0.000 OA
ATOM     13  N   UNL     1      -1.926  11.473  19.322  0.00  0.00    +0.000 N 
ATOM     14  C   UNL     1       0.291   9.154  20.928  0.00  0.00    +0.000 A 
ATOM     15  C   UNL     1      -0.209   8.932  22.312  0.00  0.00    +0.000 C 
ATOM     16  H   UNL     1      -1.803  11.010  18.429  0.00  0.00    +0.000 HD
ENDROOT
BRANCH   1  17
ATOM     17  C   UNL     1       2.166   7.424  20.804  0.00  0.00    +0.000 C 
BRANCH  17  18
ATOM     18  C   UNL     1       1.733   5.998  20.442  0.00  0.00    +0.000 C 
BRANCH  18  20
ATOM     19  N   UNL     1       3.818   5.999  19.180  0.00  0.00    +0.000 N 
ATOM     20  C   UNL     1       2.509   5.540  19.219  0.00  0.00    +0.000 C 
ATOM     21  O   UNL     1       1.976   4.826  18.379  0.00  0.00    +0.000 OA
ATOM     22  H   UNL     1       4.134   6.587  19.942  0.00  0.00    +0.000 HD
BRANCH  19  26
ATOM     23  C   UNL     1       6.742   5.020  16.267  0.00  0.00    +0.000 A 
ATOM     24  C   UNL     1       5.527   5.567  15.870  0.00  0.00    +0.000 A 
ATOM     25  C   UNL     1       4.559   5.910  16.817  0.00  0.00    +0.000 A 
ATOM     26  C   UNL     1       4.774   5.691  18.180  0.00  0.00    +0.000 A 
ATOM     27  C   UNL     1       5.993   5.122  18.571  0.00  0.00    +0.000 A 
ATOM     28  C   UNL     1       6.971   4.783  17.620  0.00  0.00    +0.000 A 
BRANCH  23  29
ATOM     29  O   UNL     1       7.604   4.747  15.244  0.00  0.00    +0.000 OA
BRANCH  29  31
ATOM     30  C   UNL     1       8.038   5.440  13.009  0.00  0.00    +0.000 C 
ATOM     31  C   UNL     1       7.051   4.745  13.930  0.00  0.00    +0.000 C 
ENDBRANCH  29  31
ENDBRANCH  23  29
ENDBRANCH  19  26
ENDBRANCH  18  20
ENDBRANCH  17  18
ENDBRANCH   1  17
TORSDOF 6
ENDMDL
MODEL 2
REMARK VINA RESULT:      -7.4      1.377      1.641
REMARK  Name = 
REMARK  10 active torsions:
REMARK  status: ('A' for Active; 'I' for Inactive)
REMARK    1  A    between atoms: C_1  and  C_2
REMARK    2  A    between atoms: C_2  and  O_3
REMARK    3  A    between atoms: O_3  and  C_4
REMARK    4  A    between atoms: C_7  and  N_8
REMARK    5  A    between atoms: C_9  and  C_11
REMARK    6  A    between atoms: C_11  and  C_12
REMARK    7  A    between atoms: C_12  and  C_13
REMARK    8  A    between atoms: C_14  and  C_15
REMARK    9  A    between atoms: C_20  and  C_21
REMARK   10  A    between atoms: C_26  and  C_27
REMARK                            x       y       z     vdW  Elec       q    Type
REMARK                         _______ _______ _______ _____ _____    ______ ____
ROOT
ATOM      1  C   UNL     1       0.663   9.356  20.593  0.00  0.00    +0.000 A 
ATOM      2  C   UNL     1       0.382   9.866  19.297  0.00  0.00    +0.000 A 
ATOM      3  C   UNL     1       1.046   9.509  18.014  0.00  0.00    +0.000 C 
ATOM      4  N   UNL     1      -0.614  10.769  19.321  0.00  0.00    +0.000 NA
ATOM      5  N   UNL     1      -0.818  11.004  20.651  0.00  0.00    +0.000 N 
ATOM      6  C   UNL     1      -1.650  12.048  21.091  0.00  0.00    +0.000 A 
ATOM      7  N   UNL     1      -1.500  12.587  22.257  0.00  0.00    +0.000 NA
ATOM      8  C   UNL     1      -2.439  13.500  22.652  0.00  0.00    +0.000 A 
ATOM      9  C   UNL     1      -2.184  14.132  23.992  0.00  0.00    +0.000 C 
ATOM     10  C   UNL     1      -3.542  13.766  21.938  0.00  0.00    +0.000 A 
ATOM     11  C   UNL     1      -3.710  13.097  20.628  0.00  0.00    +0.000 A 
ATOM     12  O   UNL     1      -4.761  13.187  20.004  0.00  0.00    +0.000 OA
ATOM     13  N   UNL     1      -2.649  12.349  20.213  0.00  0.00    +0.000 N 
ATOM     14  C   UNL     1      -0.151  10.083  21.438  0.00  0.00    +0.000 A 
ATOM     15  C   UNL     1      -0.338   9.952  22.909  0.00  0.00    +0.000 C 
ATOM     16  H   UNL     1      -2.727  11.832  19.345  0.00  0.00    +0.000 HD
ENDROOT
BRANCH   1  17
ATOM     17  C   UNL     1       1.641   8.313  21.016  0.00  0.00    +0.000 C 
BRANCH  17  18
ATOM     18  C   UNL     1       1.065   6.892  21.029  0.00  0.00    +0.000 C 
BRANCH  18  20
ATOM     19  N   UNL     1       2.295   6.338  19.000  0.00  0.00    +0.000 N 
ATOM     20  C   UNL     1       2.025   5.961  20.307  0.00  0.00    +0.000 C 
ATOM     21  O   UNL     1       2.490   4.984  20.882  0.00  0.00    +0.000 OA
ATOM     22  H   UNL     1       1.840   7.171  18.646  0.00  0.00    +0.000 HD
BRANCH  19  26
ATOM     23  C   UNL     1       5.023   4.457  16.351  0.00  0.00    +0.000 A 
ATOM     24  C   UNL     1       4.012   3.711  16.946  0.00  0.00    +0.000 A 
ATOM     25  C   UNL     1       3.096   4.318  17.809  0.00  0.00    +0.000 A 
ATOM     26  C   UNL     1       3.184   5.677  18.115  0.00  0.00    +0.000 A 
ATOM     27  C   UNL     1       4.217   6.419  17.526  0.00  0.00    +0.000 A 
ATOM     28  C   UNL     1       5.135   5.812  16.652  0.00  0.00    +0.000 A 
BRANCH  23  29
ATOM     29  O   UNL     1       5.839   3.746  15.518  0.00  0.00    +0.000 OA
BRANCH  29  31
ATOM     30  C   UNL     1       7.222   4.850  13.927  0.00  0.00    +0.000 C 
ATOM     31  C   UNL     1       5.883   4.172  14.158  0.00  0.00    +0.000 C 
ENDBRANCH  29  31
ENDBRANCH  23  29
ENDBRANCH  19  26
ENDBRANCH  18  20
ENDBRANCH  17  18
ENDBRANCH   1  17
TORSDOF 6
ENDMDL
MODEL 3
REMARK VINA RESULT:      -7.4      2.678     10.841
REMARK  Name = 
REMARK  10 active torsions:
REMARK  status: ('A' for Active; 'I' for Inactive)
REMARK    1  A    between atoms: C_1  and  C_2
REMARK    2  A    between atoms: C_2  and  O_3
REMARK    3  A    between atoms: O_3  and  C_4
REMARK    4  A    between atoms: C_7  and  N_8
REMARK    5  A    between atoms: C_9  and  C_11
REMARK    6  A    between atoms: C_11  and  C_12
REMARK    7  A    between atoms: C_12  and  C_13
REMARK    8  A    between atoms: C_14  and  C_15
REMARK    9  A    between atoms: C_20  and  C_21
REMARK   10  A    between atoms: C_26  and  C_27
REMARK                            x       y       z     vdW  Elec       q    Type
REMARK                         _______ _______ _______ _____ _____    ______ ____
ROOT
ATOM      1  C   UNL     1       1.661   8.128  19.952  0.00  0.00    +0.000 A 
ATOM      2  C   UNL     1       2.009   8.794  18.747  0.00  0.00    +0.000 A 
ATOM      3  C   UNL     1       1.646  10.177  18.332  0.00  0.00    +0.000 C 
ATOM      4  N   UNL     1       2.757   8.016  17.944  0.00  0.00    +0.000 NA
ATOM      5  N   UNL     1       2.699   6.783  18.529  0.00  0.00    +0.000 N 
ATOM      6  C   UNL     1       3.193   5.639  17.877  0.00  0.00    +0.000 A 
ATOM      7  N   UNL     1       2.750   4.457  18.155  0.00  0.00    +0.000 NA
ATOM      8  C   UNL     1       3.384   3.395  17.571  0.00  0.00    +0.000 A 
ATOM      9  C   UNL     1       2.792   2.051  17.889  0.00  0.00    +0.000 C 
ATOM     10  C   UNL     1       4.491   3.528  16.827  0.00  0.00    +0.000 A 
ATOM     11  C   UNL     1       5.004   4.892  16.565  0.00  0.00    +0.000 A 
ATOM     12  O   UNL     1       6.087   5.064  16.019  0.00  0.00    +0.000 OA
ATOM     13  N   UNL     1       4.217   5.909  17.017  0.00  0.00    +0.000 N 
ATOM     14  C   UNL     1       2.150   6.847  19.796  0.00  0.00    +0.000 A 
ATOM     15  C   UNL     1       2.138   5.711  20.758  0.00  0.00    +0.000 C 
ATOM     16  H   UNL     1       4.541   6.862  16.905  0.00  0.00    +0.000 HD
ENDROOT
BRANCH   1  17
ATOM     17  C   UNL     1       0.896   8.627  21.131  0.00  0.00    +0.000 C 
BRANCH  17  18
ATOM     18  C   UNL     1      -0.203   9.636  20.775  0.00  0.00    +0.000 C 
BRANCH  18  20
ATOM     19  N   UNL     1      -1.384  11.539  21.735  0.00  0.00    +0.000 N 
ATOM     20  C   UNL     1      -0.454  10.537  21.972  0.00  0.00    +0.000 C 
ATOM     21  O   UNL     1       0.137  10.344  23.028  0.00  0.00    +0.000 OA
ATOM     22  H   UNL     1      -1.799  11.588  20.812  0.00  0.00    +0.000 HD
BRANCH  19  26
ATOM     23  C   UNL     1      -2.825  14.310  24.606  0.00  0.00    +0.000 A 
ATOM     24  C   UNL     1      -1.595  14.524  23.996  0.00  0.00    +0.000 A 
ATOM     25  C   UNL     1      -1.112  13.630  23.037  0.00  0.00    +0.000 A 
ATOM     26  C   UNL     1      -1.837  12.490  22.684  0.00  0.00    +0.000 A 
ATOM     27  C   UNL     1      -3.068  12.271  23.316  0.00  0.00    +0.000 A 
ATOM     28  C   UNL     1      -3.559  13.173  24.275  0.00  0.00    +0.000 A 
BRANCH  23  29
ATOM     29  O   UNL     1      -3.186  15.267  25.510  0.00  0.00    +0.000 OA
BRANCH  29  31
ATOM     30  C   UNL     1      -4.885  16.663  24.600  0.00  0.00    +0.000 C 
ATOM     31  C   UNL     1      -3.421  16.575  24.991  0.00  0.00    +0.000 C 
ENDBRANCH  29  31
ENDBRANCH  23  29
ENDBRANCH  19  26
ENDBRANCH  18  20
ENDBRANCH  17  18
ENDBRANCH   1  17
TORSDOF 6
ENDMDL
MODEL 4
REMARK VINA RESULT:      -7.3      2.805     10.641
REMARK  Name = 
REMARK  10 active torsions:
REMARK  status: ('A' for Active; 'I' for Inactive)
REMARK    1  A    between atoms: C_1  and  C_2
REMARK    2  A    between atoms: C_2  and  O_3
REMARK    3  A    between atoms: O_3  and  C_4
REMARK    4  A    between atoms: C_7  and  N_8
REMARK    5  A    between atoms: C_9  and  C_11
REMARK    6  A    between atoms: C_11  and  C_12
REMARK    7  A    between atoms: C_12  and  C_13
REMARK    8  A    between atoms: C_14  and  C_15
REMARK    9  A    between atoms: C_20  and  C_21
REMARK   10  A    between atoms: C_26  and  C_27
REMARK                            x       y       z     vdW  Elec       q    Type
REMARK                         _______ _______ _______ _____ _____    ______ ____
ROOT
ATOM      1  C   UNL     1       4.406   5.175  17.439  0.00  0.00    +0.000 A 
ATOM      2  C   UNL     1       4.418   3.754  17.442  0.00  0.00    +0.000 A 
ATOM      3  C   UNL     1       4.004   2.842  18.542  0.00  0.00    +0.000 C 
ATOM      4  N   UNL     1       4.866   3.256  16.276  0.00  0.00    +0.000 NA
ATOM      5  N   UNL     1       5.350   4.347  15.612  0.00  0.00    +0.000 N 
ATOM      6  C   UNL     1       6.094   4.213  14.426  0.00  0.00    +0.000 A 
ATOM      7  N   UNL     1       6.937   5.119  14.049  0.00  0.00    +0.000 NA
ATOM      8  C   UNL     1       7.512   4.968  12.818  0.00  0.00    +0.000 A 
ATOM      9  C   UNL     1       8.521   6.021  12.457  0.00  0.00    +0.000 C 
ATOM     10  C   UNL     1       7.157   3.998  11.963  0.00  0.00    +0.000 A 
ATOM     11  C   UNL     1       6.154   3.003  12.404  0.00  0.00    +0.000 A 
ATOM     12  O   UNL     1       5.687   2.187  11.618  0.00  0.00    +0.000 OA
ATOM     13  N   UNL     1       5.766   3.102  13.706  0.00  0.00    +0.000 N 
ATOM     14  C   UNL     1       4.980   5.525  16.233  0.00  0.00    +0.000 A 
ATOM     15  C   UNL     1       5.181   6.877  15.644  0.00  0.00    +0.000 C 
ATOM     16  H   UNL     1       5.048   2.475  14.050  0.00  0.00    +0.000 HD
ENDROOT
BRANCH   1  17
ATOM     17  C   UNL     1       3.944   6.127  18.489  0.00  0.00    +0.000 C 
BRANCH  17  18
ATOM     18  C   UNL     1       2.579   6.760  18.194  0.00  0.00    +0.000 C 
BRANCH  18  20
ATOM     19  N   UNL     1       1.515   8.607  19.375  0.00  0.00    +0.000 N 
ATOM     20  C   UNL     1       2.000   7.312  19.486  0.00  0.00    +0.000 C 
ATOM     21  O   UNL     1       1.984   6.625  20.501  0.00  0.00    +0.000 OA
ATOM     22  H   UNL     1       1.591   9.064  18.475  0.00  0.00    +0.000 HD
BRANCH  19  26
ATOM     23  C   UNL     1      -0.362  10.723  22.538  0.00  0.00    +0.000 A 
ATOM     24  C   UNL     1       0.069  11.408  21.408  0.00  0.00    +0.000 A 
ATOM     25  C   UNL     1       0.675  10.725  20.351  0.00  0.00    +0.000 A 
ATOM     26  C   UNL     1       0.885   9.346  20.409  0.00  0.00    +0.000 A 
ATOM     27  C   UNL     1       0.464   8.663  21.558  0.00  0.00    +0.000 A 
ATOM     28  C   UNL     1      -0.152   9.348  22.620  0.00  0.00    +0.000 A 
BRANCH  23  29
ATOM     29  O   UNL     1      -0.953  11.506  23.487  0.00  0.00    +0.000 OA
BRANCH  29  31
ATOM     30  C   UNL     1      -3.151  12.393  23.282  0.00  0.00    +0.000 C 
ATOM     31  C   UNL     1      -1.677  12.640  23.015  0.00  0.00    +0.000 C 
ENDBRANCH  29  31
ENDBRANCH  23  29
ENDBRANCH  19  26
ENDBRANCH  18  20
ENDBRANCH  17  18
ENDBRANCH   1  17
TORSDOF 6
ENDMDL
MODEL 5
REMARK VINA RESULT:      -7.3      2.401     10.356
REMARK  Name = 
REMARK  10 active torsions:
REMARK  status: ('A' for Active; 'I' for Inactive)
REMARK    1  A    between atoms: C_1  and  C_2
REMARK    2  A    between atoms: C_2  and  O_3
REMARK    3  A    between atoms: O_3  and  C_4
REMARK    4  A    between atoms: C_7  and  N_8
REMARK    5  A    between atoms: C_9  and  C_11
REMARK    6  A    between atoms: C_11  and  C_12
REMARK    7  A    between atoms: C_12  and  C_13
REMARK    8  A    between atoms: C_14  and  C_15
REMARK    9  A    between atoms: C_20  and  C_21
REMARK   10  A    between atoms: C_26  and  C_27
REMARK                            x       y       z     vdW  Elec       q    Type
REMARK                         _______ _______ _______ _____ _____    ______ ____
ROOT
ATOM      1  C   UNL     1       1.465   8.833  19.623  0.00  0.00    +0.000 A 
ATOM      2  C   UNL     1       1.069   8.226  20.845  0.00  0.00    +0.000 A 
ATOM      3  C   UNL     1       0.284   8.836  21.952  0.00  0.00    +0.000 C 
ATOM      4  N   UNL     1       1.491   6.952  20.930  0.00  0.00    +0.000 NA
ATOM      5  N   UNL     1       2.343   6.813  19.872  0.00  0.00    +0.000 N 
ATOM      6  C   UNL     1       3.153   5.672  19.728  0.00  0.00    +0.000 A 
ATOM      7  N   UNL     1       4.258   5.706  19.058  0.00  0.00    +0.000 NA
ATOM      8  C   UNL     1       4.908   4.519  18.858  0.00  0.00    +0.000 A 
ATOM      9  C   UNL     1       6.212   4.629  18.120  0.00  0.00    +0.000 C 
ATOM     10  C   UNL     1       4.395   3.338  19.227  0.00  0.00    +0.000 A 
ATOM     11  C   UNL     1       3.104   3.325  19.951  0.00  0.00    +0.000 A 
ATOM     12  O   UNL     1       2.520   2.273  20.181  0.00  0.00    +0.000 OA
ATOM     13  N   UNL     1       2.608   4.551  20.283  0.00  0.00    +0.000 N 
ATOM     14  C   UNL     1       2.254   7.884  19.003  0.00  0.00    +0.000 A 
ATOM     15  C   UNL     1       2.903   7.928  17.664  0.00  0.00    +0.000 C 
ATOM     16  H   UNL     1       1.705   4.604  20.739  0.00  0.00    +0.000 HD
ENDROOT
BRANCH   1  17
ATOM     17  C   UNL     1       1.173  10.197  19.097  0.00  0.00    +0.000 C 
BRANCH  17  18
ATOM     18  C   UNL     1      -0.009  10.246  18.122  0.00  0.00    +0.000 C 
BRANCH  18  20
ATOM     19  N   UNL     1      -1.019  11.523  19.935  0.00  0.00    +0.000 N 
ATOM     20  C   UNL     1      -1.261  10.654  18.880  0.00  0.00    +0.000 C 
ATOM     21  O   UNL     1      -2.358  10.227  18.541  0.00  0.00    +0.000 OA
ATOM     22  H   UNL     1      -0.060  11.797  20.109  0.00  0.00    +0.000 HD
BRANCH  19  26
ATOM     23  C   UNL     1      -3.905  13.197  22.555  0.00  0.00    +0.000 A 
ATOM     24  C   UNL     1      -3.985  13.446  21.190  0.00  0.00    +0.000 A 
ATOM     25  C   UNL     1      -3.052  12.890  20.311  0.00  0.00    +0.000 A 
ATOM     26  C   UNL     1      -2.005  12.093  20.779  0.00  0.00    +0.000 A 
ATOM     27  C   UNL     1      -1.920  11.861  22.159  0.00  0.00    +0.000 A 
ATOM     28  C   UNL     1      -2.862  12.414  23.044  0.00  0.00    +0.000 A 
BRANCH  23  29
ATOM     29  O   UNL     1      -4.887  13.786  23.299  0.00  0.00    +0.000 OA
BRANCH  29  31
ATOM     30  C   UNL     1      -6.971  12.638  23.269  0.00  0.00    +0.000 C 
ATOM     31  C   UNL     1      -5.711  12.913  24.069  0.00  0.00    +0.000 C 
ENDBRANCH  29  31
ENDBRANCH  23  29
ENDBRANCH  19  26
ENDBRANCH  18  20
ENDBRANCH  17  18
ENDBRANCH   1  17
TORSDOF 6
ENDMDL
MODEL 6
REMARK VINA RESULT:      -7.3      2.157      2.985
REMARK  Name = 
REMARK  10 active torsions:
REMARK  status: ('A' for Active; 'I' for Inactive)
REMARK    1  A    between atoms: C_1  and  C_2
REMARK    2  A    between atoms: C_2  and  O_3
REMARK    3  A    between atoms: O_3  and  C_4
REMARK    4  A    between atoms: C_7  and  N_8
REMARK    5  A    between atoms: C_9  and  C_11
REMARK    6  A    between atoms: C_11  and  C_12
REMARK    7  A    between atoms: C_12  and  C_13
REMARK    8  A    between atoms: C_14  and  C_15
REMARK    9  A    between atoms: C_20  and  C_21
REMARK   10  A    between atoms: C_26  and  C_27
REMARK                            x       y       z     vdW  Elec       q    Type
REMARK                         _______ _______ _______ _____ _____    ______ ____
ROOT
ATOM      1  C   UNL     1      -0.560  11.049  19.048  0.00  0.00    +0.000 A 
ATOM      2  C   UNL     1      -1.796  10.995  18.349  0.00  0.00    +0.000 A 
ATOM      3  C   UNL     1      -2.042  10.488  16.971  0.00  0.00    +0.000 C 
ATOM      4  N   UNL     1      -2.811  11.472  19.090  0.00  0.00    +0.000 NA
ATOM      5  N   UNL     1      -2.196  12.037  20.171  0.00  0.00    +0.000 N 
ATOM      6  C   UNL     1      -2.909  12.828  21.089  0.00  0.00    +0.000 A 
ATOM      7  N   UNL     1      -2.321  13.729  21.808  0.00  0.00    +0.000 NA
ATOM      8  C   UNL     1      -3.068  14.353  22.768  0.00  0.00    +0.000 A 
ATOM      9  C   UNL     1      -2.347  15.426  23.533  0.00  0.00    +0.000 C 
ATOM     10  C   UNL     1      -4.326  13.993  23.059  0.00  0.00    +0.000 A 
ATOM     11  C   UNL     1      -4.958  12.925  22.252  0.00  0.00    +0.000 A 
ATOM     12  O   UNL     1      -6.046  12.457  22.565  0.00  0.00    +0.000 OA
ATOM     13  N   UNL     1      -4.225  12.482  21.192  0.00  0.00    +0.000 N 
ATOM     14  C   UNL     1      -0.858  11.694  20.232  0.00  0.00    +0.000 A 
ATOM     15  C   UNL     1       0.026  11.985  21.393  0.00  0.00    +0.000 C 
ATOM     16  H   UNL     1      -4.588  11.721  20.631  0.00  0.00    +0.000 HD
ENDROOT
BRANCH   1  17
ATOM     17  C   UNL     1       0.793  10.584  18.630  0.00  0.00    +0.000 C 
BRANCH  17  18
ATOM     18  C   UNL     1       1.197   9.232  19.229  0.00  0.00    +0.000 C 
BRANCH  18  20
ATOM     19  N   UNL     1       2.551   7.275  18.705  0.00  0.00    +0.000 N 
ATOM     20  C   UNL     1       2.089   8.499  18.243  0.00  0.00    +0.000 C 
ATOM     21  O   UNL     1       2.339   8.991  17.149  0.00  0.00    +0.000 OA
ATOM     22  H   UNL     1       2.269   6.985  19.634  0.00  0.00    +0.000 HD
BRANCH  19  26
ATOM     23  C   UNL     1       5.063   4.642  16.525  0.00  0.00    +0.000 A 
ATOM     24  C   UNL     1       3.893   4.162  17.101  0.00  0.00    +0.000 A 
ATOM     25  C   UNL     1       3.046   5.018  17.809  0.00  0.00    +0.000 A 
ATOM     26  C   UNL     1       3.362   6.368  17.978  0.00  0.00    +0.000 A 
ATOM     27  C   UNL     1       4.552   6.842  17.410  0.00  0.00    +0.000 A 
ATOM     28  C   UNL     1       5.402   5.983  16.691  0.00  0.00    +0.000 A 
BRANCH  23  29
ATOM     29  O   UNL     1       5.790   3.706  15.847  0.00  0.00    +0.000 OA
BRANCH  29  31
ATOM     30  C   UNL     1       5.624   3.886  13.481  0.00  0.00    +0.000 C 
ATOM     31  C   UNL     1       6.495   4.160  14.694  0.00  0.00    +0.000 C 
ENDBRANCH  29  31
ENDBRANCH  23  29
ENDBRANCH  19  26
ENDBRANCH  18  20
ENDBRANCH  17  18
ENDBRANCH   1  17
TORSDOF 6
ENDMDL
MODEL 7
REMARK VINA RESULT:      -7.2      5.205      8.386
REMARK  Name = 
REMARK  10 active torsions:
REMARK  status: ('A' for Active; 'I' for Inactive)
REMARK    1  A    between atoms: C_1  and  C_2
REMARK    2  A    between atoms: C_2  and  O_3
REMARK    3  A    between atoms: O_3  and  C_4
REMARK    4  A    between atoms: C_7  and  N_8
REMARK    5  A    between atoms: C_9  and  C_11
REMARK    6  A    between atoms: C_11  and  C_12
REMARK    7  A    between atoms: C_12  and  C_13
REMARK    8  A    between atoms: C_14  and  C_15
REMARK    9  A    between atoms: C_20  and  C_21
REMARK   10  A    between atoms: C_26  and  C_27
REMARK                            x       y       z     vdW  Elec       q    Type
REMARK                         _______ _______ _______ _____ _____    ______ ____
ROOT
ATOM      1  C   UNL     1       6.244   5.379  16.891  0.00  0.00    +0.000 A 
ATOM      2  C   UNL     1       5.568   4.694  15.846  0.00  0.00    +0.000 A 
ATOM      3  C   UNL     1       5.984   4.566  14.423  0.00  0.00    +0.000 C 
ATOM      4  N   UNL     1       4.432   4.119  16.278  0.00  0.00    +0.000 NA
ATOM      5  N   UNL     1       4.264   4.622  17.537  0.00  0.00    +0.000 N 
ATOM      6  C   UNL     1       3.072   4.416  18.255  0.00  0.00    +0.000 A 
ATOM      7  N   UNL     1       2.695   5.228  19.190  0.00  0.00    +0.000 NA
ATOM      8  C   UNL     1       1.597   4.874  19.923  0.00  0.00    +0.000 A 
ATOM      9  C   UNL     1       1.176   5.880  20.957  0.00  0.00    +0.000 C 
ATOM     10  C   UNL     1       0.979   3.693  19.786  0.00  0.00    +0.000 A 
ATOM     11  C   UNL     1       1.462   2.763  18.740  0.00  0.00    +0.000 A 
ATOM     12  O   UNL     1       1.034   1.617  18.668  0.00  0.00    +0.000 OA
ATOM     13  N   UNL     1       2.435   3.257  17.923  0.00  0.00    +0.000 N 
ATOM     14  C   UNL     1       5.395   5.284  17.976  0.00  0.00    +0.000 A 
ATOM     15  C   UNL     1       5.594   5.762  19.372  0.00  0.00    +0.000 C 
ATOM     16  H   UNL     1       2.835   2.649  17.218  0.00  0.00    +0.000 HD
ENDROOT
BRANCH   1  17
ATOM     17  C   UNL     1       7.547   6.103  16.870  0.00  0.00    +0.000 C 
BRANCH  17  18
ATOM     18  C   UNL     1       7.952   6.691  18.227  0.00  0.00    +0.000 C 
BRANCH  18  20
ATOM     19  N   UNL     1       8.927   8.779  19.020  0.00  0.00    +0.000 N 
ATOM     20  C   UNL     1       8.067   8.201  18.098  0.00  0.00    +0.000 C 
ATOM     21  O   UNL     1       7.436   8.798  17.234  0.00  0.00    +0.000 OA
ATOM     22  H   UNL     1       9.387   8.167  19.684  0.00  0.00    +0.000 HD
BRANCH  19  26
ATOM     23  C   UNL     1       9.909  12.891  19.371  0.00  0.00    +0.000 A 
ATOM     24  C   UNL     1       9.868  12.295  18.115  0.00  0.00    +0.000 A 
ATOM     25  C   UNL     1       9.532  10.946  17.980  0.00  0.00    +0.000 A 
ATOM     26  C   UNL     1       9.252  10.156  19.098  0.00  0.00    +0.000 A 
ATOM     27  C   UNL     1       9.312  10.759  20.362  0.00  0.00    +0.000 A 
ATOM     28  C   UNL     1       9.644  12.119  20.499  0.00  0.00    +0.000 A 
BRANCH  23  29
ATOM     29  O   UNL     1      10.234  14.217  19.360  0.00  0.00    +0.000 OA
BRANCH  29  31
ATOM     30  C   UNL     1       9.070  16.292  19.329  0.00  0.00    +0.000 C 
ATOM     31  C   UNL     1       9.442  15.059  18.525  0.00  0.00    +0.000 C 
ENDBRANCH  29  31
ENDBRANCH  23  29
ENDBRANCH  19  26
ENDBRANCH  18  20
ENDBRANCH  17  18
ENDBRANCH   1  17
TORSDOF 6
ENDMDL
MODEL 8
REMARK VINA RESULT:      -7.2      3.987      4.707
REMARK  Name = 
REMARK  10 active torsions:
REMARK  status: ('A' for Active; 'I' for Inactive)
REMARK    1  A    between atoms: C_1  and  C_2
REMARK    2  A    between atoms: C_2  and  O_3
REMARK    3  A    between atoms: O_3  and  C_4
REMARK    4  A    between atoms: C_7  and  N_8
REMARK    5  A    between atoms: C_9  and  C_11
REMARK    6  A    between atoms: C_11  and  C_12
REMARK    7  A    between atoms: C_12  and  C_13
REMARK    8  A    between atoms: C_14  and  C_15
REMARK    9  A    between atoms: C_20  and  C_21
REMARK   10  A    between atoms: C_26  and  C_27
REMARK                            x       y       z     vdW  Elec       q    Type
REMARK                         _______ _______ _______ _____ _____    ______ ____
ROOT
ATOM      1  C   UNL     1       0.750  11.256  20.001  0.00  0.00    +0.000 A 
ATOM      2  C   UNL     1       0.264  11.817  21.212  0.00  0.00    +0.000 A 
ATOM      3  C   UNL     1      -0.717  11.225  22.162  0.00  0.00    +0.000 C 
ATOM      4  N   UNL     1       0.805  13.024  21.457  0.00  0.00    +0.000 NA
ATOM      5  N   UNL     1       1.461  13.334  20.299  0.00  0.00    +0.000 N 
ATOM      6  C   UNL     1       1.993  14.617  20.080  0.00  0.00    +0.000 A 
ATOM      7  N   UNL     1       2.179  15.078  18.886  0.00  0.00    +0.000 NA
ATOM      8  C   UNL     1       2.826  16.277  18.770  0.00  0.00    +0.000 A 
ATOM      9  C   UNL     1       2.966  16.787  17.363  0.00  0.00    +0.000 C 
ATOM     10  C   UNL     1       3.359  16.921  19.817  0.00  0.00    +0.000 A 
ATOM     11  C   UNL     1       3.172  16.345  21.168  0.00  0.00    +0.000 A 
ATOM     12  O   UNL     1       3.758  16.809  22.138  0.00  0.00    +0.000 OA
ATOM     13  N   UNL     1       2.357  15.254  21.230  0.00  0.00    +0.000 N 
ATOM     14  C   UNL     1       1.546  12.243  19.455  0.00  0.00    +0.000 A 
ATOM     15  C   UNL     1       2.372  12.208  18.217  0.00  0.00    +0.000 C 
ATOM     16  H   UNL     1       2.229  14.791  22.122  0.00  0.00    +0.000 HD
ENDROOT
BRANCH   1  17
ATOM     17  C   UNL     1       0.462   9.931  19.381  0.00  0.00    +0.000 C 
BRANCH  17  18
ATOM     18  C   UNL     1       1.357   8.798  19.894  0.00  0.00    +0.000 C 
BRANCH  18  20
ATOM     19  N   UNL     1       2.783   7.011  19.051  0.00  0.00    +0.000 N 
ATOM     20  C   UNL     1       2.039   8.130  18.711  0.00  0.00    +0.000 C 
ATOM     21  O   UNL     1       1.901   8.583  17.581  0.00  0.00    +0.000 OA
ATOM     22  H   UNL     1       2.815   6.744  20.027  0.00  0.00    +0.000 HD
BRANCH  19  26
ATOM     23  C   UNL     1       4.963   4.599  16.325  0.00  0.00    +0.000 A 
ATOM     24  C   UNL     1       3.902   4.051  17.036  0.00  0.00    +0.000 A 
ATOM     25  C   UNL     1       3.164   4.835  17.927  0.00  0.00    +0.000 A 
ATOM     26  C   UNL     1       3.484   6.177  18.144  0.00  0.00    +0.000 A 
ATOM     27  C   UNL     1       4.567   6.718  17.437  0.00  0.00    +0.000 A 
ATOM     28  C   UNL     1       5.306   5.932  16.535  0.00  0.00    +0.000 A 
BRANCH  23  29
ATOM     29  O   UNL     1       5.588   3.730  15.478  0.00  0.00    +0.000 OA
BRANCH  29  31
ATOM     30  C   UNL     1       6.201   3.758  13.179  0.00  0.00    +0.000 C 
ATOM     31  C   UNL     1       6.523   4.297  14.562  0.00  0.00    +0.000 C 
ENDBRANCH  29  31
ENDBRANCH  23  29
ENDBRANCH  19  26
ENDBRANCH  18  20
ENDBRANCH  17  18
ENDBRANCH   1  17
TORSDOF 6
ENDMDL
MODEL 9
REMARK VINA RESULT:      -7.1      2.659     10.504
REMARK  Name = 
REMARK  10 active torsions:
REMARK  status: ('A' for Active; 'I' for Inactive)
REMARK    1  A    between atoms: C_1  and  C_2
REMARK    2  A    between atoms: C_2  and  O_3
REMARK    3  A    between atoms: O_3  and  C_4
REMARK    4  A    between atoms: C_7  and  N_8
REMARK    5  A    between atoms: C_9  and  C_11
REMARK    6  A    between atoms: C_11  and  C_12
REMARK    7  A    between atoms: C_12  and  C_13
REMARK    8  A    between atoms: C_14  and  C_15
REMARK    9  A    between atoms: C_20  and  C_21
REMARK   10  A    between atoms: C_26  and  C_27
REMARK                            x       y       z     vdW  Elec       q    Type
REMARK                         _______ _______ _______ _____ _____    ______ ____
ROOT
ATOM      1  C   UNL     1       4.672   5.018  17.907  0.00  0.00    +0.000 A 
ATOM      2  C   UNL     1       4.490   3.621  17.723  0.00  0.00    +0.000 A 
ATOM      3  C   UNL     1       3.996   2.628  18.715  0.00  0.00    +0.000 C 
ATOM      4  N   UNL     1       4.823   3.233  16.479  0.00  0.00    +0.000 NA
ATOM      5  N   UNL     1       5.428   4.333  15.940  0.00  0.00    +0.000 N 
ATOM      6  C   UNL     1       6.103   4.267  14.708  0.00  0.00    +0.000 A 
ATOM      7  N   UNL     1       7.048   5.098  14.408  0.00  0.00    +0.000 NA
ATOM      8  C   UNL     1       7.552   5.044  13.138  0.00  0.00    +0.000 A 
ATOM      9  C   UNL     1       8.682   5.996  12.865  0.00  0.00    +0.000 C 
ATOM     10  C   UNL     1       7.038   4.255  12.184  0.00  0.00    +0.000 A 
ATOM     11  C   UNL     1       5.925   3.348  12.544  0.00  0.00    +0.000 A 
ATOM     12  O   UNL     1       5.323   2.717  11.684  0.00  0.00    +0.000 OA
ATOM     13  N   UNL     1       5.601   3.317  13.867  0.00  0.00    +0.000 N 
ATOM     14  C   UNL     1       5.244   5.453  16.729  0.00  0.00    +0.000 A 
ATOM     15  C   UNL     1       5.606   6.835  16.312  0.00  0.00    +0.000 C 
ATOM     16  H   UNL     1       4.817   2.748  14.164  0.00  0.00    +0.000 HD
ENDROOT
BRANCH   1  17
ATOM     17  C   UNL     1       4.382   5.868  19.097  0.00  0.00    +0.000 C 
BRANCH  17  18
ATOM     18  C   UNL     1       2.950   5.727  19.626  0.00  0.00    +0.000 C 
BRANCH  18  20
ATOM     19  N   UNL     1       1.541   7.326  20.808  0.00  0.00    +0.000 N 
ATOM     20  C   UNL     1       2.299   7.099  19.668  0.00  0.00    +0.000 C 
ATOM     21  O   UNL     1       2.470   7.894  18.752  0.00  0.00    +0.000 OA
ATOM     22  H   UNL     1       1.481   6.580  21.490  0.00  0.00    +0.000 HD
BRANCH  19  26
ATOM     23  C   UNL     1      -0.523  10.938  21.641  0.00  0.00    +0.000 A 
ATOM     24  C   UNL     1      -0.061  10.149  22.688  0.00  0.00    +0.000 A 
ATOM     25  C   UNL     1       0.634   8.964  22.431  0.00  0.00    +0.000 A 
ATOM     26  C   UNL     1       0.862   8.529  21.124  0.00  0.00    +0.000 A 
ATOM     27  C   UNL     1       0.378   9.321  20.073  0.00  0.00    +0.000 A 
ATOM     28  C   UNL     1      -0.315  10.517  20.329  0.00  0.00    +0.000 A 
BRANCH  23  29
ATOM     29  O   UNL     1      -1.169  12.076  22.029  0.00  0.00    +0.000 OA
BRANCH  29  31
ATOM     30  C   UNL     1      -2.868  13.229  23.232  0.00  0.00    +0.000 C 
ATOM     31  C   UNL     1      -2.033  11.963  23.158  0.00  0.00    +0.000 C 
ENDBRANCH  29  31
ENDBRANCH  23  29
ENDBRANCH  19  26
ENDBRANCH  18  20
ENDBRANCH  17  18
ENDBRANCH   1  17
TORSDOF 6
ENDMDL
