MODEL 1
REMARK VINA RESULT:      -6.8      0.000      0.000
REMARK  Name = 
REMARK  1 active torsions:
REMARK  status: ('A' for Active; 'I' for Inactive)
REMARK    1  A    between atoms: C_1  and  N_2
REMARK                            x       y       z     vdW  Elec       q    Type
REMARK                         _______ _______ _______ _____ _____    ______ ____
ROOT
ATOM      1  C   UNL     1      -3.105  14.852  23.114  0.00  0.00    +0.000 C 
ATOM      2  N   UNL     1      -2.776  13.539  22.562  0.00  0.00    +0.000 NA
ATOM      3  C   UNL     1      -1.606  12.949  23.257  0.00  0.00    +0.000 C 
ATOM      4  C   UNL     1      -1.153  11.598  22.641  0.00  0.00    +0.000 C 
ATOM      5  N   UNL     1      -0.870  11.817  21.222  0.00  0.00    +0.000 N 
ATOM      6  C   UNL     1       0.109  11.102  20.551  0.00  0.00    +0.000 C 
ATOM      7  N   UNL     1       0.100   9.797  20.571  0.00  0.00    +0.000 NA
ATOM      8  C   UNL     1       1.046   9.001  19.884  0.00  0.00    +0.000 A 
ATOM      9  C   UNL     1       1.452   7.814  20.498  0.00  0.00    +0.000 A 
ATOM     10  C   UNL     1       2.341   6.955  19.855  0.00  0.00    +0.000 A 
ATOM     11  C   UNL     1       2.774   7.292  18.587  0.00  0.00    +0.000 A 
ATOM     12  N   UNL     1       2.393   8.411  17.939  0.00  0.00    +0.000 NA
ATOM     13  C   UNL     1       1.555   9.252  18.597  0.00  0.00    +0.000 A 
ATOM     14  N   UNL     1       1.325  10.473  17.931  0.00  0.00    +0.000 N 
ATOM     15  C   UNL     1       1.649  11.667  18.607  0.00  0.00    +0.000 A 
ATOM     16  C   UNL     1       2.554  12.568  18.021  0.00  0.00    +0.000 A 
ATOM     17  C   UNL     1       2.972  13.706  18.711  0.00  0.00    +0.000 A 
ATOM     18 CL   UNL     1       4.132  14.759  18.000  0.00  0.00    +0.000 Cl
ATOM     19  C   UNL     1       2.480  13.985  19.980  0.00  0.00    +0.000 A 
ATOM     20  C   UNL     1       1.557  13.119  20.558  0.00  0.00    +0.000 A 
ATOM     21  C   UNL     1       1.139  11.960  19.879  0.00  0.00    +0.000 A 
ATOM     22  C   UNL     1      -2.045  12.305  20.487  0.00  0.00    +0.000 C 
ATOM     23  C   UNL     1      -2.505  13.643  21.108  0.00  0.00    +0.000 C 
ATOM     24  H   UNL     1       1.817  10.374  17.047  0.00  0.00    +0.000 HD
ENDROOT
TORSDOF 0
ENDMDL
MODEL 2
REMARK VINA RESULT:      -6.5      3.410      5.232
REMARK  Name = 
REMARK  1 active torsions:
REMARK  status: ('A' for Active; 'I' for Inactive)
REMARK    1  A    between atoms: C_1  and  N_2
REMARK                            x       y       z     vdW  Elec       q    Type
REMARK                         _______ _______ _______ _____ _____    ______ ____
ROOT
ATOM      1  C   UNL     1      -1.464  15.788  26.273  0.00  0.00    +0.000 C 
ATOM      2  N   UNL     1      -2.067  15.629  24.951  0.00  0.00    +0.000 NA
ATOM      3  C   UNL     1      -3.084  14.548  24.959  0.00  0.00    +0.000 C 
ATOM      4  C   UNL     1      -3.683  14.270  23.555  0.00  0.00    +0.000 C 
ATOM      5  N   UNL     1      -2.582  13.952  22.644  0.00  0.00    +0.000 N 
ATOM      6  C   UNL     1      -2.737  13.070  21.588  0.00  0.00    +0.000 C 
ATOM      7  N   UNL     1      -3.692  13.247  20.717  0.00  0.00    +0.000 NA
ATOM      8  C   UNL     1      -3.891  12.408  19.596  0.00  0.00    +0.000 A 
ATOM      9  C   UNL     1      -5.209  12.162  19.204  0.00  0.00    +0.000 A 
ATOM     10  C   UNL     1      -5.477  11.388  18.077  0.00  0.00    +0.000 A 
ATOM     11  C   UNL     1      -4.409  10.907  17.345  0.00  0.00    +0.000 A 
ATOM     12  N   UNL     1      -3.119  11.136  17.664  0.00  0.00    +0.000 NA
ATOM     13  C   UNL     1      -2.879  11.862  18.786  0.00  0.00    +0.000 A 
ATOM     14  N   UNL     1      -1.519  11.928  19.148  0.00  0.00    +0.000 N 
ATOM     15  C   UNL     1      -1.150  11.457  20.425  0.00  0.00    +0.000 A 
ATOM     16  C   UNL     1      -0.187  10.440  20.533  0.00  0.00    +0.000 A 
ATOM     17  C   UNL     1       0.122   9.882  21.774  0.00  0.00    +0.000 A 
ATOM     18 CL   UNL     1       1.255   8.592  21.873  0.00  0.00    +0.000 Cl
ATOM     19  C   UNL     1      -0.496  10.343  22.931  0.00  0.00    +0.000 A 
ATOM     20  C   UNL     1      -1.426  11.374  22.841  0.00  0.00    +0.000 A 
ATOM     21  C   UNL     1      -1.758  11.933  21.594  0.00  0.00    +0.000 A 
ATOM     22  C   UNL     1      -1.612  15.049  22.539  0.00  0.00    +0.000 C 
ATOM     23  C   UNL     1      -1.024  15.336  23.939  0.00  0.00    +0.000 C 
ATOM     24  H   UNL     1      -1.034  11.448  18.394  0.00  0.00    +0.000 HD
ENDROOT
TORSDOF 0
ENDMDL
MODEL 3
REMARK VINA RESULT:      -6.5      7.812      9.296
REMARK  Name = 
REMARK  1 active torsions:
REMARK  status: ('A' for Active; 'I' for Inactive)
REMARK    1  A    between atoms: C_1  and  N_2
REMARK                            x       y       z     vdW  Elec       q    Type
REMARK                         _______ _______ _______ _____ _____    ______ ____
ROOT
ATOM      1  C   UNL     1       1.936   3.125  21.589  0.00  0.00    +0.000 C 
ATOM      2  N   UNL     1       2.161   3.160  20.144  0.00  0.00    +0.000 NA
ATOM      3  C   UNL     1       3.330   2.328  19.769  0.00  0.00    +0.000 C 
ATOM      4  C   UNL     1       3.674   2.411  18.258  0.00  0.00    +0.000 C 
ATOM      5  N   UNL     1       3.896   3.817  17.919  0.00  0.00    +0.000 N 
ATOM      6  C   UNL     1       4.797   4.200  16.939  0.00  0.00    +0.000 C 
ATOM      7  N   UNL     1       4.716   3.698  15.737  0.00  0.00    +0.000 NA
ATOM      8  C   UNL     1       5.579   4.066  14.679  0.00  0.00    +0.000 A 
ATOM      9  C   UNL     1       5.948   3.066  13.775  0.00  0.00    +0.000 A 
ATOM     10  C   UNL     1       6.753   3.369  12.679  0.00  0.00    +0.000 A 
ATOM     11  C   UNL     1       7.139   4.682  12.493  0.00  0.00    +0.000 A 
ATOM     12  N   UNL     1       6.790   5.689  13.319  0.00  0.00    +0.000 NA
ATOM     13  C   UNL     1       6.036   5.367  14.402  0.00  0.00    +0.000 A 
ATOM     14  N   UNL     1       5.842   6.432  15.305  0.00  0.00    +0.000 N 
ATOM     15  C   UNL     1       6.267   6.255  16.637  0.00  0.00    +0.000 A 
ATOM     16  C   UNL     1       7.190   7.157  17.192  0.00  0.00    +0.000 A 
ATOM     17  C   UNL     1       7.707   6.949  18.471  0.00  0.00    +0.000 A 
ATOM     18 CL   UNL     1       8.886   8.030  19.103  0.00  0.00    +0.000 Cl
ATOM     19  C   UNL     1       7.296   5.861  19.233  0.00  0.00    +0.000 A 
ATOM     20  C   UNL     1       6.356   4.980  18.708  0.00  0.00    +0.000 A 
ATOM     21  C   UNL     1       5.839   5.170  17.413  0.00  0.00    +0.000 A 
ATOM     22  C   UNL     1       2.715   4.649  18.184  0.00  0.00    +0.000 C 
ATOM     23  C   UNL     1       2.364   4.556  19.687  0.00  0.00    +0.000 C 
ATOM     24  H   UNL     1       6.282   7.229  14.852  0.00  0.00    +0.000 HD
ENDROOT
TORSDOF 0
ENDMDL
MODEL 4
REMARK VINA RESULT:      -6.3      3.550      5.622
REMARK  Name = 
REMARK  1 active torsions:
REMARK  status: ('A' for Active; 'I' for Inactive)
REMARK    1  A    between atoms: C_1  and  N_2
REMARK                            x       y       z     vdW  Elec       q    Type
REMARK                         _______ _______ _______ _____ _____    ______ ____
ROOT
ATOM      1  C   UNL     1       0.704  16.506  23.176  0.00  0.00    +0.000 C 
ATOM      2  N   UNL     1      -0.607  16.164  22.625  0.00  0.00    +0.000 NA
ATOM      3  C   UNL     1      -1.169  14.968  23.299  0.00  0.00    +0.000 C 
ATOM      4  C   UNL     1      -2.515  14.502  22.683  0.00  0.00    +0.000 C 
ATOM      5  N   UNL     1      -2.301  14.254  21.257  0.00  0.00    +0.000 N 
ATOM      6  C   UNL     1      -3.003  13.276  20.571  0.00  0.00    +0.000 C 
ATOM      7  N   UNL     1      -4.307  13.259  20.600  0.00  0.00    +0.000 NA
ATOM      8  C   UNL     1      -5.090  12.312  19.899  0.00  0.00    +0.000 A 
ATOM      9  C   UNL     1      -6.265  11.870  20.512  0.00  0.00    +0.000 A 
ATOM     10  C   UNL     1      -7.110  10.979  19.856  0.00  0.00    +0.000 A 
ATOM     11  C   UNL     1      -6.775  10.580  18.577  0.00  0.00    +0.000 A 
ATOM     12  N   UNL     1      -5.669  10.996  17.929  0.00  0.00    +0.000 NA
ATOM     13  C   UNL     1      -4.838  11.836  18.599  0.00  0.00    +0.000 A 
ATOM     14  N   UNL     1      -3.627  12.104  17.930  0.00  0.00    +0.000 N 
ATOM     15  C   UNL     1      -2.423  11.789  18.590  0.00  0.00    +0.000 A 
ATOM     16  C   UNL     1      -1.509  10.915  17.978  0.00  0.00    +0.000 A 
ATOM     17  C   UNL     1      -0.358  10.504  18.651  0.00  0.00    +0.000 A 
ATOM     18 CL   UNL     1       0.712   9.381  17.907  0.00  0.00    +0.000 Cl
ATOM     19  C   UNL     1      -0.078  10.974  19.929  0.00  0.00    +0.000 A 
ATOM     20  C   UNL     1      -0.958  11.868  20.532  0.00  0.00    +0.000 A 
ATOM     21  C   UNL     1      -2.130  12.277  19.870  0.00  0.00    +0.000 A 
ATOM     22  C   UNL     1      -1.842  15.453  20.544  0.00  0.00    +0.000 C 
ATOM     23  C   UNL     1      -0.508  15.926  21.165  0.00  0.00    +0.000 C 
ATOM     24  H   UNL     1      -3.724  11.629  17.035  0.00  0.00    +0.000 HD
ENDROOT
TORSDOF 0
ENDMDL
MODEL 5
REMARK VINA RESULT:      -6.2      4.064      6.937
REMARK  Name = 
REMARK  1 active torsions:
REMARK  status: ('A' for Active; 'I' for Inactive)
REMARK    1  A    between atoms: C_1  and  N_2
REMARK                            x       y       z     vdW  Elec       q    Type
REMARK                         _______ _______ _______ _____ _____    ______ ____
ROOT
ATOM      1  C   UNL     1      -1.194  10.662  19.829  0.00  0.00    +0.000 C 
ATOM      2  N   UNL     1       0.101  10.312  19.248  0.00  0.00    +0.000 NA
ATOM      3  C   UNL     1      -0.067   9.397  18.093  0.00  0.00    +0.000 C 
ATOM      4  C   UNL     1       1.284   8.914  17.502  0.00  0.00    +0.000 C 
ATOM      5  N   UNL     1       2.049   8.275  18.574  0.00  0.00    +0.000 N 
ATOM      6  C   UNL     1       2.913   7.221  18.330  0.00  0.00    +0.000 C 
ATOM      7  N   UNL     1       3.855   7.336  17.433  0.00  0.00    +0.000 NA
ATOM      8  C   UNL     1       4.793   6.316  17.154  0.00  0.00    +0.000 A 
ATOM      9  C   UNL     1       5.202   6.166  15.826  0.00  0.00    +0.000 A 
ATOM     10  C   UNL     1       6.163   5.217  15.487  0.00  0.00    +0.000 A 
ATOM     11  C   UNL     1       6.723   4.461  16.499  0.00  0.00    +0.000 A 
ATOM     12  N   UNL     1       6.384   4.584  17.798  0.00  0.00    +0.000 NA
ATOM     13  C   UNL     1       5.419   5.489  18.104  0.00  0.00    +0.000 A 
ATOM     14  N   UNL     1       5.001   5.453  19.450  0.00  0.00    +0.000 N 
ATOM     15  C   UNL     1       3.638   5.212  19.713  0.00  0.00    +0.000 A 
ATOM     16  C   UNL     1       3.273   4.124  20.523  0.00  0.00    +0.000 A 
ATOM     17  C   UNL     1       1.930   3.800  20.717  0.00  0.00    +0.000 A 
ATOM     18 CL   UNL     1       1.510   2.423  21.659  0.00  0.00    +0.000 Cl
ATOM     19  C   UNL     1       0.926   4.565  20.135  0.00  0.00    +0.000 A 
ATOM     20  C   UNL     1       1.273   5.666  19.359  0.00  0.00    +0.000 A 
ATOM     21  C   UNL     1       2.624   5.994  19.143  0.00  0.00    +0.000 A 
ATOM     22  C   UNL     1       2.318   9.193  19.689  0.00  0.00    +0.000 C 
ATOM     23  C   UNL     1       0.973   9.685  20.270  0.00  0.00    +0.000 C 
ATOM     24  H   UNL     1       5.615   4.768  19.885  0.00  0.00    +0.000 HD
ENDROOT
TORSDOF 0
ENDMDL
MODEL 6
REMARK VINA RESULT:      -6.0      4.409      7.398
REMARK  Name = 
REMARK  1 active torsions:
REMARK  status: ('A' for Active; 'I' for Inactive)
REMARK    1  A    between atoms: C_1  and  N_2
REMARK                            x       y       z     vdW  Elec       q    Type
REMARK                         _______ _______ _______ _____ _____    ______ ____
ROOT
ATOM      1  C   UNL     1      -1.157  10.090  19.363  0.00  0.00    +0.000 C 
ATOM      2  N   UNL     1       0.274   9.815  19.235  0.00  0.00    +0.000 NA
ATOM      3  C   UNL     1       0.612   9.400  17.851  0.00  0.00    +0.000 C 
ATOM      4  C   UNL     1       2.101   8.999  17.686  0.00  0.00    +0.000 C 
ATOM      5  N   UNL     1       2.396   7.933  18.643  0.00  0.00    +0.000 N 
ATOM      6  C   UNL     1       3.320   6.938  18.371  0.00  0.00    +0.000 C 
ATOM      7  N   UNL     1       4.537   7.250  18.016  0.00  0.00    +0.000 NA
ATOM      8  C   UNL     1       5.543   6.291  17.754  0.00  0.00    +0.000 A 
ATOM      9  C   UNL     1       6.452   6.576  16.733  0.00  0.00    +0.000 A 
ATOM     10  C   UNL     1       7.499   5.701  16.457  0.00  0.00    +0.000 A 
ATOM     11  C   UNL     1       7.634   4.572  17.241  0.00  0.00    +0.000 A 
ATOM     12  N   UNL     1       6.801   4.263  18.256  0.00  0.00    +0.000 NA
ATOM     13  C   UNL     1       5.765   5.110  18.486  0.00  0.00    +0.000 A 
ATOM     14  N   UNL     1       4.847   4.647  19.450  0.00  0.00    +0.000 N 
ATOM     15  C   UNL     1       3.500   4.496  19.061  0.00  0.00    +0.000 A 
ATOM     16  C   UNL     1       2.879   3.244  19.199  0.00  0.00    +0.000 A 
ATOM     17  C   UNL     1       1.582   3.037  18.729  0.00  0.00    +0.000 A 
ATOM     18 CL   UNL     1       0.867   1.477  18.848  0.00  0.00    +0.000 Cl
ATOM     19  C   UNL     1       0.868   4.076  18.141  0.00  0.00    +0.000 A 
ATOM     20  C   UNL     1       1.459   5.330  18.031  0.00  0.00    +0.000 A 
ATOM     21  C   UNL     1       2.772   5.547  18.487  0.00  0.00    +0.000 A 
ATOM     22  C   UNL     1       2.167   8.352  20.032  0.00  0.00    +0.000 C 
ATOM     23  C   UNL     1       0.687   8.764  20.195  0.00  0.00    +0.000 C 
ATOM     24  H   UNL     1       5.258   3.784  19.795  0.00  0.00    +0.000 HD
ENDROOT
TORSDOF 0
ENDMDL
MODEL 7
REMARK VINA RESULT:      -6.0      5.697      9.199
REMARK  Name = 
REMARK  1 active torsions:
REMARK  status: ('A' for Active; 'I' for Inactive)
REMARK    1  A    between atoms: C_1  and  N_2
REMARK                            x       y       z     vdW  Elec       q    Type
REMARK                         _______ _______ _______ _____ _____    ______ ____
ROOT
ATOM      1  C   UNL     1       8.017   5.879  13.862  0.00  0.00    +0.000 C 
ATOM      2  N   UNL     1       7.454   5.053  14.929  0.00  0.00    +0.000 NA
ATOM      3  C   UNL     1       6.104   4.558  14.561  0.00  0.00    +0.000 C 
ATOM      4  C   UNL     1       5.420   3.760  15.702  0.00  0.00    +0.000 C 
ATOM      5  N   UNL     1       5.363   4.617  16.887  0.00  0.00    +0.000 N 
ATOM      6  C   UNL     1       4.328   4.532  17.803  0.00  0.00    +0.000 C 
ATOM      7  N   UNL     1       4.026   3.387  18.351  0.00  0.00    +0.000 NA
ATOM      8  C   UNL     1       3.004   3.230  19.317  0.00  0.00    +0.000 A 
ATOM      9  C   UNL     1       2.260   2.048  19.279  0.00  0.00    +0.000 A 
ATOM     10  C   UNL     1       1.275   1.805  20.232  0.00  0.00    +0.000 A 
ATOM     11  C   UNL     1       1.084   2.740  21.230  0.00  0.00    +0.000 A 
ATOM     12  N   UNL     1       1.791   3.883  21.329  0.00  0.00    +0.000 NA
ATOM     13  C   UNL     1       2.722   4.120  20.369  0.00  0.00    +0.000 A 
ATOM     14  N   UNL     1       3.310   5.399  20.440  0.00  0.00    +0.000 N 
ATOM     15  C   UNL     1       3.201   6.241  19.315  0.00  0.00    +0.000 A 
ATOM     16  C   UNL     1       2.610   7.507  19.455  0.00  0.00    +0.000 A 
ATOM     17  C   UNL     1       2.394   8.319  18.341  0.00  0.00    +0.000 A 
ATOM     18 CL   UNL     1       1.608   9.837  18.528  0.00  0.00    +0.000 Cl
ATOM     19  C   UNL     1       2.788   7.903  17.075  0.00  0.00    +0.000 A 
ATOM     20  C   UNL     1       3.407   6.666  16.927  0.00  0.00    +0.000 A 
ATOM     21  C   UNL     1       3.615   5.831  18.040  0.00  0.00    +0.000 A 
ATOM     22  C   UNL     1       6.697   5.038  17.335  0.00  0.00    +0.000 C 
ATOM     23  C   UNL     1       7.385   5.822  16.195  0.00  0.00    +0.000 C 
ATOM     24  H   UNL     1       2.914   5.811  21.282  0.00  0.00    +0.000 HD
ENDROOT
TORSDOF 0
ENDMDL
MODEL 8
REMARK VINA RESULT:      -6.0      3.203      4.691
REMARK  Name = 
REMARK  1 active torsions:
REMARK  status: ('A' for Active; 'I' for Inactive)
REMARK    1  A    between atoms: C_1  and  N_2
REMARK                            x       y       z     vdW  Elec       q    Type
REMARK                         _______ _______ _______ _____ _____    ______ ____
ROOT
ATOM      1  C   UNL     1      -2.753  15.919  25.424  0.00  0.00    +0.000 C 
ATOM      2  N   UNL     1      -3.027  15.608  24.022  0.00  0.00    +0.000 NA
ATOM      3  C   UNL     1      -3.899  14.413  23.904  0.00  0.00    +0.000 C 
ATOM      4  C   UNL     1      -4.139  13.981  22.433  0.00  0.00    +0.000 C 
ATOM      5  N   UNL     1      -2.836  13.748  21.809  0.00  0.00    +0.000 N 
ATOM      6  C   UNL     1      -2.657  12.793  20.822  0.00  0.00    +0.000 C 
ATOM      7  N   UNL     1      -3.409  12.799  19.755  0.00  0.00    +0.000 NA
ATOM      8  C   UNL     1      -3.263  11.877  18.693  0.00  0.00    +0.000 A 
ATOM      9  C   UNL     1      -4.427  11.448  18.051  0.00  0.00    +0.000 A 
ATOM     10  C   UNL     1      -4.354  10.581  16.963  0.00  0.00    +0.000 A 
ATOM     11  C   UNL     1      -3.105  10.193  16.518  0.00  0.00    +0.000 A 
ATOM     12  N   UNL     1      -1.951  10.598  17.084  0.00  0.00    +0.000 NA
ATOM     13  C   UNL     1      -2.044  11.413  18.166  0.00  0.00    +0.000 A 
ATOM     14  N   UNL     1      -0.813  11.668  18.803  0.00  0.00    +0.000 N 
ATOM     15  C   UNL     1      -0.688  11.322  20.164  0.00  0.00    +0.000 A 
ATOM     16  C   UNL     1       0.331  10.440  20.560  0.00  0.00    +0.000 A 
ATOM     17  C   UNL     1       0.415   9.999  21.881  0.00  0.00    +0.000 A 
ATOM     18 CL   UNL     1       1.631   8.866  22.328  0.00  0.00    +0.000 Cl
ATOM     19  C   UNL     1      -0.489  10.447  22.837  0.00  0.00    +0.000 A 
ATOM     20  C   UNL     1      -1.481  11.348  22.464  0.00  0.00    +0.000 A 
ATOM     21  C   UNL     1      -1.587  11.788  21.132  0.00  0.00    +0.000 A 
ATOM     22  C   UNL     1      -1.989  14.948  21.820  0.00  0.00    +0.000 C 
ATOM     23  C   UNL     1      -1.761  15.388  23.283  0.00  0.00    +0.000 C 
ATOM     24  H   UNL     1      -0.125  11.207  18.213  0.00  0.00    +0.000 HD
ENDROOT
TORSDOF 0
ENDMDL
MODEL 9
REMARK VINA RESULT:      -5.9      3.602      6.444
REMARK  Name = 
REMARK  1 active torsions:
REMARK  status: ('A' for Active; 'I' for Inactive)
REMARK    1  A    between atoms: C_1  and  N_2
REMARK                            x       y       z     vdW  Elec       q    Type
REMARK                         _______ _______ _______ _____ _____    ______ ____
ROOT
ATOM      1  C   UNL     1       3.980  14.551  18.599  0.00  0.00    +0.000 C 
ATOM      2  N   UNL     1       2.838  14.788  19.480  0.00  0.00    +0.000 NA
ATOM      3  C   UNL     1       2.670  13.671  20.443  0.00  0.00    +0.000 C 
ATOM      4  C   UNL     1       1.411  13.825  21.336  0.00  0.00    +0.000 C 
ATOM      5  N   UNL     1       0.244  13.947  20.461  0.00  0.00    +0.000 N 
ATOM      6  C   UNL     1      -1.001  13.463  20.828  0.00  0.00    +0.000 C 
ATOM      7  N   UNL     1      -1.541  13.827  21.959  0.00  0.00    +0.000 NA
ATOM      8  C   UNL     1      -2.820  13.400  22.384  0.00  0.00    +0.000 A 
ATOM      9  C   UNL     1      -2.998  13.169  23.751  0.00  0.00    +0.000 A 
ATOM     10  C   UNL     1      -4.246  12.798  24.246  0.00  0.00    +0.000 A 
ATOM     11  C   UNL     1      -5.301  12.705  23.359  0.00  0.00    +0.000 A 
ATOM     12  N   UNL     1      -5.190  12.943  22.037  0.00  0.00    +0.000 NA
ATOM     13  C   UNL     1      -3.958  13.267  21.568  0.00  0.00    +0.000 A 
ATOM     14  N   UNL     1      -3.879  13.345  20.163  0.00  0.00    +0.000 N 
ATOM     15  C   UNL     1      -2.953  12.509  19.505  0.00  0.00    +0.000 A 
ATOM     16  C   UNL     1      -3.408  11.620  18.518  0.00  0.00    +0.000 A 
ATOM     17  C   UNL     1      -2.533  10.709  17.923  0.00  0.00    +0.000 A 
ATOM     18 CL   UNL     1      -3.127   9.584  16.765  0.00  0.00    +0.000 Cl
ATOM     19  C   UNL     1      -1.189  10.686  18.276  0.00  0.00    +0.000 A 
ATOM     20  C   UNL     1      -0.719  11.586  19.227  0.00  0.00    +0.000 A 
ATOM     21  C   UNL     1      -1.594  12.498  19.845  0.00  0.00    +0.000 A 
ATOM     22  C   UNL     1       0.338  15.108  19.566  0.00  0.00    +0.000 C 
ATOM     23  C   UNL     1       1.599  14.963  18.685  0.00  0.00    +0.000 C 
ATOM     24  H   UNL     1      -4.835  13.199  19.849  0.00  0.00    +0.000 HD
ENDROOT
TORSDOF 0
ENDMDL
