MODEL 1
REMARK VINA RESULT:      -7.8      0.000      0.000
REMARK  Name = 
REMARK  7 active torsions:
REMARK  status: ('A' for Active; 'I' for Inactive)
REMARK    1  A    between atoms: C_2  and  C_3
REMARK    2  A    between atoms: C_3  and  N_4
REMARK    3  A    between atoms: C_5  and  C_7
REMARK    4  A    between atoms: C_10  and  S_11
REMARK    5  A    between atoms: S_11  and  N_14
REMARK    6  A    between atoms: N_21  and  N_22
REMARK    7  A    between atoms: C_23  and  C_24
REMARK                            x       y       z     vdW  Elec       q    Type
REMARK                         _______ _______ _______ _____ _____    ______ ____
ROOT
ATOM      1  N   UNL     1       1.587   8.360  20.818  0.00  0.00    +0.000 N 
ATOM      2  C   UNL     1       1.679   7.030  20.491  0.00  0.00    +0.000 C 
ATOM      3  O   UNL     1       1.033   6.157  21.062  0.00  0.00    +0.000 OA
ATOM      4  H   UNL     1       1.998   9.081  20.236  0.00  0.00    +0.000 HD
ENDROOT
BRANCH   2   5
ATOM      5  C   UNL     1       2.590   6.669  19.368  0.00  0.00    +0.000 A 
ATOM      6  C   UNL     1       2.908   7.560  18.335  0.00  0.00    +0.000 A 
ATOM      7  C   UNL     1       3.834   7.190  17.346  0.00  0.00    +0.000 A 
ATOM      8  C   UNL     1       4.426   5.921  17.382  0.00  0.00    +0.000 A 
ATOM      9  C   UNL     1       4.053   5.008  18.370  0.00  0.00    +0.000 A 
ATOM     10  C   UNL     1       3.171   5.394  19.382  0.00  0.00    +0.000 A 
BRANCH   8  11
ATOM     11  S   UNL     1       5.588   5.431  16.112  0.00  0.00    +0.000 S 
ATOM     12  O   UNL     1       5.394   4.012  15.905  0.00  0.00    +0.000 OA
ATOM     13  O   UNL     1       5.448   6.376  15.023  0.00  0.00    +0.000 OA
BRANCH  11  14
ATOM     14  N   UNL     1       7.119   5.665  16.778  0.00  0.00    +0.000 NA
ATOM     15  C   UNL     1       7.702   4.705  17.724  0.00  0.00    +0.000 C 
ATOM     16  C   UNL     1       7.795   5.482  19.025  0.00  0.00    +0.000 C 
ATOM     17  C   UNL     1       8.036   6.920  18.596  0.00  0.00    +0.000 C 
ATOM     18  C   UNL     1       7.575   7.017  17.143  0.00  0.00    +0.000 C 
ENDBRANCH  11  14
ENDBRANCH   8  11
ENDBRANCH   2   5
BRANCH   1  19
ATOM     19  C   UNL     1       0.683   8.805  21.865  0.00  0.00    +0.000 C 
BRANCH  19  21
ATOM     20  O   UNL     1       0.095  10.978  22.733  0.00  0.00    +0.000 OA
ATOM     21  C   UNL     1       0.417  10.306  21.754  0.00  0.00    +0.000 C 
ATOM     22  N   UNL     1       0.589  10.790  20.460  0.00  0.00    +0.000 N 
ATOM     23  H   UNL     1       0.861  10.172  19.703  0.00  0.00    +0.000 HD
BRANCH  22  24
ATOM     24  N   UNL     1       0.393  12.116  20.208  0.00  0.00    +0.000 NA
ATOM     25  C   UNL     1       1.245  12.683  19.414  0.00  0.00    +0.000 C 
BRANCH  25  26
ATOM     26  C   UNL     1       1.142  14.119  19.073  0.00  0.00    +0.000 A 
ATOM     27  C   UNL     1       2.294  14.899  18.913  0.00  0.00    +0.000 A 
ATOM     28  C   UNL     1       2.181  16.253  18.588  0.00  0.00    +0.000 A 
ATOM     29  C   UNL     1       0.919  16.822  18.422  0.00  0.00    +0.000 A 
ATOM     30 CL   UNL     1       0.780  18.489  18.018  0.00  0.00    +0.000 Cl
ATOM     31  C   UNL     1      -0.232  16.049  18.583  0.00  0.00    +0.000 A 
ATOM     32  C   UNL     1      -0.124  14.693  18.907  0.00  0.00    +0.000 A 
ENDBRANCH  25  26
ENDBRANCH  22  24
ENDBRANCH  19  21
ENDBRANCH   1  19
TORSDOF 7
ENDMDL
MODEL 2
REMARK VINA RESULT:      -7.6      4.316      5.604
REMARK  Name = 
REMARK  7 active torsions:
REMARK  status: ('A' for Active; 'I' for Inactive)
REMARK    1  A    between atoms: C_2  and  C_3
REMARK    2  A    between atoms: C_3  and  N_4
REMARK    3  A    between atoms: C_5  and  C_7
REMARK    4  A    between atoms: C_10  and  S_11
REMARK    5  A    between atoms: S_11  and  N_14
REMARK    6  A    between atoms: N_21  and  N_22
REMARK    7  A    between atoms: C_23  and  C_24
REMARK                            x       y       z     vdW  Elec       q    Type
REMARK                         _______ _______ _______ _____ _____    ______ ____
ROOT
ATOM      1  N   UNL     1       1.301   9.625  19.343  0.00  0.00    +0.000 N 
ATOM      2  C   UNL     1       2.019   9.103  18.295  0.00  0.00    +0.000 C 
ATOM      3  O   UNL     1       2.231   9.722  17.258  0.00  0.00    +0.000 OA
ATOM      4  H   UNL     1       1.273   9.170  20.248  0.00  0.00    +0.000 HD
ENDROOT
BRANCH   2   5
ATOM      5  C   UNL     1       2.576   7.732  18.472  0.00  0.00    +0.000 A 
ATOM      6  C   UNL     1       2.422   6.999  19.656  0.00  0.00    +0.000 A 
ATOM      7  C   UNL     1       2.901   5.681  19.736  0.00  0.00    +0.000 A 
ATOM      8  C   UNL     1       3.551   5.105  18.637  0.00  0.00    +0.000 A 
ATOM      9  C   UNL     1       3.768   5.861  17.483  0.00  0.00    +0.000 A 
ATOM     10  C   UNL     1       3.247   7.153  17.386  0.00  0.00    +0.000 A 
BRANCH   8  11
ATOM     11  S   UNL     1       4.186   3.435  18.737  0.00  0.00    +0.000 S 
ATOM     12  O   UNL     1       4.283   2.952  17.376  0.00  0.00    +0.000 OA
ATOM     13  O   UNL     1       5.346   3.476  19.604  0.00  0.00    +0.000 OA
BRANCH  11  14
ATOM     14  N   UNL     1       3.001   2.540  19.534  0.00  0.00    +0.000 NA
ATOM     15  C   UNL     1       1.659   2.361  18.966  0.00  0.00    +0.000 C 
ATOM     16  C   UNL     1       0.749   3.097  19.932  0.00  0.00    +0.000 C 
ATOM     17  C   UNL     1       1.422   2.943  21.286  0.00  0.00    +0.000 C 
ATOM     18  C   UNL     1       2.884   2.599  21.001  0.00  0.00    +0.000 C 
ENDBRANCH  11  14
ENDBRANCH   8  11
ENDBRANCH   2   5
BRANCH   1  19
ATOM     19  C   UNL     1       0.768  10.975  19.275  0.00  0.00    +0.000 C 
BRANCH  19  21
ATOM     20  O   UNL     1      -0.828  10.313  20.959  0.00  0.00    +0.000 OA
ATOM     21  C   UNL     1      -0.556  11.076  20.032  0.00  0.00    +0.000 C 
ATOM     22  N   UNL     1      -1.371  12.102  19.562  0.00  0.00    +0.000 N 
ATOM     23  H   UNL     1      -1.074  12.693  18.794  0.00  0.00    +0.000 HD
BRANCH  22  24
ATOM     24  N   UNL     1      -2.584  12.318  20.147  0.00  0.00    +0.000 NA
ATOM     25  C   UNL     1      -2.585  12.458  21.434  0.00  0.00    +0.000 C 
BRANCH  25  26
ATOM     26  C   UNL     1      -3.840  12.687  22.183  0.00  0.00    +0.000 A 
ATOM     27  C   UNL     1      -3.831  12.785  23.580  0.00  0.00    +0.000 A 
ATOM     28  C   UNL     1      -5.025  13.004  24.272  0.00  0.00    +0.000 A 
ATOM     29  C   UNL     1      -6.222  13.126  23.568  0.00  0.00    +0.000 A 
ATOM     30 CL   UNL     1      -7.692  13.400  24.420  0.00  0.00    +0.000 Cl
ATOM     31  C   UNL     1      -6.237  13.027  22.175  0.00  0.00    +0.000 A 
ATOM     32  C   UNL     1      -5.044  12.809  21.477  0.00  0.00    +0.000 A 
ENDBRANCH  25  26
ENDBRANCH  22  24
ENDBRANCH  19  21
ENDBRANCH   1  19
TORSDOF 7
ENDMDL
MODEL 3
REMARK VINA RESULT:      -7.5      0.292      1.281
REMARK  Name = 
REMARK  7 active torsions:
REMARK  status: ('A' for Active; 'I' for Inactive)
REMARK    1  A    between atoms: C_2  and  C_3
REMARK    2  A    between atoms: C_3  and  N_4
REMARK    3  A    between atoms: C_5  and  C_7
REMARK    4  A    between atoms: C_10  and  S_11
REMARK    5  A    between atoms: S_11  and  N_14
REMARK    6  A    between atoms: N_21  and  N_22
REMARK    7  A    between atoms: C_23  and  C_24
REMARK                            x       y       z     vdW  Elec       q    Type
REMARK                         _______ _______ _______ _____ _____    ______ ____
ROOT
ATOM      1  N   UNL     1       1.472   8.398  20.950  0.00  0.00    +0.000 N 
ATOM      2  C   UNL     1       1.589   7.068  20.630  0.00  0.00    +0.000 C 
ATOM      3  O   UNL     1       0.909   6.194  21.158  0.00  0.00    +0.000 OA
ATOM      4  H   UNL     1       1.919   9.120  20.395  0.00  0.00    +0.000 HD
ENDROOT
BRANCH   2   5
ATOM      5  C   UNL     1       2.572   6.709  19.570  0.00  0.00    +0.000 A 
ATOM      6  C   UNL     1       3.259   5.487  19.557  0.00  0.00    +0.000 A 
ATOM      7  C   UNL     1       4.115   5.173  18.489  0.00  0.00    +0.000 A 
ATOM      8  C   UNL     1       4.297   6.088  17.445  0.00  0.00    +0.000 A 
ATOM      9  C   UNL     1       3.669   7.334  17.496  0.00  0.00    +0.000 A 
ATOM     10  C   UNL     1       2.779   7.626  18.531  0.00  0.00    +0.000 A 
BRANCH   8  11
ATOM     11  S   UNL     1       5.405   5.706  16.092  0.00  0.00    +0.000 S 
ATOM     12  O   UNL     1       5.200   4.308  15.777  0.00  0.00    +0.000 OA
ATOM     13  O   UNL     1       5.220   6.737  15.091  0.00  0.00    +0.000 OA
BRANCH  11  14
ATOM     14  N   UNL     1       6.963   5.886  16.710  0.00  0.00    +0.000 NA
ATOM     15  C   UNL     1       7.567   4.872  17.582  0.00  0.00    +0.000 C 
ATOM     16  C   UNL     1       7.720   5.578  18.917  0.00  0.00    +0.000 C 
ATOM     17  C   UNL     1       7.964   7.034  18.555  0.00  0.00    +0.000 C 
ATOM     18  C   UNL     1       7.450   7.212  17.127  0.00  0.00    +0.000 C 
ENDBRANCH  11  14
ENDBRANCH   8  11
ENDBRANCH   2   5
BRANCH   1  19
ATOM     19  C   UNL     1       0.500   8.842  21.935  0.00  0.00    +0.000 C 
BRANCH  19  21
ATOM     20  O   UNL     1      -0.440  10.947  22.644  0.00  0.00    +0.000 OA
ATOM     21  C   UNL     1       0.298  10.355  21.857  0.00  0.00    +0.000 C 
ATOM     22  N   UNL     1       1.031  10.946  20.832  0.00  0.00    +0.000 N 
ATOM     23  H   UNL     1       1.623  10.389  20.226  0.00  0.00    +0.000 HD
BRANCH  22  24
ATOM     24  N   UNL     1       0.956  12.295  20.645  0.00  0.00    +0.000 NA
ATOM     25  C   UNL     1       1.045  12.711  19.422  0.00  0.00    +0.000 C 
BRANCH  25  26
ATOM     26  C   UNL     1       0.987  14.152  19.093  0.00  0.00    +0.000 A 
ATOM     27  C   UNL     1      -0.240  14.823  19.035  0.00  0.00    +0.000 A 
ATOM     28  C   UNL     1      -0.278  16.185  18.726  0.00  0.00    +0.000 A 
ATOM     29  C   UNL     1       0.909  16.872  18.477  0.00  0.00    +0.000 A 
ATOM     30 CL   UNL     1       0.864  18.551  18.100  0.00  0.00    +0.000 Cl
ATOM     31  C   UNL     1       2.136  16.207  18.531  0.00  0.00    +0.000 A 
ATOM     32  C   UNL     1       2.179  14.844  18.841  0.00  0.00    +0.000 A 
ENDBRANCH  25  26
ENDBRANCH  22  24
ENDBRANCH  19  21
ENDBRANCH   1  19
TORSDOF 7
ENDMDL
MODEL 4
REMARK VINA RESULT:      -7.4      3.249      3.694
REMARK  Name = 
REMARK  7 active torsions:
REMARK  status: ('A' for Active; 'I' for Inactive)
REMARK    1  A    between atoms: C_2  and  C_3
REMARK    2  A    between atoms: C_3  and  N_4
REMARK    3  A    between atoms: C_5  and  C_7
REMARK    4  A    between atoms: C_10  and  S_11
REMARK    5  A    between atoms: S_11  and  N_14
REMARK    6  A    between atoms: N_21  and  N_22
REMARK    7  A    between atoms: C_23  and  C_24
REMARK                            x       y       z     vdW  Elec       q    Type
REMARK                         _______ _______ _______ _____ _____    ______ ____
ROOT
ATOM      1  N   UNL     1       1.563   7.960  20.855  0.00  0.00    +0.000 N 
ATOM      2  C   UNL     1       1.696   6.651  20.464  0.00  0.00    +0.000 C 
ATOM      3  O   UNL     1       1.074   5.732  20.988  0.00  0.00    +0.000 OA
ATOM      4  H   UNL     1       1.954   8.721  20.310  0.00  0.00    +0.000 HD
ENDROOT
BRANCH   2   5
ATOM      5  C   UNL     1       2.623   6.372  19.331  0.00  0.00    +0.000 A 
ATOM      6  C   UNL     1       2.963   7.339  18.375  0.00  0.00    +0.000 A 
ATOM      7  C   UNL     1       3.902   7.040  17.375  0.00  0.00    +0.000 A 
ATOM      8  C   UNL     1       4.485   5.769  17.320  0.00  0.00    +0.000 A 
ATOM      9  C   UNL     1       4.091   4.783  18.228  0.00  0.00    +0.000 A 
ATOM     10  C   UNL     1       3.196   5.096  19.253  0.00  0.00    +0.000 A 
BRANCH   8  11
ATOM     11  S   UNL     1       5.665   5.370  16.034  0.00  0.00    +0.000 S 
ATOM     12  O   UNL     1       5.523   3.954  15.772  0.00  0.00    +0.000 OA
ATOM     13  O   UNL     1       5.490   6.350  14.982  0.00  0.00    +0.000 OA
BRANCH  11  14
ATOM     14  N   UNL     1       7.186   5.634  16.710  0.00  0.00    +0.000 NA
ATOM     15  C   UNL     1       7.760   4.712  17.699  0.00  0.00    +0.000 C 
ATOM     16  C   UNL     1       7.834   5.537  18.971  0.00  0.00    +0.000 C 
ATOM     17  C   UNL     1       8.075   6.959  18.493  0.00  0.00    +0.000 C 
ATOM     18  C   UNL     1       7.633   7.001  17.031  0.00  0.00    +0.000 C 
ENDBRANCH  11  14
ENDBRANCH   8  11
ENDBRANCH   2   5
BRANCH   1  19
ATOM     19  C   UNL     1       0.641   8.326  21.916  0.00  0.00    +0.000 C 
BRANCH  19  21
ATOM     20  O   UNL     1      -0.226  10.021  20.434  0.00  0.00    +0.000 OA
ATOM     21  C   UNL     1      -0.065   9.644  21.594  0.00  0.00    +0.000 C 
ATOM     22  N   UNL     1      -0.487  10.322  22.734  0.00  0.00    +0.000 N 
ATOM     23  H   UNL     1      -0.320   9.943  23.659  0.00  0.00    +0.000 HD
BRANCH  22  24
ATOM     24  N   UNL     1      -1.140  11.513  22.602  0.00  0.00    +0.000 NA
ATOM     25  C   UNL     1      -2.172  11.690  23.364  0.00  0.00    +0.000 C 
BRANCH  25  26
ATOM     26  C   UNL     1      -2.967  12.937  23.306  0.00  0.00    +0.000 A 
ATOM     27  C   UNL     1      -4.365  12.890  23.246  0.00  0.00    +0.000 A 
ATOM     28  C   UNL     1      -5.101  14.076  23.195  0.00  0.00    +0.000 A 
ATOM     29  C   UNL     1      -4.440  15.303  23.205  0.00  0.00    +0.000 A 
ATOM     30 CL   UNL     1      -5.348  16.764  23.146  0.00  0.00    +0.000 Cl
ATOM     31  C   UNL     1      -3.046  15.355  23.263  0.00  0.00    +0.000 A 
ATOM     32  C   UNL     1      -2.304  14.171  23.316  0.00  0.00    +0.000 A 
ENDBRANCH  25  26
ENDBRANCH  22  24
ENDBRANCH  19  21
ENDBRANCH   1  19
TORSDOF 7
ENDMDL
MODEL 5
REMARK VINA RESULT:      -7.4      4.095      5.321
REMARK  Name = 
REMARK  7 active torsions:
REMARK  status: ('A' for Active; 'I' for Inactive)
REMARK    1  A    between atoms: C_2  and  C_3
REMARK    2  A    between atoms: C_3  and  N_4
REMARK    3  A    between atoms: C_5  and  C_7
REMARK    4  A    between atoms: C_10  and  S_11
REMARK    5  A    between atoms: S_11  and  N_14
REMARK    6  A    between atoms: N_21  and  N_22
REMARK    7  A    between atoms: C_23  and  C_24
REMARK                            x       y       z     vdW  Elec       q    Type
REMARK                         _______ _______ _______ _____ _____    ______ ____
ROOT
ATOM      1  N   UNL     1       2.106  10.642  18.855  0.00  0.00    +0.000 N 
ATOM      2  C   UNL     1       1.509   9.517  18.343  0.00  0.00    +0.000 C 
ATOM      3  O   UNL     1       0.371   9.516  17.885  0.00  0.00    +0.000 OA
ATOM      4  H   UNL     1       3.095  10.666  19.077  0.00  0.00    +0.000 HD
ENDROOT
BRANCH   2   5
ATOM      5  C   UNL     1       2.318   8.266  18.331  0.00  0.00    +0.000 A 
ATOM      6  C   UNL     1       3.201   7.945  17.291  0.00  0.00    +0.000 A 
ATOM      7  C   UNL     1       3.995   6.790  17.373  0.00  0.00    +0.000 A 
ATOM      8  C   UNL     1       3.891   5.947  18.486  0.00  0.00    +0.000 A 
ATOM      9  C   UNL     1       2.958   6.228  19.487  0.00  0.00    +0.000 A 
ATOM     10  C   UNL     1       2.206   7.403  19.429  0.00  0.00    +0.000 A 
BRANCH   8  11
ATOM     11  S   UNL     1       4.881   4.459  18.588  0.00  0.00    +0.000 S 
ATOM     12  O   UNL     1       5.699   4.429  17.394  0.00  0.00    +0.000 OA
ATOM     13  O   UNL     1       5.478   4.439  19.908  0.00  0.00    +0.000 OA
BRANCH  11  14
ATOM     14  N   UNL     1       3.790   3.176  18.516  0.00  0.00    +0.000 NA
ATOM     15  C   UNL     1       2.752   3.106  17.480  0.00  0.00    +0.000 C 
ATOM     16  C   UNL     1       1.452   3.240  18.252  0.00  0.00    +0.000 C 
ATOM     17  C   UNL     1       1.737   2.596  19.599  0.00  0.00    +0.000 C 
ATOM     18  C   UNL     1       3.257   2.581  19.754  0.00  0.00    +0.000 C 
ENDBRANCH  11  14
ENDBRANCH   8  11
ENDBRANCH   2   5
BRANCH   1  19
ATOM     19  C   UNL     1       1.407  11.916  18.856  0.00  0.00    +0.000 C 
BRANCH  19  21
ATOM     20  O   UNL     1       0.878  12.229  21.189  0.00  0.00    +0.000 OA
ATOM     21  C   UNL     1       0.459  12.016  20.051  0.00  0.00    +0.000 C 
ATOM     22  N   UNL     1      -0.876  11.849  19.697  0.00  0.00    +0.000 N 
ATOM     23  H   UNL     1      -1.144  11.680  18.734  0.00  0.00    +0.000 HD
BRANCH  22  24
ATOM     24  N   UNL     1      -1.840  11.919  20.660  0.00  0.00    +0.000 NA
ATOM     25  C   UNL     1      -2.897  12.608  20.367  0.00  0.00    +0.000 C 
BRANCH  25  26
ATOM     26  C   UNL     1      -4.006  12.764  21.333  0.00  0.00    +0.000 A 
ATOM     27  C   UNL     1      -5.338  12.724  20.904  0.00  0.00    +0.000 A 
ATOM     28  C   UNL     1      -6.375  12.871  21.829  0.00  0.00    +0.000 A 
ATOM     29  C   UNL     1      -6.078  13.056  23.178  0.00  0.00    +0.000 A 
ATOM     30 CL   UNL     1      -7.355  13.233  24.319  0.00  0.00    +0.000 Cl
ATOM     31  C   UNL     1      -4.752  13.099  23.611  0.00  0.00    +0.000 A 
ATOM     32  C   UNL     1      -3.710  12.951  22.689  0.00  0.00    +0.000 A 
ENDBRANCH  25  26
ENDBRANCH  22  24
ENDBRANCH  19  21
ENDBRANCH   1  19
TORSDOF 7
ENDMDL
MODEL 6
REMARK VINA RESULT:      -7.4      0.783      1.074
REMARK  Name = 
REMARK  7 active torsions:
REMARK  status: ('A' for Active; 'I' for Inactive)
REMARK    1  A    between atoms: C_2  and  C_3
REMARK    2  A    between atoms: C_3  and  N_4
REMARK    3  A    between atoms: C_5  and  C_7
REMARK    4  A    between atoms: C_10  and  S_11
REMARK    5  A    between atoms: S_11  and  N_14
REMARK    6  A    between atoms: N_21  and  N_22
REMARK    7  A    between atoms: C_23  and  C_24
REMARK                            x       y       z     vdW  Elec       q    Type
REMARK                         _______ _______ _______ _____ _____    ______ ____
ROOT
ATOM      1  N   UNL     1       1.546   7.842  20.876  0.00  0.00    +0.000 N 
ATOM      2  C   UNL     1       1.639   6.550  20.421  0.00  0.00    +0.000 C 
ATOM      3  O   UNL     1       0.966   5.632  20.879  0.00  0.00    +0.000 OA
ATOM      4  H   UNL     1       1.984   8.613  20.383  0.00  0.00    +0.000 HD
ENDROOT
BRANCH   2   5
ATOM      5  C   UNL     1       2.586   6.292  19.300  0.00  0.00    +0.000 A 
ATOM      6  C   UNL     1       2.933   7.272  18.361  0.00  0.00    +0.000 A 
ATOM      7  C   UNL     1       3.891   6.993  17.373  0.00  0.00    +0.000 A 
ATOM      8  C   UNL     1       4.487   5.727  17.314  0.00  0.00    +0.000 A 
ATOM      9  C   UNL     1       4.087   4.728  18.204  0.00  0.00    +0.000 A 
ATOM     10  C   UNL     1       3.172   5.022  19.218  0.00  0.00    +0.000 A 
BRANCH   8  11
ATOM     11  S   UNL     1       5.691   5.353  16.044  0.00  0.00    +0.000 S 
ATOM     12  O   UNL     1       5.569   3.938  15.767  0.00  0.00    +0.000 OA
ATOM     13  O   UNL     1       5.521   6.340  14.997  0.00  0.00    +0.000 OA
BRANCH  11  14
ATOM     14  N   UNL     1       7.199   5.628  16.746  0.00  0.00    +0.000 NA
ATOM     15  C   UNL     1       7.771   4.699  17.729  0.00  0.00    +0.000 C 
ATOM     16  C   UNL     1       7.815   5.505  19.014  0.00  0.00    +0.000 C 
ATOM     17  C   UNL     1       8.043   6.938  18.561  0.00  0.00    +0.000 C 
ATOM     18  C   UNL     1       7.621   6.996  17.093  0.00  0.00    +0.000 C 
ENDBRANCH  11  14
ENDBRANCH   8  11
ENDBRANCH   2   5
BRANCH   1  19
ATOM     19  C   UNL     1       0.609   8.191  21.930  0.00  0.00    +0.000 C 
BRANCH  19  21
ATOM     20  O   UNL     1       0.357  10.336  23.006  0.00  0.00    +0.000 OA
ATOM     21  C   UNL     1       0.353   9.698  21.953  0.00  0.00    +0.000 C 
ATOM     22  N   UNL     1       0.131  10.227  20.686  0.00  0.00    +0.000 N 
ATOM     23  H   UNL     1       0.148   9.635  19.862  0.00  0.00    +0.000 HD
BRANCH  22  24
ATOM     24  N   UNL     1      -0.105  11.564  20.548  0.00  0.00    +0.000 NA
ATOM     25  C   UNL     1       0.881  12.281  20.113  0.00  0.00    +0.000 C 
BRANCH  25  26
ATOM     26  C   UNL     1       0.749  13.743  19.932  0.00  0.00    +0.000 A 
ATOM     27  C   UNL     1      -0.081  14.267  18.933  0.00  0.00    +0.000 A 
ATOM     28  C   UNL     1      -0.197  15.650  18.776  0.00  0.00    +0.000 A 
ATOM     29  C   UNL     1       0.514  16.505  19.617  0.00  0.00    +0.000 A 
ATOM     30 CL   UNL     1       0.368  18.209  19.426  0.00  0.00    +0.000 Cl
ATOM     31  C   UNL     1       1.344  15.988  20.613  0.00  0.00    +0.000 A 
ATOM     32  C   UNL     1       1.463  14.604  20.775  0.00  0.00    +0.000 A 
ENDBRANCH  25  26
ENDBRANCH  22  24
ENDBRANCH  19  21
ENDBRANCH   1  19
TORSDOF 7
ENDMDL
MODEL 7
REMARK VINA RESULT:      -7.4      3.309      4.265
REMARK  Name = 
REMARK  7 active torsions:
REMARK  status: ('A' for Active; 'I' for Inactive)
REMARK    1  A    between atoms: C_2  and  C_3
REMARK    2  A    between atoms: C_3  and  N_4
REMARK    3  A    between atoms: C_5  and  C_7
REMARK    4  A    between atoms: C_10  and  S_11
REMARK    5  A    between atoms: S_11  and  N_14
REMARK    6  A    between atoms: N_21  and  N_22
REMARK    7  A    between atoms: C_23  and  C_24
REMARK                            x       y       z     vdW  Elec       q    Type
REMARK                         _______ _______ _______ _____ _____    ______ ____
ROOT
ATOM      1  N   UNL     1       2.210   7.195  20.549  0.00  0.00    +0.000 N 
ATOM      2  C   UNL     1       2.389   5.988  19.920  0.00  0.00    +0.000 C 
ATOM      3  O   UNL     1       1.587   5.064  20.009  0.00  0.00    +0.000 OA
ATOM      4  H   UNL     1       2.791   7.998  20.336  0.00  0.00    +0.000 HD
ENDROOT
BRANCH   2   5
ATOM      5  C   UNL     1       3.606   5.838  19.074  0.00  0.00    +0.000 A 
ATOM      6  C   UNL     1       4.513   4.781  19.232  0.00  0.00    +0.000 A 
ATOM      7  C   UNL     1       5.600   4.649  18.353  0.00  0.00    +0.000 A 
ATOM      8  C   UNL     1       5.791   5.585  17.330  0.00  0.00    +0.000 A 
ATOM      9  C   UNL     1       4.929   6.679  17.218  0.00  0.00    +0.000 A 
ATOM     10  C   UNL     1       3.819   6.782  18.060  0.00  0.00    +0.000 A 
BRANCH   8  11
ATOM     11  S   UNL     1       7.187   5.440  16.220  0.00  0.00    +0.000 S 
ATOM     12  O   UNL     1       7.913   6.689  16.309  0.00  0.00    +0.000 OA
ATOM     13  O   UNL     1       7.830   4.175  16.514  0.00  0.00    +0.000 OA
BRANCH  11  14
ATOM     14  N   UNL     1       6.532   5.316  14.672  0.00  0.00    +0.000 NA
ATOM     15  C   UNL     1       5.354   4.484  14.399  0.00  0.00    +0.000 C 
ATOM     16  C   UNL     1       5.881   3.385  13.494  0.00  0.00    +0.000 C 
ATOM     17  C   UNL     1       6.997   4.045  12.699  0.00  0.00    +0.000 C 
ATOM     18  C   UNL     1       7.412   5.284  13.491  0.00  0.00    +0.000 C 
ENDBRANCH  11  14
ENDBRANCH   8  11
ENDBRANCH   2   5
BRANCH   1  19
ATOM     19  C   UNL     1       1.023   7.444  21.350  0.00  0.00    +0.000 C 
BRANCH  19  21
ATOM     20  O   UNL     1       0.658   9.445  20.052  0.00  0.00    +0.000 OA
ATOM     21  C   UNL     1       0.503   8.864  21.126  0.00  0.00    +0.000 C 
ATOM     22  N   UNL     1      -0.146   9.384  22.242  0.00  0.00    +0.000 N 
ATOM     23  H   UNL     1      -0.238   8.840  23.093  0.00  0.00    +0.000 HD
BRANCH  22  24
ATOM     24  N   UNL     1      -0.670  10.642  22.188  0.00  0.00    +0.000 NA
ATOM     25  C   UNL     1      -1.401  11.004  23.194  0.00  0.00    +0.000 C 
BRANCH  25  26
ATOM     26  C   UNL     1      -2.032  12.341  23.246  0.00  0.00    +0.000 A 
ATOM     27  C   UNL     1      -3.413  12.472  23.437  0.00  0.00    +0.000 A 
ATOM     28  C   UNL     1      -3.994  13.742  23.486  0.00  0.00    +0.000 A 
ATOM     29  C   UNL     1      -3.194  14.875  23.346  0.00  0.00    +0.000 A 
ATOM     30 CL   UNL     1      -3.908  16.440  23.411  0.00  0.00    +0.000 Cl
ATOM     31  C   UNL     1      -1.817  14.750  23.153  0.00  0.00    +0.000 A 
ATOM     32  C   UNL     1      -1.231  13.481  23.104  0.00  0.00    +0.000 A 
ENDBRANCH  25  26
ENDBRANCH  22  24
ENDBRANCH  19  21
ENDBRANCH   1  19
TORSDOF 7
ENDMDL
MODEL 8
REMARK VINA RESULT:      -7.4      5.873      7.430
REMARK  Name = 
REMARK  7 active torsions:
REMARK  status: ('A' for Active; 'I' for Inactive)
REMARK    1  A    between atoms: C_2  and  C_3
REMARK    2  A    between atoms: C_3  and  N_4
REMARK    3  A    between atoms: C_5  and  C_7
REMARK    4  A    between atoms: C_10  and  S_11
REMARK    5  A    between atoms: S_11  and  N_14
REMARK    6  A    between atoms: N_21  and  N_22
REMARK    7  A    between atoms: C_23  and  C_24
REMARK                            x       y       z     vdW  Elec       q    Type
REMARK                         _______ _______ _______ _____ _____    ______ ____
ROOT
ATOM      1  N   UNL     1       7.385   7.575  17.356  0.00  0.00    +0.000 N 
ATOM      2  C   UNL     1       7.249   6.451  18.132  0.00  0.00    +0.000 C 
ATOM      3  O   UNL     1       8.133   6.048  18.882  0.00  0.00    +0.000 OA
ATOM      4  H   UNL     1       6.595   7.985  16.870  0.00  0.00    +0.000 HD
ENDROOT
BRANCH   2   5
ATOM      5  C   UNL     1       5.947   5.729  18.060  0.00  0.00    +0.000 A 
ATOM      6  C   UNL     1       5.798   4.394  18.460  0.00  0.00    +0.000 A 
ATOM      7  C   UNL     1       4.530   3.792  18.442  0.00  0.00    +0.000 A 
ATOM      8  C   UNL     1       3.415   4.520  18.006  0.00  0.00    +0.000 A 
ATOM      9  C   UNL     1       3.577   5.826  17.539  0.00  0.00    +0.000 A 
ATOM     10  C   UNL     1       4.830   6.441  17.605  0.00  0.00    +0.000 A 
BRANCH   8  11
ATOM     11  S   UNL     1       1.799   3.753  17.957  0.00  0.00    +0.000 S 
ATOM     12  O   UNL     1       0.966   4.607  17.137  0.00  0.00    +0.000 OA
ATOM     13  O   UNL     1       2.002   2.358  17.623  0.00  0.00    +0.000 OA
BRANCH  11  14
ATOM     14  N   UNL     1       1.218   3.806  19.538  0.00  0.00    +0.000 NA
ATOM     15  C   UNL     1       1.582   4.893  20.456  0.00  0.00    +0.000 C 
ATOM     16  C   UNL     1       2.402   4.205  21.533  0.00  0.00    +0.000 C 
ATOM     17  C   UNL     1       1.814   2.807  21.628  0.00  0.00    +0.000 C 
ATOM     18  C   UNL     1       1.066   2.566  20.318  0.00  0.00    +0.000 C 
ENDBRANCH  11  14
ENDBRANCH   8  11
ENDBRANCH   2   5
BRANCH   1  19
ATOM     19  C   UNL     1       8.602   8.367  17.406  0.00  0.00    +0.000 C 
BRANCH  19  21
ATOM     20  O   UNL     1       7.608  10.507  17.913  0.00  0.00    +0.000 OA
ATOM     21  C   UNL     1       8.398   9.625  18.250  0.00  0.00    +0.000 C 
ATOM     22  N   UNL     1       9.182   9.636  19.401  0.00  0.00    +0.000 N 
ATOM     23  H   UNL     1       9.808   8.867  19.613  0.00  0.00    +0.000 HD
BRANCH  22  24
ATOM     24  N   UNL     1       9.102  10.694  20.258  0.00  0.00    +0.000 NA
ATOM     25  C   UNL     1       9.835  11.722  19.973  0.00  0.00    +0.000 C 
BRANCH  25  26
ATOM     26  C   UNL     1       9.841  12.927  20.832  0.00  0.00    +0.000 A 
ATOM     27  C   UNL     1      10.672  14.014  20.533  0.00  0.00    +0.000 A 
ATOM     28  C   UNL     1      10.664  15.145  21.353  0.00  0.00    +0.000 A 
ATOM     29  C   UNL     1       9.827  15.187  22.467  0.00  0.00    +0.000 A 
ATOM     30 CL   UNL     1       9.814  16.582  23.475  0.00  0.00    +0.000 Cl
ATOM     31  C   UNL     1       8.999  14.105  22.771  0.00  0.00    +0.000 A 
ATOM     32  C   UNL     1       9.002  12.971  21.953  0.00  0.00    +0.000 A 
ENDBRANCH  25  26
ENDBRANCH  22  24
ENDBRANCH  19  21
ENDBRANCH   1  19
TORSDOF 7
ENDMDL
MODEL 9
REMARK VINA RESULT:      -7.3      3.949      4.800
REMARK  Name = 
REMARK  7 active torsions:
REMARK  status: ('A' for Active; 'I' for Inactive)
REMARK    1  A    between atoms: C_2  and  C_3
REMARK    2  A    between atoms: C_3  and  N_4
REMARK    3  A    between atoms: C_5  and  C_7
REMARK    4  A    between atoms: C_10  and  S_11
REMARK    5  A    between atoms: S_11  and  N_14
REMARK    6  A    between atoms: N_21  and  N_22
REMARK    7  A    between atoms: C_23  and  C_24
REMARK                            x       y       z     vdW  Elec       q    Type
REMARK                         _______ _______ _______ _____ _____    ______ ____
ROOT
ATOM      1  N   UNL     1       0.947   9.589  19.663  0.00  0.00    +0.000 N 
ATOM      2  C   UNL     1       1.636   9.251  18.525  0.00  0.00    +0.000 C 
ATOM      3  O   UNL     1       1.635   9.947  17.514  0.00  0.00    +0.000 OA
ATOM      4  H   UNL     1       1.087   9.094  20.537  0.00  0.00    +0.000 HD
ENDROOT
BRANCH   2   5
ATOM      5  C   UNL     1       2.434   7.993  18.563  0.00  0.00    +0.000 A 
ATOM      6  C   UNL     1       2.341   7.069  19.612  0.00  0.00    +0.000 A 
ATOM      7  C   UNL     1       3.059   5.864  19.554  0.00  0.00    +0.000 A 
ATOM      8  C   UNL     1       3.884   5.593  18.456  0.00  0.00    +0.000 A 
ATOM      9  C   UNL     1       4.033   6.547  17.446  0.00  0.00    +0.000 A 
ATOM     10  C   UNL     1       3.279   7.722  17.479  0.00  0.00    +0.000 A 
BRANCH   8  11
ATOM     11  S   UNL     1       4.823   4.071  18.385  0.00  0.00    +0.000 S 
ATOM     12  O   UNL     1       5.522   4.080  17.118  0.00  0.00    +0.000 OA
ATOM     13  O   UNL     1       5.541   3.958  19.638  0.00  0.00    +0.000 OA
BRANCH  11  14
ATOM     14  N   UNL     1       3.683   2.830  18.351  0.00  0.00    +0.000 NA
ATOM     15  C   UNL     1       2.547   2.853  17.420  0.00  0.00    +0.000 C 
ATOM     16  C   UNL     1       1.334   2.985  18.322  0.00  0.00    +0.000 C 
ATOM     17  C   UNL     1       1.723   2.255  19.598  0.00  0.00    +0.000 C 
ATOM     18  C   UNL     1       3.250   2.182  19.601  0.00  0.00    +0.000 C 
ENDBRANCH  11  14
ENDBRANCH   8  11
ENDBRANCH   2   5
BRANCH   1  19
ATOM     19  C   UNL     1       0.186  10.826  19.730  0.00  0.00    +0.000 C 
BRANCH  19  21
ATOM     20  O   UNL     1       0.652  10.855  22.097  0.00  0.00    +0.000 OA
ATOM     21  C   UNL     1       0.363  11.501  21.090  0.00  0.00    +0.000 C 
ATOM     22  N   UNL     1       0.171  12.878  21.038  0.00  0.00    +0.000 N 
ATOM     23  H   UNL     1      -0.061  13.340  20.165  0.00  0.00    +0.000 HD
BRANCH  22  24
ATOM     24  N   UNL     1       0.303  13.618  22.176  0.00  0.00    +0.000 NA
ATOM     25  C   UNL     1      -0.681  14.408  22.466  0.00  0.00    +0.000 C 
BRANCH  25  26
ATOM     26  C   UNL     1      -0.650  15.268  23.669  0.00  0.00    +0.000 A 
ATOM     27  C   UNL     1       0.150  16.417  23.706  0.00  0.00    +0.000 A 
ATOM     28  C   UNL     1       0.167  17.220  24.850  0.00  0.00    +0.000 A 
ATOM     29  C   UNL     1      -0.616  16.874  25.950  0.00  0.00    +0.000 A 
ATOM     30 CL   UNL     1      -0.599  17.865  27.357  0.00  0.00    +0.000 Cl
ATOM     31  C   UNL     1      -1.413  15.729  25.919  0.00  0.00    +0.000 A 
ATOM     32  C   UNL     1      -1.434  14.922  24.777  0.00  0.00    +0.000 A 
ENDBRANCH  25  26
ENDBRANCH  22  24
ENDBRANCH  19  21
ENDBRANCH   1  19
TORSDOF 7
ENDMDL
