MODEL 1
REMARK VINA RESULT:      -6.5      0.000      0.000
REMARK  Name = 
REMARK  5 active torsions:
REMARK  status: ('A' for Active; 'I' for Inactive)
REMARK    1  A    between atoms: C_1  and  C_2
REMARK    2  A    between atoms: C_8  and  C_9
REMARK    3  A    between atoms: C_14  and  N_15
REMARK    4  A    between atoms: C_18  and  C_19
REMARK    5  A    between atoms: C_19  and  O_20
REMARK                            x       y       z     vdW  Elec       q    Type
REMARK                         _______ _______ _______ _____ _____    ______ ____
ROOT
ATOM      1  C   UNL     1       2.472   6.984  18.852  0.00  0.00    +0.000 A 
ATOM      2  N   UNL     1       1.578   7.110  19.885  0.00  0.00    +0.000 NA
ATOM      3  C   UNL     1       1.623   6.187  20.861  0.00  0.00    +0.000 A 
ATOM      4  C   UNL     1       2.519   5.149  20.830  0.00  0.00    +0.000 A 
ATOM      5  N   UNL     1       3.408   4.999  19.827  0.00  0.00    +0.000 NA
ATOM      6  C   UNL     1       3.400   5.907  18.813  0.00  0.00    +0.000 A 
ENDROOT
BRANCH   1  14
ATOM      7  C   UNL     1      -1.657  12.697  21.974  0.00  0.00    +0.000 C 
ATOM      8  C   UNL     1      -0.873  12.042  20.886  0.00  0.00    +0.000 A 
ATOM      9  C   UNL     1      -1.500  11.321  19.879  0.00  0.00    +0.000 A 
ATOM     10  C   UNL     1      -0.729  10.705  18.905  0.00  0.00    +0.000 A 
ATOM     11  C   UNL     1       0.664  10.777  18.966  0.00  0.00    +0.000 A 
ATOM     12  N   UNL     1       1.431  10.035  18.044  0.00  0.00    +0.000 N 
ATOM     13  C   UNL     1       1.004   8.789  17.479  0.00  0.00    +0.000 C 
ATOM     14  C   UNL     1       2.358   8.177  17.820  0.00  0.00    +0.000 C 
ATOM     15  C   UNL     1       2.764   9.576  18.310  0.00  0.00    +0.000 C 
ATOM     16  N   UNL     1       1.286  11.516  19.911  0.00  0.00    +0.000 NA
ATOM     17  C   UNL     1       0.513  12.128  20.838  0.00  0.00    +0.000 A 
ENDBRANCH   1  14
BRANCH   6  18
ATOM     18  N   UNL     1       4.299   5.665  17.790  0.00  0.00    +0.000 N 
ATOM     19  C   UNL     1       5.113   6.694  17.165  0.00  0.00    +0.000 C 
ATOM     20  C   UNL     1       5.173   6.503  15.657  0.00  0.00    +0.000 C 
ATOM     21  C   UNL     1       5.590   5.088  15.258  0.00  0.00    +0.000 C 
ATOM     22  C   UNL     1       4.672   4.076  15.958  0.00  0.00    +0.000 C 
ATOM     23  C   UNL     1       4.623   4.271  17.476  0.00  0.00    +0.000 C 
BRANCH  21  24
ATOM     24  C   UNL     1       7.071   4.821  15.548  0.00  0.00    +0.000 C 
BRANCH  24  25
ATOM     25  O   UNL     1       7.893   5.544  14.638  0.00  0.00    +0.000 OA
ATOM     26  H   UNL     1       7.904   5.055  13.797  0.00  0.00    +0.000 HD
ENDBRANCH  24  25
ENDBRANCH  21  24
ENDBRANCH   6  18
TORSDOF 4
ENDMDL
MODEL 2
REMARK VINA RESULT:      -6.4      3.997      8.750
REMARK  Name = 
REMARK  5 active torsions:
REMARK  status: ('A' for Active; 'I' for Inactive)
REMARK    1  A    between atoms: C_1  and  C_2
REMARK    2  A    between atoms: C_8  and  C_9
REMARK    3  A    between atoms: C_14  and  N_15
REMARK    4  A    between atoms: C_18  and  C_19
REMARK    5  A    between atoms: C_19  and  O_20
REMARK                            x       y       z     vdW  Elec       q    Type
REMARK                         _______ _______ _______ _____ _____    ______ ____
ROOT
ATOM      1  C   UNL     1      -0.705  10.521  18.500  0.00  0.00    +0.000 A 
ATOM      2  N   UNL     1      -0.930   9.713  17.414  0.00  0.00    +0.000 NA
ATOM      3  C   UNL     1      -2.171   9.703  16.896  0.00  0.00    +0.000 A 
ATOM      4  C   UNL     1      -3.181  10.460  17.432  0.00  0.00    +0.000 A 
ATOM      5  N   UNL     1      -2.989  11.261  18.499  0.00  0.00    +0.000 NA
ATOM      6  C   UNL     1      -1.750  11.305  19.061  0.00  0.00    +0.000 A 
ENDROOT
BRANCH   1  14
ATOM      7  C   UNL     1       1.639   3.210  19.192  0.00  0.00    +0.000 C 
ATOM      8  C   UNL     1       1.812   4.690  19.258  0.00  0.00    +0.000 A 
ATOM      9  C   UNL     1       1.635   5.385  20.447  0.00  0.00    +0.000 A 
ATOM     10  C   UNL     1       1.777   6.764  20.455  0.00  0.00    +0.000 A 
ATOM     11  C   UNL     1       2.055   7.445  19.268  0.00  0.00    +0.000 A 
ATOM     12  N   UNL     1       2.066   8.855  19.272  0.00  0.00    +0.000 N 
ATOM     13  C   UNL     1       1.255   9.652  20.145  0.00  0.00    +0.000 C 
ATOM     14  C   UNL     1       0.810  10.493  18.954  0.00  0.00    +0.000 C 
ATOM     15  C   UNL     1       1.785   9.653  18.113  0.00  0.00    +0.000 C 
ATOM     16  N   UNL     1       2.280   6.778  18.115  0.00  0.00    +0.000 NA
ATOM     17  C   UNL     1       2.159   5.431  18.135  0.00  0.00    +0.000 A 
ENDBRANCH   1  14
BRANCH   6  18
ATOM     18  N   UNL     1      -1.634  12.103  20.184  0.00  0.00    +0.000 N 
ATOM     19  C   UNL     1      -1.487  11.588  21.535  0.00  0.00    +0.000 C 
ATOM     20  C   UNL     1      -2.332  12.384  22.519  0.00  0.00    +0.000 C 
ATOM     21  C   UNL     1      -2.084  13.889  22.425  0.00  0.00    +0.000 C 
ATOM     22  C   UNL     1      -2.270  14.340  20.968  0.00  0.00    +0.000 C 
ATOM     23  C   UNL     1      -1.412  13.538  19.986  0.00  0.00    +0.000 C 
BRANCH  21  24
ATOM     24  C   UNL     1      -0.713  14.283  22.981  0.00  0.00    +0.000 C 
BRANCH  24  25
ATOM     25  O   UNL     1      -0.834  14.745  24.321  0.00  0.00    +0.000 OA
ATOM     26  H   UNL     1      -1.624  14.328  24.707  0.00  0.00    +0.000 HD
ENDBRANCH  24  25
ENDBRANCH  21  24
ENDBRANCH   6  18
TORSDOF 4
ENDMDL
MODEL 3
REMARK VINA RESULT:      -6.3      5.835     11.085
REMARK  Name = 
REMARK  5 active torsions:
REMARK  status: ('A' for Active; 'I' for Inactive)
REMARK    1  A    between atoms: C_1  and  C_2
REMARK    2  A    between atoms: C_8  and  C_9
REMARK    3  A    between atoms: C_14  and  N_15
REMARK    4  A    between atoms: C_18  and  C_19
REMARK    5  A    between atoms: C_19  and  O_20
REMARK                            x       y       z     vdW  Elec       q    Type
REMARK                         _______ _______ _______ _____ _____    ______ ____
ROOT
ATOM      1  C   UNL     1      -4.164  12.461  19.751  0.00  0.00    +0.000 A 
ATOM      2  N   UNL     1      -3.767  11.698  18.681  0.00  0.00    +0.000 NA
ATOM      3  C   UNL     1      -4.729  11.111  17.948  0.00  0.00    +0.000 A 
ATOM      4  C   UNL     1      -6.058  11.254  18.255  0.00  0.00    +0.000 A 
ATOM      5  N   UNL     1      -6.477  11.996  19.300  0.00  0.00    +0.000 NA
ATOM      6  C   UNL     1      -5.541  12.609  20.076  0.00  0.00    +0.000 A 
ENDROOT
BRANCH   1  14
ATOM      7  C   UNL     1       1.426   7.269  20.856  0.00  0.00    +0.000 C 
ATOM      8  C   UNL     1       0.810   8.624  20.952  0.00  0.00    +0.000 A 
ATOM      9  C   UNL     1       0.121   9.024  22.090  0.00  0.00    +0.000 A 
ATOM     10  C   UNL     1      -0.460  10.282  22.124  0.00  0.00    +0.000 A 
ATOM     11  C   UNL     1      -0.384  11.118  21.007  0.00  0.00    +0.000 A 
ATOM     12  N   UNL     1      -1.093  12.337  21.013  0.00  0.00    +0.000 N 
ATOM     13  C   UNL     1      -2.321  12.538  21.725  0.00  0.00    +0.000 C 
ATOM     14  C   UNL     1      -2.938  13.151  20.473  0.00  0.00    +0.000 C 
ATOM     15  C   UNL     1      -1.554  12.992  19.823  0.00  0.00    +0.000 C 
ATOM     16  N   UNL     1       0.325  10.763  19.914  0.00  0.00    +0.000 NA
ATOM     17  C   UNL     1       0.904   9.540  19.911  0.00  0.00    +0.000 A 
ENDBRANCH   1  14
BRANCH   6  18
ATOM     18  N   UNL     1      -6.033  13.309  21.162  0.00  0.00    +0.000 N 
ATOM     19  C   UNL     1      -6.749  14.569  21.059  0.00  0.00    +0.000 C 
ATOM     20  C   UNL     1      -6.309  15.538  22.146  0.00  0.00    +0.000 C 
ATOM     21  C   UNL     1      -6.378  14.927  23.544  0.00  0.00    +0.000 C 
ATOM     22  C   UNL     1      -5.590  13.609  23.557  0.00  0.00    +0.000 C 
ATOM     23  C   UNL     1      -6.043  12.637  22.464  0.00  0.00    +0.000 C 
BRANCH  21  24
ATOM     24  C   UNL     1      -7.822  14.740  24.021  0.00  0.00    +0.000 C 
BRANCH  24  25
ATOM     25  O   UNL     1      -7.916  13.620  24.893  0.00  0.00    +0.000 OA
ATOM     26  H   UNL     1      -8.403  13.903  25.687  0.00  0.00    +0.000 HD
ENDBRANCH  24  25
ENDBRANCH  21  24
ENDBRANCH   6  18
TORSDOF 4
ENDMDL
MODEL 4
REMARK VINA RESULT:      -6.3      4.863     10.213
REMARK  Name = 
REMARK  5 active torsions:
REMARK  status: ('A' for Active; 'I' for Inactive)
REMARK    1  A    between atoms: C_1  and  C_2
REMARK    2  A    between atoms: C_8  and  C_9
REMARK    3  A    between atoms: C_14  and  N_15
REMARK    4  A    between atoms: C_18  and  C_19
REMARK    5  A    between atoms: C_19  and  O_20
REMARK                            x       y       z     vdW  Elec       q    Type
REMARK                         _______ _______ _______ _____ _____    ______ ____
ROOT
ATOM      1  C   UNL     1      -2.844  12.049  19.261  0.00  0.00    +0.000 A 
ATOM      2  N   UNL     1      -2.661  11.246  18.163  0.00  0.00    +0.000 NA
ATOM      3  C   UNL     1      -3.760  10.795  17.535  0.00  0.00    +0.000 A 
ATOM      4  C   UNL     1      -5.021  11.110  17.974  0.00  0.00    +0.000 A 
ATOM      5  N   UNL     1      -5.231  11.895  19.050  0.00  0.00    +0.000 NA
ATOM      6  C   UNL     1      -4.149  12.375  19.722  0.00  0.00    +0.000 A 
ENDROOT
BRANCH   1  14
ATOM      7  C   UNL     1       2.585   6.669  18.256  0.00  0.00    +0.000 C 
ATOM      8  C   UNL     1       2.068   7.987  18.726  0.00  0.00    +0.000 A 
ATOM      9  C   UNL     1       1.624   8.164  20.030  0.00  0.00    +0.000 A 
ATOM     10  C   UNL     1       1.124   9.399  20.414  0.00  0.00    +0.000 A 
ATOM     11  C   UNL     1       1.032  10.436  19.484  0.00  0.00    +0.000 A 
ATOM     12  N   UNL     1       0.400  11.640  19.858  0.00  0.00    +0.000 N 
ATOM     13  C   UNL     1      -0.662  11.713  20.819  0.00  0.00    +0.000 C 
ATOM     14  C   UNL     1      -1.471  12.568  19.850  0.00  0.00    +0.000 C 
ATOM     15  C   UNL     1      -0.243  12.522  18.927  0.00  0.00    +0.000 C 
ATOM     16  N   UNL     1       1.505  10.293  18.227  0.00  0.00    +0.000 NA
ATOM     17  C   UNL     1       2.011   9.088  17.880  0.00  0.00    +0.000 A 
ENDBRANCH   1  14
BRANCH   6  18
ATOM     18  N   UNL     1      -4.433  13.128  20.847  0.00  0.00    +0.000 N 
ATOM     19  C   UNL     1      -4.156  12.693  22.205  0.00  0.00    +0.000 C 
ATOM     20  C   UNL     1      -5.304  13.048  23.138  0.00  0.00    +0.000 C 
ATOM     21  C   UNL     1      -5.699  14.522  23.052  0.00  0.00    +0.000 C 
ATOM     22  C   UNL     1      -5.979  14.884  21.587  0.00  0.00    +0.000 C 
ATOM     23  C   UNL     1      -4.816  14.529  20.656  0.00  0.00    +0.000 C 
BRANCH  21  24
ATOM     24  C   UNL     1      -4.645  15.438  23.683  0.00  0.00    +0.000 C 
BRANCH  24  25
ATOM     25  O   UNL     1      -4.185  14.892  24.914  0.00  0.00    +0.000 OA
ATOM     26  H   UNL     1      -3.755  14.041  24.718  0.00  0.00    +0.000 HD
ENDBRANCH  24  25
ENDBRANCH  21  24
ENDBRANCH   6  18
TORSDOF 4
ENDMDL
MODEL 5
REMARK VINA RESULT:      -6.3      4.979     10.189
REMARK  Name = 
REMARK  5 active torsions:
REMARK  status: ('A' for Active; 'I' for Inactive)
REMARK    1  A    between atoms: C_1  and  C_2
REMARK    2  A    between atoms: C_8  and  C_9
REMARK    3  A    between atoms: C_14  and  N_15
REMARK    4  A    between atoms: C_18  and  C_19
REMARK    5  A    between atoms: C_19  and  O_20
REMARK                            x       y       z     vdW  Elec       q    Type
REMARK                         _______ _______ _______ _____ _____    ______ ____
ROOT
ATOM      1  C   UNL     1      -2.739  12.107  19.273  0.00  0.00    +0.000 A 
ATOM      2  N   UNL     1      -2.544  11.284  18.192  0.00  0.00    +0.000 NA
ATOM      3  C   UNL     1      -3.634  10.869  17.524  0.00  0.00    +0.000 A 
ATOM      4  C   UNL     1      -4.898  11.240  17.907  0.00  0.00    +0.000 A 
ATOM      5  N   UNL     1      -5.120  12.045  18.965  0.00  0.00    +0.000 NA
ATOM      6  C   UNL     1      -4.048  12.490  19.676  0.00  0.00    +0.000 A 
ENDROOT
BRANCH   1  14
ATOM      7  C   UNL     1       2.605   6.651  18.227  0.00  0.00    +0.000 C 
ATOM      8  C   UNL     1       2.103   7.963  18.727  0.00  0.00    +0.000 A 
ATOM      9  C   UNL     1       1.630   8.108  20.024  0.00  0.00    +0.000 A 
ATOM     10  C   UNL     1       1.145   9.339  20.437  0.00  0.00    +0.000 A 
ATOM     11  C   UNL     1       1.097  10.408  19.539  0.00  0.00    +0.000 A 
ATOM     12  N   UNL     1       0.479  11.612  19.937  0.00  0.00    +0.000 N 
ATOM     13  C   UNL     1      -0.605  11.675  20.873  0.00  0.00    +0.000 C 
ATOM     14  C   UNL     1      -1.372  12.578  19.913  0.00  0.00    +0.000 C 
ATOM     15  C   UNL     1      -0.121  12.536  19.019  0.00  0.00    +0.000 C 
ATOM     16  N   UNL     1       1.599  10.296  18.290  0.00  0.00    +0.000 NA
ATOM     17  C   UNL     1       2.089   9.092  17.916  0.00  0.00    +0.000 A 
ENDBRANCH   1  14
BRANCH   6  18
ATOM     18  N   UNL     1      -4.347  13.267  20.780  0.00  0.00    +0.000 N 
ATOM     19  C   UNL     1      -4.081  14.693  20.865  0.00  0.00    +0.000 C 
ATOM     20  C   UNL     1      -3.538  15.067  22.237  0.00  0.00    +0.000 C 
ATOM     21  C   UNL     1      -4.416  14.556  23.378  0.00  0.00    +0.000 C 
ATOM     22  C   UNL     1      -4.634  13.045  23.207  0.00  0.00    +0.000 C 
ATOM     23  C   UNL     1      -5.186  12.678  21.827  0.00  0.00    +0.000 C 
BRANCH  21  24
ATOM     24  C   UNL     1      -5.738  15.322  23.475  0.00  0.00    +0.000 C 
BRANCH  24  25
ATOM     25  O   UNL     1      -6.616  14.683  24.395  0.00  0.00    +0.000 OA
ATOM     26  H   UNL     1      -7.104  13.996  23.909  0.00  0.00    +0.000 HD
ENDBRANCH  24  25
ENDBRANCH  21  24
ENDBRANCH   6  18
TORSDOF 4
ENDMDL
MODEL 6
REMARK VINA RESULT:      -6.3      4.043      8.537
REMARK  Name = 
REMARK  5 active torsions:
REMARK  status: ('A' for Active; 'I' for Inactive)
REMARK    1  A    between atoms: C_1  and  C_2
REMARK    2  A    between atoms: C_8  and  C_9
REMARK    3  A    between atoms: C_14  and  N_15
REMARK    4  A    between atoms: C_18  and  C_19
REMARK    5  A    between atoms: C_19  and  O_20
REMARK                            x       y       z     vdW  Elec       q    Type
REMARK                         _______ _______ _______ _____ _____    ______ ____
ROOT
ATOM      1  C   UNL     1      -0.526  10.467  18.467  0.00  0.00    +0.000 A 
ATOM      2  N   UNL     1      -0.841   9.597  17.454  0.00  0.00    +0.000 NA
ATOM      3  C   UNL     1      -2.093   9.641  16.967  0.00  0.00    +0.000 A 
ATOM      4  C   UNL     1      -3.030  10.511  17.465  0.00  0.00    +0.000 A 
ATOM      5  N   UNL     1      -2.748  11.376  18.460  0.00  0.00    +0.000 NA
ATOM      6  C   UNL     1      -1.494  11.368  18.989  0.00  0.00    +0.000 A 
ENDROOT
BRANCH   1  14
ATOM      7  C   UNL     1       1.404   3.046  19.267  0.00  0.00    +0.000 C 
ATOM      8  C   UNL     1       1.665   4.515  19.296  0.00  0.00    +0.000 A 
ATOM      9  C   UNL     1       1.557   5.243  20.473  0.00  0.00    +0.000 A 
ATOM     10  C   UNL     1       1.780   6.612  20.448  0.00  0.00    +0.000 A 
ATOM     11  C   UNL     1       2.068   7.250  19.239  0.00  0.00    +0.000 A 
ATOM     12  N   UNL     1       2.161   8.657  19.212  0.00  0.00    +0.000 N 
ATOM     13  C   UNL     1       1.419   9.518  20.086  0.00  0.00    +0.000 C 
ATOM     14  C   UNL     1       0.996  10.360  18.887  0.00  0.00    +0.000 C 
ATOM     15  C   UNL     1       1.900   9.447  18.043  0.00  0.00    +0.000 C 
ATOM     16  N   UNL     1       2.226   6.548  18.096  0.00  0.00    +0.000 NA
ATOM     17  C   UNL     1       2.027   5.211  18.149  0.00  0.00    +0.000 A 
ENDBRANCH   1  14
BRANCH   6  18
ATOM     18  N   UNL     1      -1.286  12.240  20.042  0.00  0.00    +0.000 N 
ATOM     19  C   UNL     1      -0.860  13.620  19.882  0.00  0.00    +0.000 C 
ATOM     20  C   UNL     1       0.181  13.996  20.925  0.00  0.00    +0.000 C 
ATOM     21  C   UNL     1      -0.268  13.673  22.349  0.00  0.00    +0.000 C 
ATOM     22  C   UNL     1      -0.690  12.198  22.422  0.00  0.00    +0.000 C 
ATOM     23  C   UNL     1      -1.742  11.830  21.373  0.00  0.00    +0.000 C 
BRANCH  21  24
ATOM     24  C   UNL     1      -1.376  14.614  22.831  0.00  0.00    +0.000 C 
BRANCH  24  25
ATOM     25  O   UNL     1      -1.551  14.496  24.238  0.00  0.00    +0.000 OA
ATOM     26  H   UNL     1      -1.370  15.367  24.633  0.00  0.00    +0.000 HD
ENDBRANCH  24  25
ENDBRANCH  21  24
ENDBRANCH   6  18
TORSDOF 4
ENDMDL
MODEL 7
REMARK VINA RESULT:      -6.3      3.925      8.312
REMARK  Name = 
REMARK  5 active torsions:
REMARK  status: ('A' for Active; 'I' for Inactive)
REMARK    1  A    between atoms: C_1  and  C_2
REMARK    2  A    between atoms: C_8  and  C_9
REMARK    3  A    between atoms: C_14  and  N_15
REMARK    4  A    between atoms: C_18  and  C_19
REMARK    5  A    between atoms: C_19  and  O_20
REMARK                            x       y       z     vdW  Elec       q    Type
REMARK                         _______ _______ _______ _____ _____    ______ ____
ROOT
ATOM      1  C   UNL     1       4.470   5.905  17.745  0.00  0.00    +0.000 A 
ATOM      2  N   UNL     1       4.876   7.005  17.032  0.00  0.00    +0.000 NA
ATOM      3  C   UNL     1       4.076   8.085  17.049  0.00  0.00    +0.000 A 
ATOM      4  C   UNL     1       2.892   8.094  17.742  0.00  0.00    +0.000 A 
ATOM      5  N   UNL     1       2.467   7.027  18.449  0.00  0.00    +0.000 NA
ATOM      6  C   UNL     1       3.241   5.908  18.461  0.00  0.00    +0.000 A 
ENDROOT
BRANCH   1  14
ATOM      7  C   UNL     1       7.488   5.461  10.666  0.00  0.00    +0.000 C 
ATOM      8  C   UNL     1       7.326   5.041  12.088  0.00  0.00    +0.000 A 
ATOM      9  C   UNL     1       6.461   4.015  12.444  0.00  0.00    +0.000 A 
ATOM     10  C   UNL     1       6.321   3.678  13.781  0.00  0.00    +0.000 A 
ATOM     11  C   UNL     1       7.014   4.395  14.759  0.00  0.00    +0.000 A 
ATOM     12  N   UNL     1       6.757   4.125  16.119  0.00  0.00    +0.000 N 
ATOM     13  C   UNL     1       5.489   3.673  16.613  0.00  0.00    +0.000 C 
ATOM     14  C   UNL     1       5.540   4.741  17.700  0.00  0.00    +0.000 C 
ATOM     15  C   UNL     1       6.940   5.088  17.167  0.00  0.00    +0.000 C 
ATOM     16  N   UNL     1       7.897   5.361  14.424  0.00  0.00    +0.000 NA
ATOM     17  C   UNL     1       8.035   5.658  13.112  0.00  0.00    +0.000 A 
ENDBRANCH   1  14
BRANCH   6  18
ATOM     18  N   UNL     1       2.723   4.833  19.161  0.00  0.00    +0.000 N 
ATOM     19  C   UNL     1       3.094   3.450  18.915  0.00  0.00    +0.000 C 
ATOM     20  C   UNL     1       1.875   2.540  18.962  0.00  0.00    +0.000 C 
ATOM     21  C   UNL     1       1.055   2.720  20.239  0.00  0.00    +0.000 C 
ATOM     22  C   UNL     1       0.705   4.205  20.408  0.00  0.00    +0.000 C 
ATOM     23  C   UNL     1       1.937   5.113  20.365  0.00  0.00    +0.000 C 
BRANCH  21  24
ATOM     24  C   UNL     1       1.771   2.152  21.468  0.00  0.00    +0.000 C 
BRANCH  24  25
ATOM     25  O   UNL     1       1.032   2.440  22.650  0.00  0.00    +0.000 OA
ATOM     26  H   UNL     1       1.377   1.870  23.360  0.00  0.00    +0.000 HD
ENDBRANCH  24  25
ENDBRANCH  21  24
ENDBRANCH   6  18
TORSDOF 4
ENDMDL
MODEL 8
REMARK VINA RESULT:      -6.2      7.010      8.211
REMARK  Name = 
REMARK  5 active torsions:
REMARK  status: ('A' for Active; 'I' for Inactive)
REMARK    1  A    between atoms: C_1  and  C_2
REMARK    2  A    between atoms: C_8  and  C_9
REMARK    3  A    between atoms: C_14  and  N_15
REMARK    4  A    between atoms: C_18  and  C_19
REMARK    5  A    between atoms: C_19  and  O_20
REMARK                            x       y       z     vdW  Elec       q    Type
REMARK                         _______ _______ _______ _____ _____    ______ ____
ROOT
ATOM      1  C   UNL     1       7.681  13.787  21.483  0.00  0.00    +0.000 A 
ATOM      2  N   UNL     1       6.841  13.557  22.543  0.00  0.00    +0.000 NA
ATOM      3  C   UNL     1       7.054  12.449  23.273  0.00  0.00    +0.000 A 
ATOM      4  C   UNL     1       8.062  11.570  22.971  0.00  0.00    +0.000 A 
ATOM      5  N   UNL     1       8.901  11.769  21.935  0.00  0.00    +0.000 NA
ATOM      6  C   UNL     1       8.725  12.876  21.163  0.00  0.00    +0.000 A 
ENDROOT
BRANCH   1  14
ATOM      7  C   UNL     1       0.458  13.679  18.792  0.00  0.00    +0.000 C 
ATOM      8  C   UNL     1       1.799  14.290  19.021  0.00  0.00    +0.000 A 
ATOM      9  C   UNL     1       2.803  14.204  18.065  0.00  0.00    +0.000 A 
ATOM     10  C   UNL     1       4.044  14.762  18.333  0.00  0.00    +0.000 A 
ATOM     11  C   UNL     1       4.287  15.365  19.569  0.00  0.00    +0.000 A 
ATOM     12  N   UNL     1       5.592  15.808  19.871  0.00  0.00    +0.000 N 
ATOM     13  C   UNL     1       6.778  15.190  19.356  0.00  0.00    +0.000 C 
ATOM     14  C   UNL     1       7.365  15.160  20.763  0.00  0.00    +0.000 C 
ATOM     15  C   UNL     1       6.102  15.916  21.208  0.00  0.00    +0.000 C 
ATOM     16  N   UNL     1       3.306  15.500  20.487  0.00  0.00    +0.000 NA
ATOM     17  C   UNL     1       2.096  14.970  20.196  0.00  0.00    +0.000 A 
ENDBRANCH   1  14
BRANCH   6  18
ATOM     18  N   UNL     1       9.584  12.993  20.085  0.00  0.00    +0.000 N 
ATOM     19  C   UNL     1       9.229  12.635  18.722  0.00  0.00    +0.000 C 
ATOM     20  C   UNL     1      10.373  11.909  18.031  0.00  0.00    +0.000 C 
ATOM     21  C   UNL     1      11.695  12.670  18.123  0.00  0.00    +0.000 C 
ATOM     22  C   UNL     1      11.988  12.996  19.594  0.00  0.00    +0.000 C 
ATOM     23  C   UNL     1      10.834  13.732  20.280  0.00  0.00    +0.000 C 
BRANCH  21  24
ATOM     24  C   UNL     1      11.699  13.924  17.242  0.00  0.00    +0.000 C 
BRANCH  24  25
ATOM     25  O   UNL     1      11.366  13.589  15.900  0.00  0.00    +0.000 OA
ATOM     26  H   UNL     1      10.685  12.895  15.928  0.00  0.00    +0.000 HD
ENDBRANCH  24  25
ENDBRANCH  21  24
ENDBRANCH   6  18
TORSDOF 4
ENDMDL
MODEL 9
REMARK VINA RESULT:      -6.2      7.803      8.614
REMARK  Name = 
REMARK  5 active torsions:
REMARK  status: ('A' for Active; 'I' for Inactive)
REMARK    1  A    between atoms: C_1  and  C_2
REMARK    2  A    between atoms: C_8  and  C_9
REMARK    3  A    between atoms: C_14  and  N_15
REMARK    4  A    between atoms: C_18  and  C_19
REMARK    5  A    between atoms: C_19  and  O_20
REMARK                            x       y       z     vdW  Elec       q    Type
REMARK                         _______ _______ _______ _____ _____    ______ ____
ROOT
ATOM      1  C   UNL     1       7.605  14.607  20.650  0.00  0.00    +0.000 A 
ATOM      2  N   UNL     1       6.648  14.707  21.628  0.00  0.00    +0.000 NA
ATOM      3  C   UNL     1       6.690  13.811  22.629  0.00  0.00    +0.000 A 
ATOM      4  C   UNL     1       7.643  12.826  22.675  0.00  0.00    +0.000 A 
ATOM      5  N   UNL     1       8.595  12.703  21.727  0.00  0.00    +0.000 NA
ATOM      6  C   UNL     1       8.593  13.585  20.690  0.00  0.00    +0.000 A 
ENDROOT
BRANCH   1  14
ATOM      7  C   UNL     1       0.188  16.511  19.760  0.00  0.00    +0.000 C 
ATOM      8  C   UNL     1       1.648  16.616  19.472  0.00  0.00    +0.000 A 
ATOM      9  C   UNL     1       2.227  15.923  18.417  0.00  0.00    +0.000 A 
ATOM     10  C   UNL     1       3.593  16.028  18.204  0.00  0.00    +0.000 A 
ATOM     11  C   UNL     1       4.379  16.791  19.070  0.00  0.00    +0.000 A 
ATOM     12  N   UNL     1       5.781  16.778  18.916  0.00  0.00    +0.000 N 
ATOM     13  C   UNL     1       6.512  15.654  18.410  0.00  0.00    +0.000 C 
ATOM     14  C   UNL     1       7.483  15.767  19.581  0.00  0.00    +0.000 C 
ATOM     15  C   UNL     1       6.699  17.025  19.990  0.00  0.00    +0.000 C 
ATOM     16  N   UNL     1       3.823  17.510  20.069  0.00  0.00    +0.000 NA
ATOM     17  C   UNL     1       2.485  17.412  20.244  0.00  0.00    +0.000 A 
ENDBRANCH   1  14
BRANCH   6  18
ATOM     18  N   UNL     1       9.561  13.372  19.725  0.00  0.00    +0.000 N 
ATOM     19  C   UNL     1       9.267  13.035  18.343  0.00  0.00    +0.000 C 
ATOM     20  C   UNL     1      10.215  11.961  17.829  0.00  0.00    +0.000 C 
ATOM     21  C   UNL     1      11.684  12.313  18.058  0.00  0.00    +0.000 C 
ATOM     22  C   UNL     1      11.897  12.645  19.542  0.00  0.00    +0.000 C 
ATOM     23  C   UNL     1      10.944  13.730  20.049  0.00  0.00    +0.000 C 
BRANCH  21  24
ATOM     24  C   UNL     1      12.155  13.446  17.140  0.00  0.00    +0.000 C 
BRANCH  24  25
ATOM     25  O   UNL     1      12.333  12.967  15.812  0.00  0.00    +0.000 OA
ATOM     26  H   UNL     1      12.102  13.690  15.203  0.00  0.00    +0.000 HD
ENDBRANCH  24  25
ENDBRANCH  21  24
ENDBRANCH   6  18
TORSDOF 4
ENDMDL
