MODEL 1
REMARK VINA RESULT:      -8.4      0.000      0.000
REMARK  Name = 
REMARK  5 active torsions:
REMARK  status: ('A' for Active; 'I' for Inactive)
REMARK    1  A    between atoms: C_1  and  O_2
REMARK    2  A    between atoms: O_2  and  C_3
REMARK    3  A    between atoms: C_6  and  C_7
REMARK    4  A    between atoms: C_16  and  C_18
REMARK    5  A    between atoms: C_21  and  C_22
REMARK                            x       y       z     vdW  Elec       q    Type
REMARK                         _______ _______ _______ _____ _____    ______ ____
ROOT
ATOM      1  C   UNL     1       1.893   8.287  18.638  0.00  0.00    +0.000 C 
ATOM      2  N   UNL     1       1.459   9.230  17.879  0.00  0.00    +0.000 NA
ATOM      3  C   UNL     1       0.632  10.157  18.750  0.00  0.00    +0.000 C 
ATOM      4  C   UNL     1      -0.775   9.997  18.103  0.00  0.00    +0.000 C 
ATOM      5  C   UNL     1      -1.741  11.175  18.137  0.00  0.00    +0.000 C 
ATOM      6  C   UNL     1      -1.096  12.564  18.185  0.00  0.00    +0.000 C 
ATOM      7  C   UNL     1       0.326  12.696  18.739  0.00  0.00    +0.000 C 
ATOM      8  C   UNL     1       1.227  11.528  18.414  0.00  0.00    +0.000 C 
ATOM      9  N   UNL     1       0.820   9.665  20.158  0.00  0.00    +0.000 N 
ATOM     10  C   UNL     1       0.647  10.140  21.473  0.00  0.00    +0.000 C 
ATOM     11  O   UNL     1       1.201   9.577  22.434  0.00  0.00    +0.000 OA
ATOM     12  C   UNL     1       1.459   8.440  20.058  0.00  0.00    +0.000 C 
ATOM     13  O   UNL     1       1.600   7.523  20.854  0.00  0.00    +0.000 OA
ENDROOT
BRANCH  10  14
ATOM     14  C   UNL     1      -0.152  11.316  21.932  0.00  0.00    +0.000 A 
ATOM     15  C   UNL     1      -1.274  11.157  22.714  0.00  0.00    +0.000 A 
ATOM     16  C   UNL     1      -2.054  12.227  23.168  0.00  0.00    +0.000 A 
ATOM     17  C   UNL     1      -1.624  13.536  22.980  0.00  0.00    +0.000 A 
ATOM     18  C   UNL     1      -2.392  14.663  23.609  0.00  0.00    +0.000 C 
ATOM     19  C   UNL     1      -0.409  13.734  22.315  0.00  0.00    +0.000 A 
ATOM     20  C   UNL     1       0.307  12.637  21.781  0.00  0.00    +0.000 A 
ENDBRANCH  10  14
BRANCH   1  24
ATOM     21  C   UNL     1       4.281   5.021  17.185  0.00  0.00    +0.000 A 
ATOM     22  C   UNL     1       4.747   6.334  17.086  0.00  0.00    +0.000 A 
ATOM     23  C   UNL     1       3.990   7.406  17.568  0.00  0.00    +0.000 A 
ATOM     24  C   UNL     1       2.740   7.173  18.144  0.00  0.00    +0.000 A 
ATOM     25  C   UNL     1       2.255   5.861  18.217  0.00  0.00    +0.000 A 
ATOM     26  C   UNL     1       3.026   4.783  17.747  0.00  0.00    +0.000 A 
BRANCH  21  28
ATOM     27  C   UNL     1       6.457   4.467  16.433  0.00  0.00    +0.000 C 
ATOM     28  O   UNL     1       5.110   4.072  16.656  0.00  0.00    +0.000 OA
ENDBRANCH  21  28
ENDBRANCH   1  24
TORSDOF 3
ENDMDL
MODEL 2
REMARK VINA RESULT:      -8.1      0.239      1.298
REMARK  Name = 
REMARK  5 active torsions:
REMARK  status: ('A' for Active; 'I' for Inactive)
REMARK    1  A    between atoms: C_1  and  O_2
REMARK    2  A    between atoms: O_2  and  C_3
REMARK    3  A    between atoms: C_6  and  C_7
REMARK    4  A    between atoms: C_16  and  C_18
REMARK    5  A    between atoms: C_21  and  C_22
REMARK                            x       y       z     vdW  Elec       q    Type
REMARK                         _______ _______ _______ _____ _____    ______ ____
ROOT
ATOM      1  C   UNL     1       1.841   8.290  18.658  0.00  0.00    +0.000 C 
ATOM      2  N   UNL     1       1.427   9.247  17.906  0.00  0.00    +0.000 NA
ATOM      3  C   UNL     1       0.643  10.199  18.790  0.00  0.00    +0.000 C 
ATOM      4  C   UNL     1      -0.779  10.085  18.164  0.00  0.00    +0.000 C 
ATOM      5  C   UNL     1      -1.705  11.294  18.214  0.00  0.00    +0.000 C 
ATOM      6  C   UNL     1      -1.016  12.661  18.253  0.00  0.00    +0.000 C 
ATOM      7  C   UNL     1       0.418  12.747  18.785  0.00  0.00    +0.000 C 
ATOM      8  C   UNL     1       1.276  11.551  18.446  0.00  0.00    +0.000 C 
ATOM      9  N   UNL     1       0.836   9.699  20.194  0.00  0.00    +0.000 N 
ATOM     10  C   UNL     1       0.697  10.178  21.512  0.00  0.00    +0.000 C 
ATOM     11  O   UNL     1       1.247   9.597  22.464  0.00  0.00    +0.000 OA
ATOM     12  C   UNL     1       1.434   8.455  20.084  0.00  0.00    +0.000 C 
ATOM     13  O   UNL     1       1.557   7.532  20.877  0.00  0.00    +0.000 OA
ENDROOT
BRANCH  10  14
ATOM     14  C   UNL     1      -0.057  11.379  21.985  0.00  0.00    +0.000 A 
ATOM     15  C   UNL     1       0.413  12.652  21.757  0.00  0.00    +0.000 A 
ATOM     16  C   UNL     1      -0.257  13.806  22.180  0.00  0.00    +0.000 A 
ATOM     17  C   UNL     1      -1.537  13.717  22.715  0.00  0.00    +0.000 A 
ATOM     18  C   UNL     1      -2.302  14.973  23.017  0.00  0.00    +0.000 C 
ATOM     19  C   UNL     1      -2.109  12.445  22.828  0.00  0.00    +0.000 A 
ATOM     20  C   UNL     1      -1.369  11.289  22.484  0.00  0.00    +0.000 A 
ENDBRANCH  10  14
BRANCH   1  24
ATOM     21  C   UNL     1       4.233   5.025  17.207  0.00  0.00    +0.000 A 
ATOM     22  C   UNL     1       2.993   4.781  17.804  0.00  0.00    +0.000 A 
ATOM     23  C   UNL     1       2.197   5.833  18.267  0.00  0.00    +0.000 A 
ATOM     24  C   UNL     1       2.644   7.150  18.150  0.00  0.00    +0.000 A 
ATOM     25  C   UNL     1       3.899   7.397  17.580  0.00  0.00    +0.000 A 
ATOM     26  C   UNL     1       4.691   6.339  17.100  0.00  0.00    +0.000 A 
BRANCH  21  28
ATOM     27  C   UNL     1       6.046   4.122  15.982  0.00  0.00    +0.000 C 
ATOM     28  O   UNL     1       4.918   3.908  16.819  0.00  0.00    +0.000 OA
ENDBRANCH  21  28
ENDBRANCH   1  24
TORSDOF 3
ENDMDL
MODEL 3
REMARK VINA RESULT:      -8.0      0.915      1.226
REMARK  Name = 
REMARK  5 active torsions:
REMARK  status: ('A' for Active; 'I' for Inactive)
REMARK    1  A    between atoms: C_1  and  O_2
REMARK    2  A    between atoms: O_2  and  C_3
REMARK    3  A    between atoms: C_6  and  C_7
REMARK    4  A    between atoms: C_16  and  C_18
REMARK    5  A    between atoms: C_21  and  C_22
REMARK                            x       y       z     vdW  Elec       q    Type
REMARK                         _______ _______ _______ _____ _____    ______ ____
ROOT
ATOM      1  C   UNL     1       1.550   8.579  19.323  0.00  0.00    +0.000 C 
ATOM      2  N   UNL     1       1.116   9.465  18.499  0.00  0.00    +0.000 NA
ATOM      3  C   UNL     1       0.219  10.402  19.288  0.00  0.00    +0.000 C 
ATOM      4  C   UNL     1      -1.152  10.156  18.592  0.00  0.00    +0.000 C 
ATOM      5  C   UNL     1      -2.161  11.297  18.526  0.00  0.00    +0.000 C 
ATOM      6  C   UNL     1      -1.569  12.710  18.528  0.00  0.00    +0.000 C 
ATOM      7  C   UNL     1      -0.178  12.924  19.133  0.00  0.00    +0.000 C 
ATOM      8  C   UNL     1       0.778  11.776  18.906  0.00  0.00    +0.000 C 
ATOM      9  N   UNL     1       0.364   9.988  20.725  0.00  0.00    +0.000 N 
ATOM     10  C   UNL     1       0.117  10.521  22.006  0.00  0.00    +0.000 C 
ATOM     11  O   UNL     1       0.649  10.029  23.016  0.00  0.00    +0.000 OA
ATOM     12  C   UNL     1       1.051   8.785  20.715  0.00  0.00    +0.000 C 
ATOM     13  O   UNL     1       1.190   7.915  21.562  0.00  0.00    +0.000 OA
ENDROOT
BRANCH  10  14
ATOM     14  C   UNL     1      -0.743  11.687  22.371  0.00  0.00    +0.000 A 
ATOM     15  C   UNL     1      -1.953  11.512  23.003  0.00  0.00    +0.000 A 
ATOM     16  C   UNL     1      -2.793  12.572  23.364  0.00  0.00    +0.000 A 
ATOM     17  C   UNL     1      -2.354  13.886  23.244  0.00  0.00    +0.000 A 
ATOM     18  C   UNL     1      -3.204  15.002  23.781  0.00  0.00    +0.000 C 
ATOM     19  C   UNL     1      -1.066  14.099  22.740  0.00  0.00    +0.000 A 
ATOM     20  C   UNL     1      -0.279  13.012  22.291  0.00  0.00    +0.000 A 
ENDBRANCH  10  14
BRANCH   1  24
ATOM     21  C   UNL     1       4.229   5.433  18.136  0.00  0.00    +0.000 A 
ATOM     22  C   UNL     1       3.435   5.290  19.276  0.00  0.00    +0.000 A 
ATOM     23  C   UNL     1       2.547   6.297  19.667  0.00  0.00    +0.000 A 
ATOM     24  C   UNL     1       2.457   7.474  18.922  0.00  0.00    +0.000 A 
ATOM     25  C   UNL     1       3.274   7.634  17.797  0.00  0.00    +0.000 A 
ATOM     26  C   UNL     1       4.154   6.614  17.395  0.00  0.00    +0.000 A 
BRANCH  21  28
ATOM     27  C   UNL     1       5.268   4.060  16.510  0.00  0.00    +0.000 C 
ATOM     28  O   UNL     1       5.067   4.384  17.879  0.00  0.00    +0.000 OA
ENDBRANCH  21  28
ENDBRANCH   1  24
TORSDOF 3
ENDMDL
MODEL 4
REMARK VINA RESULT:      -7.8      1.317      1.888
REMARK  Name = 
REMARK  5 active torsions:
REMARK  status: ('A' for Active; 'I' for Inactive)
REMARK    1  A    between atoms: C_1  and  O_2
REMARK    2  A    between atoms: O_2  and  C_3
REMARK    3  A    between atoms: C_6  and  C_7
REMARK    4  A    between atoms: C_16  and  C_18
REMARK    5  A    between atoms: C_21  and  C_22
REMARK                            x       y       z     vdW  Elec       q    Type
REMARK                         _______ _______ _______ _____ _____    ______ ____
ROOT
ATOM      1  C   UNL     1       1.516   8.613  19.467  0.00  0.00    +0.000 C 
ATOM      2  N   UNL     1       1.347   9.498  18.550  0.00  0.00    +0.000 NA
ATOM      3  C   UNL     1       0.483  10.595  19.145  0.00  0.00    +0.000 C 
ATOM      4  C   UNL     1      -0.785  10.495  18.246  0.00  0.00    +0.000 C 
ATOM      5  C   UNL     1      -1.596  11.756  17.974  0.00  0.00    +0.000 C 
ATOM      6  C   UNL     1      -0.815  13.074  18.018  0.00  0.00    +0.000 C 
ATOM      7  C   UNL     1       0.481  13.133  18.831  0.00  0.00    +0.000 C 
ATOM      8  C   UNL     1       1.286  11.854  18.807  0.00  0.00    +0.000 C 
ATOM      9  N   UNL     1       0.342  10.253  20.602  0.00  0.00    +0.000 N 
ATOM     10  C   UNL     1      -0.022  10.892  21.804  0.00  0.00    +0.000 C 
ATOM     11  O   UNL     1       0.270  10.394  22.906  0.00  0.00    +0.000 OA
ATOM     12  C   UNL     1       0.841   8.970  20.750  0.00  0.00    +0.000 C 
ATOM     13  O   UNL     1       0.721   8.142  21.641  0.00  0.00    +0.000 OA
ENDROOT
BRANCH  10  14
ATOM     14  C   UNL     1      -0.752  12.184  21.980  0.00  0.00    +0.000 A 
ATOM     15  C   UNL     1      -0.077  13.358  22.226  0.00  0.00    +0.000 A 
ATOM     16  C   UNL     1      -0.716  14.591  22.398  0.00  0.00    +0.000 A 
ATOM     17  C   UNL     1      -2.080  14.713  22.157  0.00  0.00    +0.000 A 
ATOM     18  C   UNL     1      -2.718  16.072  22.193  0.00  0.00    +0.000 C 
ATOM     19  C   UNL     1      -2.776  13.567  21.760  0.00  0.00    +0.000 A 
ATOM     20  C   UNL     1      -2.122  12.314  21.692  0.00  0.00    +0.000 A 
ENDBRANCH  10  14
BRANCH   1  24
ATOM     21  C   UNL     1       3.861   5.065  18.838  0.00  0.00    +0.000 A 
ATOM     22  C   UNL     1       3.050   5.183  19.970  0.00  0.00    +0.000 A 
ATOM     23  C   UNL     1       2.269   6.324  20.181  0.00  0.00    +0.000 A 
ATOM     24  C   UNL     1       2.306   7.373  19.261  0.00  0.00    +0.000 A 
ATOM     25  C   UNL     1       3.140   7.271  18.142  0.00  0.00    +0.000 A 
ATOM     26  C   UNL     1       3.912   6.117  17.922  0.00  0.00    +0.000 A 
BRANCH  21  28
ATOM     27  C   UNL     1       4.182   2.857  19.630  0.00  0.00    +0.000 C 
ATOM     28  O   UNL     1       4.587   3.909  18.765  0.00  0.00    +0.000 OA
ENDBRANCH  21  28
ENDBRANCH   1  24
TORSDOF 3
ENDMDL
MODEL 5
REMARK VINA RESULT:      -7.8      1.003      1.314
REMARK  Name = 
REMARK  5 active torsions:
REMARK  status: ('A' for Active; 'I' for Inactive)
REMARK    1  A    between atoms: C_1  and  O_2
REMARK    2  A    between atoms: O_2  and  C_3
REMARK    3  A    between atoms: C_6  and  C_7
REMARK    4  A    between atoms: C_16  and  C_18
REMARK    5  A    between atoms: C_21  and  C_22
REMARK                            x       y       z     vdW  Elec       q    Type
REMARK                         _______ _______ _______ _____ _____    ______ ____
ROOT
ATOM      1  C   UNL     1       1.652   8.592  19.247  0.00  0.00    +0.000 C 
ATOM      2  N   UNL     1       1.369   9.490  18.372  0.00  0.00    +0.000 NA
ATOM      3  C   UNL     1       0.489  10.518  19.059  0.00  0.00    +0.000 C 
ATOM      4  C   UNL     1      -0.832  10.369  18.248  0.00  0.00    +0.000 C 
ATOM      5  C   UNL     1      -1.730  11.587  18.071  0.00  0.00    +0.000 C 
ATOM      6  C   UNL     1      -1.023  12.946  18.100  0.00  0.00    +0.000 C 
ATOM      7  C   UNL     1       0.323  13.059  18.823  0.00  0.00    +0.000 C 
ATOM      8  C   UNL     1       1.194  11.831  18.703  0.00  0.00    +0.000 C 
ATOM      9  N   UNL     1       0.473  10.131  20.511  0.00  0.00    +0.000 N 
ATOM     10  C   UNL     1       0.160  10.716  21.754  0.00  0.00    +0.000 C 
ATOM     11  O   UNL     1       0.558  10.207  22.817  0.00  0.00    +0.000 OA
ATOM     12  C   UNL     1       1.052   8.875  20.584  0.00  0.00    +0.000 C 
ATOM     13  O   UNL     1       1.043   8.019  21.456  0.00  0.00    +0.000 OA
ENDROOT
BRANCH  10  14
ATOM     14  C   UNL     1      -0.626  11.958  22.019  0.00  0.00    +0.000 A 
ATOM     15  C   UNL     1      -0.004  13.172  22.200  0.00  0.00    +0.000 A 
ATOM     16  C   UNL     1      -0.697  14.362  22.451  0.00  0.00    +0.000 A 
ATOM     17  C   UNL     1      -2.085  14.397  22.362  0.00  0.00    +0.000 A 
ATOM     18  C   UNL     1      -2.800  15.712  22.479  0.00  0.00    +0.000 C 
ATOM     19  C   UNL     1      -2.746  13.209  22.034  0.00  0.00    +0.000 A 
ATOM     20  C   UNL     1      -2.025  12.001  21.884  0.00  0.00    +0.000 A 
ENDBRANCH  10  14
BRANCH   1  24
ATOM     21  C   UNL     1       4.033   5.110  18.413  0.00  0.00    +0.000 A 
ATOM     22  C   UNL     1       4.084   6.220  17.565  0.00  0.00    +0.000 A 
ATOM     23  C   UNL     1       3.328   7.366  17.831  0.00  0.00    +0.000 A 
ATOM     24  C   UNL     1       2.494   7.406  18.949  0.00  0.00    +0.000 A 
ATOM     25  C   UNL     1       2.417   6.285  19.785  0.00  0.00    +0.000 A 
ATOM     26  C   UNL     1       3.190   5.140  19.526  0.00  0.00    +0.000 A 
BRANCH  21  28
ATOM     27  C   UNL     1       5.043   3.923  16.632  0.00  0.00    +0.000 C 
ATOM     28  O   UNL     1       4.805   4.051  18.027  0.00  0.00    +0.000 OA
ENDBRANCH  21  28
ENDBRANCH   1  24
TORSDOF 3
ENDMDL
MODEL 6
REMARK VINA RESULT:      -7.7      1.204      1.376
REMARK  Name = 
REMARK  5 active torsions:
REMARK  status: ('A' for Active; 'I' for Inactive)
REMARK    1  A    between atoms: C_1  and  O_2
REMARK    2  A    between atoms: O_2  and  C_3
REMARK    3  A    between atoms: C_6  and  C_7
REMARK    4  A    between atoms: C_16  and  C_18
REMARK    5  A    between atoms: C_21  and  C_22
REMARK                            x       y       z     vdW  Elec       q    Type
REMARK                         _______ _______ _______ _____ _____    ______ ____
ROOT
ATOM      1  C   UNL     1       1.517   8.640  19.447  0.00  0.00    +0.000 C 
ATOM      2  N   UNL     1       1.335   9.536  18.544  0.00  0.00    +0.000 NA
ATOM      3  C   UNL     1       0.459  10.613  19.157  0.00  0.00    +0.000 C 
ATOM      4  C   UNL     1      -0.810  10.511  18.259  0.00  0.00    +0.000 C 
ATOM      5  C   UNL     1      -1.636  11.766  18.007  0.00  0.00    +0.000 C 
ATOM      6  C   UNL     1      -0.871  13.092  18.068  0.00  0.00    +0.000 C 
ATOM      7  C   UNL     1       0.427  13.155  18.879  0.00  0.00    +0.000 C 
ATOM      8  C   UNL     1       1.246  11.887  18.834  0.00  0.00    +0.000 C 
ATOM      9  N   UNL     1       0.327  10.249  20.609  0.00  0.00    +0.000 N 
ATOM     10  C   UNL     1      -0.042  10.866  21.821  0.00  0.00    +0.000 C 
ATOM     11  O   UNL     1       0.260  10.356  22.915  0.00  0.00    +0.000 OA
ATOM     12  C   UNL     1       0.842   8.970  20.737  0.00  0.00    +0.000 C 
ATOM     13  O   UNL     1       0.734   8.128  21.617  0.00  0.00    +0.000 OA
ENDROOT
BRANCH  10  14
ATOM     14  C   UNL     1      -0.786  12.147  22.017  0.00  0.00    +0.000 A 
ATOM     15  C   UNL     1      -2.162  12.176  22.049  0.00  0.00    +0.000 A 
ATOM     16  C   UNL     1      -2.902  13.350  22.229  0.00  0.00    +0.000 A 
ATOM     17  C   UNL     1      -2.261  14.540  22.556  0.00  0.00    +0.000 A 
ATOM     18  C   UNL     1      -3.080  15.751  22.899  0.00  0.00    +0.000 C 
ATOM     19  C   UNL     1      -0.868  14.517  22.677  0.00  0.00    +0.000 A 
ATOM     20  C   UNL     1      -0.139  13.338  22.391  0.00  0.00    +0.000 A 
ENDBRANCH  10  14
BRANCH   1  24
ATOM     21  C   UNL     1       3.789   5.042  18.828  0.00  0.00    +0.000 A 
ATOM     22  C   UNL     1       3.842   6.080  17.894  0.00  0.00    +0.000 A 
ATOM     23  C   UNL     1       3.121   7.263  18.088  0.00  0.00    +0.000 A 
ATOM     24  C   UNL     1       2.321   7.412  19.222  0.00  0.00    +0.000 A 
ATOM     25  C   UNL     1       2.241   6.363  20.145  0.00  0.00    +0.000 A 
ATOM     26  C   UNL     1       2.980   5.182  19.957  0.00  0.00    +0.000 A 
BRANCH  21  28
ATOM     27  C   UNL     1       3.828   2.892  17.839  0.00  0.00    +0.000 C 
ATOM     28  O   UNL     1       4.524   3.936  18.506  0.00  0.00    +0.000 OA
ENDBRANCH  21  28
ENDBRANCH   1  24
TORSDOF 3
ENDMDL
MODEL 7
REMARK VINA RESULT:      -7.6      1.327      1.812
REMARK  Name = 
REMARK  5 active torsions:
REMARK  status: ('A' for Active; 'I' for Inactive)
REMARK    1  A    between atoms: C_1  and  O_2
REMARK    2  A    between atoms: O_2  and  C_3
REMARK    3  A    between atoms: C_6  and  C_7
REMARK    4  A    between atoms: C_16  and  C_18
REMARK    5  A    between atoms: C_21  and  C_22
REMARK                            x       y       z     vdW  Elec       q    Type
REMARK                         _______ _______ _______ _____ _____    ______ ____
ROOT
ATOM      1  C   UNL     1       1.153   8.933  19.701  0.00  0.00    +0.000 C 
ATOM      2  N   UNL     1       0.787   9.867  18.897  0.00  0.00    +0.000 NA
ATOM      3  C   UNL     1      -0.141  10.784  19.674  0.00  0.00    +0.000 C 
ATOM      4  C   UNL     1      -1.470  10.600  18.883  0.00  0.00    +0.000 C 
ATOM      5  C   UNL     1      -2.452  11.764  18.813  0.00  0.00    +0.000 C 
ATOM      6  C   UNL     1      -1.837  13.163  18.921  0.00  0.00    +0.000 C 
ATOM      7  C   UNL     1      -0.482  13.318  19.620  0.00  0.00    +0.000 C 
ATOM      8  C   UNL     1       0.465  12.163  19.396  0.00  0.00    +0.000 C 
ATOM      9  N   UNL     1      -0.093  10.298  21.095  0.00  0.00    +0.000 N 
ATOM     10  C   UNL     1      -0.411  10.773  22.383  0.00  0.00    +0.000 C 
ATOM     11  O   UNL     1       0.049  10.221  23.399  0.00  0.00    +0.000 OA
ATOM     12  C   UNL     1       0.571   9.082  21.068  0.00  0.00    +0.000 C 
ATOM     13  O   UNL     1       0.642   8.169  21.877  0.00  0.00    +0.000 OA
ENDROOT
BRANCH  10  14
ATOM     14  C   UNL     1      -1.271  11.938  22.752  0.00  0.00    +0.000 A 
ATOM     15  C   UNL     1      -0.722  13.161  23.063  0.00  0.00    +0.000 A 
ATOM     16  C   UNL     1      -1.486  14.280  23.415  0.00  0.00    +0.000 A 
ATOM     17  C   UNL     1      -2.871  14.246  23.301  0.00  0.00    +0.000 A 
ATOM     18  C   UNL     1      -3.662  15.502  23.531  0.00  0.00    +0.000 C 
ATOM     19  C   UNL     1      -3.459  13.062  22.845  0.00  0.00    +0.000 A 
ATOM     20  C   UNL     1      -2.668  11.916  22.592  0.00  0.00    +0.000 A 
ENDBRANCH  10  14
BRANCH   1  24
ATOM     21  C   UNL     1       3.740   5.688  18.577  0.00  0.00    +0.000 A 
ATOM     22  C   UNL     1       3.636   6.821  17.766  0.00  0.00    +0.000 A 
ATOM     23  C   UNL     1       2.811   7.892  18.126  0.00  0.00    +0.000 A 
ATOM     24  C   UNL     1       2.063   7.831  19.302  0.00  0.00    +0.000 A 
ATOM     25  C   UNL     1       2.141   6.684  20.102  0.00  0.00    +0.000 A 
ATOM     26  C   UNL     1       2.983   5.616  19.749  0.00  0.00    +0.000 A 
BRANCH  21  28
ATOM     27  C   UNL     1       4.788   3.600  18.961  0.00  0.00    +0.000 C 
ATOM     28  O   UNL     1       4.563   4.708  18.100  0.00  0.00    +0.000 OA
ENDBRANCH  21  28
ENDBRANCH   1  24
TORSDOF 3
ENDMDL
MODEL 8
REMARK VINA RESULT:      -7.6      1.596      2.233
REMARK  Name = 
REMARK  5 active torsions:
REMARK  status: ('A' for Active; 'I' for Inactive)
REMARK    1  A    between atoms: C_1  and  O_2
REMARK    2  A    between atoms: O_2  and  C_3
REMARK    3  A    between atoms: C_6  and  C_7
REMARK    4  A    between atoms: C_16  and  C_18
REMARK    5  A    between atoms: C_21  and  C_22
REMARK                            x       y       z     vdW  Elec       q    Type
REMARK                         _______ _______ _______ _____ _____    ______ ____
ROOT
ATOM      1  C   UNL     1       1.057   8.803  20.092  0.00  0.00    +0.000 C 
ATOM      2  N   UNL     1       1.201   9.767  19.254  0.00  0.00    +0.000 NA
ATOM      3  C   UNL     1       0.325  10.908  19.736  0.00  0.00    +0.000 C 
ATOM      4  C   UNL     1      -0.689  11.023  18.560  0.00  0.00    +0.000 C 
ATOM      5  C   UNL     1      -1.287  12.386  18.231  0.00  0.00    +0.000 C 
ATOM      6  C   UNL     1      -0.419  13.597  18.588  0.00  0.00    +0.000 C 
ATOM      7  C   UNL     1       0.640  13.446  19.684  0.00  0.00    +0.000 C 
ATOM      8  C   UNL     1       1.302  12.089  19.722  0.00  0.00    +0.000 C 
ATOM      9  N   UNL     1      -0.197  10.479  21.078  0.00  0.00    +0.000 N 
ATOM     10  C   UNL     1      -0.781  11.065  22.219  0.00  0.00    +0.000 C 
ATOM     11  O   UNL     1      -0.814  10.458  23.303  0.00  0.00    +0.000 OA
ATOM     12  C   UNL     1       0.127   9.139  21.211  0.00  0.00    +0.000 C 
ATOM     13  O   UNL     1      -0.284   8.268  21.962  0.00  0.00    +0.000 OA
ENDROOT
BRANCH  10  14
ATOM     14  C   UNL     1      -1.406  12.417  22.346  0.00  0.00    +0.000 A 
ATOM     15  C   UNL     1      -2.676  12.664  21.875  0.00  0.00    +0.000 A 
ATOM     16  C   UNL     1      -3.302  13.912  21.971  0.00  0.00    +0.000 A 
ATOM     17  C   UNL     1      -2.718  14.934  22.710  0.00  0.00    +0.000 A 
ATOM     18  C   UNL     1      -3.476  16.212  22.932  0.00  0.00    +0.000 C 
ATOM     19  C   UNL     1      -1.491  14.672  23.328  0.00  0.00    +0.000 A 
ATOM     20  C   UNL     1      -0.835  13.434  23.131  0.00  0.00    +0.000 A 
ENDBRANCH  10  14
BRANCH   1  24
ATOM     21  C   UNL     1       3.136   5.063  19.672  0.00  0.00    +0.000 A 
ATOM     22  C   UNL     1       2.203   5.240  20.696  0.00  0.00    +0.000 A 
ATOM     23  C   UNL     1       1.507   6.444  20.837  0.00  0.00    +0.000 A 
ATOM     24  C   UNL     1       1.753   7.498  19.956  0.00  0.00    +0.000 A 
ATOM     25  C   UNL     1       2.710   7.336  18.947  0.00  0.00    +0.000 A 
ATOM     26  C   UNL     1       3.397   6.119  18.796  0.00  0.00    +0.000 A 
BRANCH  21  28
ATOM     27  C   UNL     1       4.980   3.772  18.937  0.00  0.00    +0.000 C 
ATOM     28  O   UNL     1       3.759   3.847  19.660  0.00  0.00    +0.000 OA
ENDBRANCH  21  28
ENDBRANCH   1  24
TORSDOF 3
ENDMDL
MODEL 9
REMARK VINA RESULT:      -7.6      1.573      2.353
REMARK  Name = 
REMARK  5 active torsions:
REMARK  status: ('A' for Active; 'I' for Inactive)
REMARK    1  A    between atoms: C_1  and  O_2
REMARK    2  A    between atoms: O_2  and  C_3
REMARK    3  A    between atoms: C_6  and  C_7
REMARK    4  A    between atoms: C_16  and  C_18
REMARK    5  A    between atoms: C_21  and  C_22
REMARK                            x       y       z     vdW  Elec       q    Type
REMARK                         _______ _______ _______ _____ _____    ______ ____
ROOT
ATOM      1  C   UNL     1       1.044   9.081  19.989  0.00  0.00    +0.000 C 
ATOM      2  N   UNL     1       1.251  10.138  19.287  0.00  0.00    +0.000 NA
ATOM      3  C   UNL     1       0.332  11.217  19.828  0.00  0.00    +0.000 C 
ATOM      4  C   UNL     1      -0.582  11.476  18.593  0.00  0.00    +0.000 C 
ATOM      5  C   UNL     1      -1.158  12.871  18.382  0.00  0.00    +0.000 C 
ATOM      6  C   UNL     1      -0.330  14.027  18.951  0.00  0.00    +0.000 C 
ATOM      7  C   UNL     1       0.636  13.742  20.106  0.00  0.00    +0.000 C 
ATOM      8  C   UNL     1       1.300  12.386  20.036  0.00  0.00    +0.000 C 
ATOM      9  N   UNL     1      -0.298  10.633  21.061  0.00  0.00    +0.000 N 
ATOM     10  C   UNL     1      -0.977  11.080  22.211  0.00  0.00    +0.000 C 
ATOM     11  O   UNL     1      -1.096  10.347  23.208  0.00  0.00    +0.000 OA
ATOM     12  C   UNL     1       0.023   9.285  21.058  0.00  0.00    +0.000 C 
ATOM     13  O   UNL     1      -0.444   8.331  21.664  0.00  0.00    +0.000 OA
ENDROOT
BRANCH  10  14
ATOM     14  C   UNL     1      -1.618  12.410  22.446  0.00  0.00    +0.000 A 
ATOM     15  C   UNL     1      -1.017  13.362  23.237  0.00  0.00    +0.000 A 
ATOM     16  C   UNL     1      -1.579  14.620  23.487  0.00  0.00    +0.000 A 
ATOM     17  C   UNL     1      -2.715  15.030  22.797  0.00  0.00    +0.000 A 
ATOM     18  C   UNL     1      -3.211  16.438  22.962  0.00  0.00    +0.000 C 
ATOM     19  C   UNL     1      -3.272  14.140  21.873  0.00  0.00    +0.000 A 
ATOM     20  C   UNL     1      -2.740  12.838  21.715  0.00  0.00    +0.000 A 
ENDBRANCH  10  14
BRANCH   1  24
ATOM     21  C   UNL     1       3.164   5.409  19.276  0.00  0.00    +0.000 A 
ATOM     22  C   UNL     1       2.412   5.575  20.443  0.00  0.00    +0.000 A 
ATOM     23  C   UNL     1       1.704   6.757  20.682  0.00  0.00    +0.000 A 
ATOM     24  C   UNL     1       1.756   7.799  19.755  0.00  0.00    +0.000 A 
ATOM     25  C   UNL     1       2.533   7.649  18.600  0.00  0.00    +0.000 A 
ATOM     26  C   UNL     1       3.230   6.454  18.353  0.00  0.00    +0.000 A 
BRANCH  21  28
ATOM     27  C   UNL     1       3.682   3.520  17.946  0.00  0.00    +0.000 C 
ATOM     28  O   UNL     1       3.823   4.215  19.177  0.00  0.00    +0.000 OA
ENDBRANCH  21  28
ENDBRANCH   1  24
TORSDOF 3
ENDMDL
