MODEL 1
REMARK VINA RESULT:      -9.2      0.000      0.000
REMARK  Name = 
REMARK  5 active torsions:
REMARK  status: ('A' for Active; 'I' for Inactive)
REMARK    1  A    between atoms: C_1  and  C_2
REMARK    2  A    between atoms: C_5  and  C_6
REMARK    3  A    between atoms: C_7  and  N_8
REMARK    4  A    between atoms: C_12  and  C_14
REMARK    5  A    between atoms: C_14  and  N_15
REMARK                            x       y       z     vdW  Elec       q    Type
REMARK                         _______ _______ _______ _____ _____    ______ ____
ROOT
ATOM      1  N   UNL     1       2.639   6.808  18.460  0.00  0.00    +0.000 N 
ATOM      2  C   UNL     1       2.828   8.194  17.997  0.00  0.00    +0.000 C 
ATOM      3  C   UNL     1       1.581   9.000  18.361  0.00  0.00    +0.000 C 
ATOM      4  N   UNL     1       1.312   8.963  19.804  0.00  0.00    +0.000 N 
ATOM      5  C   UNL     1       0.720  10.000  20.507  0.00  0.00    +0.000 C 
ATOM      6  O   UNL     1       0.398   9.853  21.691  0.00  0.00    +0.000 OA
ATOM      7  C   UNL     1       1.318   7.605  20.393  0.00  0.00    +0.000 C 
ATOM      8  C   UNL     1       2.519   6.743  19.936  0.00  0.00    +0.000 C 
ENDROOT
BRANCH   1  15
ATOM      9  C   UNL     1       6.849   5.472  16.201  0.00  0.00    +0.000 C 
ATOM     10  C   UNL     1       5.481   5.118  16.704  0.00  0.00    +0.000 A 
ATOM     11  C   UNL     1       4.942   3.852  16.498  0.00  0.00    +0.000 A 
ATOM     12  C   UNL     1       3.654   3.563  16.948  0.00  0.00    +0.000 A 
ATOM     13  C   UNL     1       2.874   4.535  17.600  0.00  0.00    +0.000 A 
ATOM     14  C   UNL     1       1.453   4.179  17.951  0.00  0.00    +0.000 C 
ATOM     15  C   UNL     1       3.414   5.816  17.850  0.00  0.00    +0.000 A 
ATOM     16  C   UNL     1       4.717   6.079  17.383  0.00  0.00    +0.000 A 
ENDBRANCH   1  15
BRANCH   5  17
ATOM     17  C   UNL     1       0.394  11.299  19.787  0.00  0.00    +0.000 C 
BRANCH  17  18
ATOM     18  N   UNL     1      -0.839  11.938  20.218  0.00  0.00    +0.000 N 
ATOM     19  N   UNL     1      -0.790  12.661  21.373  0.00  0.00    +0.000 NA
ATOM     20  C   UNL     1      -2.037  13.102  21.547  0.00  0.00    +0.000 A 
ATOM     21  C   UNL     1      -2.871  12.717  20.493  0.00  0.00    +0.000 A 
ATOM     22  C   UNL     1      -4.280  12.943  20.271  0.00  0.00    +0.000 A 
ATOM     23  O   UNL     1      -4.983  13.576  21.044  0.00  0.00    +0.000 OA
ATOM     24  O   UNL     1      -4.797  12.353  19.099  0.00  0.00    +0.000 OA
ATOM     25  C   UNL     1      -3.980  11.649  18.167  0.00  0.00    +0.000 A 
ATOM     26  C   UNL     1      -4.633  11.134  17.049  0.00  0.00    +0.000 A 
ATOM     27  C   UNL     1      -3.890  10.461  16.084  0.00  0.00    +0.000 A 
ATOM     28  C   UNL     1      -2.509  10.343  16.230  0.00  0.00    +0.000 A 
ATOM     29  C   UNL     1      -1.863  10.879  17.351  0.00  0.00    +0.000 A 
ATOM     30  C   UNL     1      -2.594  11.499  18.359  0.00  0.00    +0.000 A 
ATOM     31  C   UNL     1      -2.065  12.024  19.608  0.00  0.00    +0.000 A 
ENDBRANCH  17  18
ENDBRANCH   5  17
TORSDOF 3
ENDMDL
MODEL 2
REMARK VINA RESULT:      -8.9      3.457      9.689
REMARK  Name = 
REMARK  5 active torsions:
REMARK  status: ('A' for Active; 'I' for Inactive)
REMARK    1  A    between atoms: C_1  and  C_2
REMARK    2  A    between atoms: C_5  and  C_6
REMARK    3  A    between atoms: C_7  and  N_8
REMARK    4  A    between atoms: C_12  and  C_14
REMARK    5  A    between atoms: C_14  and  N_15
REMARK                            x       y       z     vdW  Elec       q    Type
REMARK                         _______ _______ _______ _____ _____    ______ ____
ROOT
ATOM      1  N   UNL     1      -0.096  11.022  21.785  0.00  0.00    +0.000 N 
ATOM      2  C   UNL     1      -0.502  10.605  20.431  0.00  0.00    +0.000 C 
ATOM      3  C   UNL     1       0.700   9.952  19.747  0.00  0.00    +0.000 C 
ATOM      4  N   UNL     1       1.208   8.810  20.517  0.00  0.00    +0.000 N 
ATOM      5  C   UNL     1       1.801   7.695  19.944  0.00  0.00    +0.000 C 
ATOM      6  O   UNL     1       2.330   6.832  20.652  0.00  0.00    +0.000 OA
ATOM      7  C   UNL     1       1.440   9.092  21.950  0.00  0.00    +0.000 C 
ATOM      8  C   UNL     1       0.274   9.856  22.622  0.00  0.00    +0.000 C 
ENDROOT
BRANCH   1  15
ATOM      9  C   UNL     1      -4.151  12.338  24.323  0.00  0.00    +0.000 C 
ATOM     10  C   UNL     1      -2.869  12.718  23.644  0.00  0.00    +0.000 A 
ATOM     11  C   UNL     1      -2.472  14.048  23.545  0.00  0.00    +0.000 A 
ATOM     12  C   UNL     1      -1.291  14.373  22.879  0.00  0.00    +0.000 A 
ATOM     13  C   UNL     1      -0.491  13.380  22.286  0.00  0.00    +0.000 A 
ATOM     14  C   UNL     1       0.706  13.823  21.486  0.00  0.00    +0.000 C 
ATOM     15  C   UNL     1      -0.858  12.020  22.404  0.00  0.00    +0.000 A 
ATOM     16  C   UNL     1      -2.056  11.723  23.082  0.00  0.00    +0.000 A 
ENDBRANCH   1  15
BRANCH   5  17
ATOM     17  C   UNL     1       1.866   7.580  18.430  0.00  0.00    +0.000 C 
BRANCH  17  18
ATOM     18  N   UNL     1       3.064   6.928  17.923  0.00  0.00    +0.000 N 
ATOM     19  N   UNL     1       4.094   7.736  17.543  0.00  0.00    +0.000 NA
ATOM     20  C   UNL     1       5.032   6.897  17.099  0.00  0.00    +0.000 A 
ATOM     21  C   UNL     1       4.639   5.564  17.240  0.00  0.00    +0.000 A 
ATOM     22  C   UNL     1       5.311   4.337  16.879  0.00  0.00    +0.000 A 
ATOM     23  O   UNL     1       6.422   4.310  16.372  0.00  0.00    +0.000 OA
ATOM     24  O   UNL     1       4.574   3.161  17.132  0.00  0.00    +0.000 OA
ATOM     25  C   UNL     1       3.295   3.176  17.762  0.00  0.00    +0.000 A 
ATOM     26  C   UNL     1       2.697   1.933  17.957  0.00  0.00    +0.000 A 
ATOM     27  C   UNL     1       1.461   1.872  18.594  0.00  0.00    +0.000 A 
ATOM     28  C   UNL     1       0.859   3.042  19.055  0.00  0.00    +0.000 A 
ATOM     29  C   UNL     1       1.479   4.283  18.866  0.00  0.00    +0.000 A 
ATOM     30  C   UNL     1       2.684   4.374  18.175  0.00  0.00    +0.000 A 
ATOM     31  C   UNL     1       3.393   5.598  17.838  0.00  0.00    +0.000 A 
ENDBRANCH  17  18
ENDBRANCH   5  17
TORSDOF 3
ENDMDL
MODEL 3
REMARK VINA RESULT:      -8.8      0.878      1.044
REMARK  Name = 
REMARK  5 active torsions:
REMARK  status: ('A' for Active; 'I' for Inactive)
REMARK    1  A    between atoms: C_1  and  C_2
REMARK    2  A    between atoms: C_5  and  C_6
REMARK    3  A    between atoms: C_7  and  N_8
REMARK    4  A    between atoms: C_12  and  C_14
REMARK    5  A    between atoms: C_14  and  N_15
REMARK                            x       y       z     vdW  Elec       q    Type
REMARK                         _______ _______ _______ _____ _____    ______ ____
ROOT
ATOM      1  N   UNL     1       2.203   6.252  19.083  0.00  0.00    +0.000 N 
ATOM      2  C   UNL     1       2.579   7.550  18.497  0.00  0.00    +0.000 C 
ATOM      3  C   UNL     1       1.536   8.588  18.912  0.00  0.00    +0.000 C 
ATOM      4  N   UNL     1       1.420   8.687  20.372  0.00  0.00    +0.000 N 
ATOM      5  C   UNL     1       1.094   9.855  21.044  0.00  0.00    +0.000 C 
ATOM      6  O   UNL     1       0.879   9.841  22.261  0.00  0.00    +0.000 OA
ATOM      7  C   UNL     1       1.254   7.390  21.063  0.00  0.00    +0.000 C 
ATOM      8  C   UNL     1       2.232   6.299  20.565  0.00  0.00    +0.000 C 
ENDROOT
BRANCH   1  15
ATOM      9  C   UNL     1       5.411   4.171  15.922  0.00  0.00    +0.000 C 
ATOM     10  C   UNL     1       4.288   4.031  16.906  0.00  0.00    +0.000 A 
ATOM     11  C   UNL     1       3.705   2.794  17.164  0.00  0.00    +0.000 A 
ATOM     12  C   UNL     1       2.640   2.700  18.060  0.00  0.00    +0.000 A 
ATOM     13  C   UNL     1       2.127   3.840  18.704  0.00  0.00    +0.000 A 
ATOM     14  C   UNL     1       0.904   3.672  19.566  0.00  0.00    +0.000 C 
ATOM     15  C   UNL     1       2.726   5.101  18.483  0.00  0.00    +0.000 A 
ATOM     16  C   UNL     1       3.799   5.165  17.572  0.00  0.00    +0.000 A 
ENDBRANCH   1  15
BRANCH   5  17
ATOM     17  C   UNL     1       0.924  11.146  20.258  0.00  0.00    +0.000 C 
BRANCH  17  18
ATOM     18  N   UNL     1      -0.271  11.905  20.592  0.00  0.00    +0.000 N 
ATOM     19  N   UNL     1      -0.182  12.768  21.643  0.00  0.00    +0.000 NA
ATOM     20  C   UNL     1      -1.402  13.298  21.747  0.00  0.00    +0.000 A 
ATOM     21  C   UNL     1      -2.254  12.827  20.745  0.00  0.00    +0.000 A 
ATOM     22  C   UNL     1      -3.648  13.103  20.482  0.00  0.00    +0.000 A 
ATOM     23  O   UNL     1      -4.315  13.870  21.160  0.00  0.00    +0.000 OA
ATOM     24  O   UNL     1      -4.197  12.396  19.392  0.00  0.00    +0.000 OA
ATOM     25  C   UNL     1      -3.420  11.531  18.566  0.00  0.00    +0.000 A 
ATOM     26  C   UNL     1      -4.101  10.914  17.519  0.00  0.00    +0.000 A 
ATOM     27  C   UNL     1      -3.396  10.080  16.656  0.00  0.00    +0.000 A 
ATOM     28  C   UNL     1      -2.024   9.903  16.829  0.00  0.00    +0.000 A 
ATOM     29  C   UNL     1      -1.350  10.542  17.876  0.00  0.00    +0.000 A 
ATOM     30  C   UNL     1      -2.045  11.329  18.789  0.00  0.00    +0.000 A 
ATOM     31  C   UNL     1      -1.489  11.981  19.964  0.00  0.00    +0.000 A 
ENDBRANCH  17  18
ENDBRANCH   5  17
TORSDOF 3
ENDMDL
MODEL 4
REMARK VINA RESULT:      -8.8      1.029      2.820
REMARK  Name = 
REMARK  5 active torsions:
REMARK  status: ('A' for Active; 'I' for Inactive)
REMARK    1  A    between atoms: C_1  and  C_2
REMARK    2  A    between atoms: C_5  and  C_6
REMARK    3  A    between atoms: C_7  and  N_8
REMARK    4  A    between atoms: C_12  and  C_14
REMARK    5  A    between atoms: C_14  and  N_15
REMARK                            x       y       z     vdW  Elec       q    Type
REMARK                         _______ _______ _______ _____ _____    ______ ____
ROOT
ATOM      1  N   UNL     1       2.612   7.056  18.371  0.00  0.00    +0.000 N 
ATOM      2  C   UNL     1       2.666   8.369  17.705  0.00  0.00    +0.000 C 
ATOM      3  C   UNL     1       1.356   9.107  17.988  0.00  0.00    +0.000 C 
ATOM      4  N   UNL     1       1.120   9.261  19.429  0.00  0.00    +0.000 N 
ATOM      5  C   UNL     1       0.448  10.335  19.991  0.00  0.00    +0.000 C 
ATOM      6  O   UNL     1       0.164  10.338  21.194  0.00  0.00    +0.000 OA
ATOM      7  C   UNL     1       1.262   8.012  20.209  0.00  0.00    +0.000 C 
ATOM      8  C   UNL     1       2.528   7.200  19.844  0.00  0.00    +0.000 C 
ENDROOT
BRANCH   1  15
ATOM      9  C   UNL     1       7.067   5.712  16.647  0.00  0.00    +0.000 C 
ATOM     10  C   UNL     1       5.655   5.354  17.006  0.00  0.00    +0.000 A 
ATOM     11  C   UNL     1       5.158   4.073  16.786  0.00  0.00    +0.000 A 
ATOM     12  C   UNL     1       3.832   3.778  17.099  0.00  0.00    +0.000 A 
ATOM     13  C   UNL     1       2.971   4.759  17.624  0.00  0.00    +0.000 A 
ATOM     14  C   UNL     1       1.525   4.392  17.826  0.00  0.00    +0.000 C 
ATOM     15  C   UNL     1       3.464   6.056  17.888  0.00  0.00    +0.000 A 
ATOM     16  C   UNL     1       4.808   6.325  17.560  0.00  0.00    +0.000 A 
ENDBRANCH   1  15
BRANCH   5  17
ATOM     17  C   UNL     1      -0.008  11.479  19.100  0.00  0.00    +0.000 C 
BRANCH  17  18
ATOM     18  N   UNL     1      -1.378  11.366  18.624  0.00  0.00    +0.000 N 
ATOM     19  N   UNL     1      -1.589  10.586  17.526  0.00  0.00    +0.000 NA
ATOM     20  C   UNL     1      -2.900  10.682  17.293  0.00  0.00    +0.000 A 
ATOM     21  C   UNL     1      -3.538  11.468  18.255  0.00  0.00    +0.000 A 
ATOM     22  C   UNL     1      -4.921  11.862  18.389  0.00  0.00    +0.000 A 
ATOM     23  O   UNL     1      -5.794  11.506  17.612  0.00  0.00    +0.000 OA
ATOM     24  O   UNL     1      -5.192  12.716  19.479  0.00  0.00    +0.000 OA
ATOM     25  C   UNL     1      -4.192  13.104  20.419  0.00  0.00    +0.000 A 
ATOM     26  C   UNL     1      -4.615  13.940  21.450  0.00  0.00    +0.000 A 
ATOM     27  C   UNL     1      -3.697  14.332  22.419  0.00  0.00    +0.000 A 
ATOM     28  C   UNL     1      -2.387  13.860  22.366  0.00  0.00    +0.000 A 
ATOM     29  C   UNL     1      -1.979  13.007  21.333  0.00  0.00    +0.000 A 
ATOM     30  C   UNL     1      -2.862  12.653  20.318  0.00  0.00    +0.000 A 
ATOM     31  C   UNL     1      -2.552  11.846  19.149  0.00  0.00    +0.000 A 
ENDBRANCH  17  18
ENDBRANCH   5  17
TORSDOF 3
ENDMDL
MODEL 5
REMARK VINA RESULT:      -8.6      2.908      9.690
REMARK  Name = 
REMARK  5 active torsions:
REMARK  status: ('A' for Active; 'I' for Inactive)
REMARK    1  A    between atoms: C_1  and  C_2
REMARK    2  A    between atoms: C_5  and  C_6
REMARK    3  A    between atoms: C_7  and  N_8
REMARK    4  A    between atoms: C_12  and  C_14
REMARK    5  A    between atoms: C_14  and  N_15
REMARK                            x       y       z     vdW  Elec       q    Type
REMARK                         _______ _______ _______ _____ _____    ______ ____
ROOT
ATOM      1  N   UNL     1      -1.048  11.705  20.625  0.00  0.00    +0.000 N 
ATOM      2  C   UNL     1      -0.086  10.884  21.380  0.00  0.00    +0.000 C 
ATOM      3  C   UNL     1       0.187   9.607  20.584  0.00  0.00    +0.000 C 
ATOM      4  N   UNL     1       0.693   9.903  19.238  0.00  0.00    +0.000 N 
ATOM      5  C   UNL     1       1.577   9.087  18.549  0.00  0.00    +0.000 C 
ATOM      6  O   UNL     1       1.858   9.322  17.369  0.00  0.00    +0.000 OA
ATOM      7  C   UNL     1      -0.108  10.894  18.487  0.00  0.00    +0.000 C 
ATOM      8  C   UNL     1      -0.486  12.139  19.324  0.00  0.00    +0.000 C 
ENDROOT
BRANCH   1  15
ATOM      9  C   UNL     1      -1.416  14.740  24.533  0.00  0.00    +0.000 C 
ATOM     10  C   UNL     1      -2.008  14.164  23.281  0.00  0.00    +0.000 A 
ATOM     11  C   UNL     1      -3.295  14.498  22.872  0.00  0.00    +0.000 A 
ATOM     12  C   UNL     1      -3.831  13.921  21.722  0.00  0.00    +0.000 A 
ATOM     13  C   UNL     1      -3.098  12.989  20.964  0.00  0.00    +0.000 A 
ATOM     14  C   UNL     1      -3.790  12.325  19.803  0.00  0.00    +0.000 C 
ATOM     15  C   UNL     1      -1.777  12.661  21.342  0.00  0.00    +0.000 A 
ATOM     16  C   UNL     1      -1.263  13.259  22.510  0.00  0.00    +0.000 A 
ENDBRANCH   1  15
BRANCH   5  17
ATOM     17  C   UNL     1       2.138   7.850  19.231  0.00  0.00    +0.000 C 
BRANCH  17  18
ATOM     18  N   UNL     1       2.994   7.029  18.389  0.00  0.00    +0.000 N 
ATOM     19  N   UNL     1       3.882   7.683  17.587  0.00  0.00    +0.000 NA
ATOM     20  C   UNL     1       4.505   6.713  16.915  0.00  0.00    +0.000 A 
ATOM     21  C   UNL     1       4.067   5.447  17.314  0.00  0.00    +0.000 A 
ATOM     22  C   UNL     1       4.436   4.129  16.852  0.00  0.00    +0.000 A 
ATOM     23  O   UNL     1       5.272   3.938  15.982  0.00  0.00    +0.000 OA
ATOM     24  O   UNL     1       3.738   3.069  17.465  0.00  0.00    +0.000 OA
ATOM     25  C   UNL     1       2.791   3.274  18.511  0.00  0.00    +0.000 A 
ATOM     26  C   UNL     1       2.193   2.126  19.027  0.00  0.00    +0.000 A 
ATOM     27  C   UNL     1       1.281   2.253  20.071  0.00  0.00    +0.000 A 
ATOM     28  C   UNL     1       1.008   3.511  20.605  0.00  0.00    +0.000 A 
ATOM     29  C   UNL     1       1.629   4.654  20.088  0.00  0.00    +0.000 A 
ATOM     30  C   UNL     1       2.494   4.559  19.002  0.00  0.00    +0.000 A 
ATOM     31  C   UNL     1       3.141   5.667  18.317  0.00  0.00    +0.000 A 
ENDBRANCH  17  18
ENDBRANCH   5  17
TORSDOF 3
ENDMDL
MODEL 6
REMARK VINA RESULT:      -8.5      1.287      1.670
REMARK  Name = 
REMARK  5 active torsions:
REMARK  status: ('A' for Active; 'I' for Inactive)
REMARK    1  A    between atoms: C_1  and  C_2
REMARK    2  A    between atoms: C_5  and  C_6
REMARK    3  A    between atoms: C_7  and  N_8
REMARK    4  A    between atoms: C_12  and  C_14
REMARK    5  A    between atoms: C_14  and  N_15
REMARK                            x       y       z     vdW  Elec       q    Type
REMARK                         _______ _______ _______ _____ _____    ______ ____
ROOT
ATOM      1  N   UNL     1       1.738   7.869  19.640  0.00  0.00    +0.000 N 
ATOM      2  C   UNL     1       1.723   9.202  19.011  0.00  0.00    +0.000 C 
ATOM      3  C   UNL     1       0.476   9.947  19.489  0.00  0.00    +0.000 C 
ATOM      4  N   UNL     1       0.437  10.058  20.952  0.00  0.00    +0.000 N 
ATOM      5  C   UNL     1      -0.136  11.123  21.631  0.00  0.00    +0.000 C 
ATOM      6  O   UNL     1      -0.258  11.091  22.860  0.00  0.00    +0.000 OA
ATOM      7  C   UNL     1       0.660   8.784  21.669  0.00  0.00    +0.000 C 
ATOM      8  C   UNL     1       1.853   7.968  21.115  0.00  0.00    +0.000 C 
ENDROOT
BRANCH   1  15
ATOM      9  C   UNL     1       5.015   6.563  16.152  0.00  0.00    +0.000 C 
ATOM     10  C   UNL     1       4.109   6.181  17.284  0.00  0.00    +0.000 A 
ATOM     11  C   UNL     1       3.950   4.853  17.666  0.00  0.00    +0.000 A 
ATOM     12  C   UNL     1       3.075   4.526  18.700  0.00  0.00    +0.000 A 
ATOM     13  C   UNL     1       2.330   5.516  19.366  0.00  0.00    +0.000 A 
ATOM     14  C   UNL     1       1.322   5.069  20.392  0.00  0.00    +0.000 C 
ATOM     15  C   UNL     1       2.501   6.875  19.018  0.00  0.00    +0.000 A 
ATOM     16  C   UNL     1       3.391   7.174  17.968  0.00  0.00    +0.000 A 
ENDBRANCH   1  15
BRANCH   5  17
ATOM     17  C   UNL     1      -0.689  12.300  20.843  0.00  0.00    +0.000 C 
BRANCH  17  18
ATOM     18  N   UNL     1      -2.109  12.546  21.039  0.00  0.00    +0.000 N 
ATOM     19  N   UNL     1      -2.481  13.107  22.224  0.00  0.00    +0.000 NA
ATOM     20  C   UNL     1      -3.811  13.193  22.152  0.00  0.00    +0.000 A 
ATOM     21  C   UNL     1      -4.289  12.745  20.918  0.00  0.00    +0.000 A 
ATOM     22  C   UNL     1      -5.637  12.632  20.411  0.00  0.00    +0.000 A 
ATOM     23  O   UNL     1      -6.621  12.964  21.054  0.00  0.00    +0.000 OA
ATOM     24  O   UNL     1      -5.739  12.083  19.116  0.00  0.00    +0.000 OA
ATOM     25  C   UNL     1      -4.597  11.731  18.337  0.00  0.00    +0.000 A 
ATOM     26  C   UNL     1      -4.858  11.213  17.070  0.00  0.00    +0.000 A 
ATOM     27  C   UNL     1      -3.788  10.877  16.246  0.00  0.00    +0.000 A 
ATOM     28  C   UNL     1      -2.482  11.095  16.681  0.00  0.00    +0.000 A 
ATOM     29  C   UNL     1      -2.235  11.631  17.950  0.00  0.00    +0.000 A 
ATOM     30  C   UNL     1      -3.287  11.914  18.816  0.00  0.00    +0.000 A 
ATOM     31  C   UNL     1      -3.171  12.396  20.183  0.00  0.00    +0.000 A 
ENDBRANCH  17  18
ENDBRANCH   5  17
TORSDOF 3
ENDMDL
MODEL 7
REMARK VINA RESULT:      -8.4      3.078      9.642
REMARK  Name = 
REMARK  5 active torsions:
REMARK  status: ('A' for Active; 'I' for Inactive)
REMARK    1  A    between atoms: C_1  and  C_2
REMARK    2  A    between atoms: C_5  and  C_6
REMARK    3  A    between atoms: C_7  and  N_8
REMARK    4  A    between atoms: C_12  and  C_14
REMARK    5  A    between atoms: C_14  and  N_15
REMARK                            x       y       z     vdW  Elec       q    Type
REMARK                         _______ _______ _______ _____ _____    ______ ____
ROOT
ATOM      1  N   UNL     1      -0.601  11.140  21.636  0.00  0.00    +0.000 N 
ATOM      2  C   UNL     1       0.715  10.654  22.087  0.00  0.00    +0.000 C 
ATOM      3  C   UNL     1       0.960   9.278  21.467  0.00  0.00    +0.000 C 
ATOM      4  N   UNL     1       0.893   9.323  20.001  0.00  0.00    +0.000 N 
ATOM      5  C   UNL     1       1.635   8.499  19.168  0.00  0.00    +0.000 C 
ATOM      6  O   UNL     1       1.432   8.493  17.949  0.00  0.00    +0.000 OA
ATOM      7  C   UNL     1      -0.310   9.995  19.463  0.00  0.00    +0.000 C 
ATOM      8  C   UNL     1      -0.630  11.336  20.166  0.00  0.00    +0.000 C 
ENDROOT
BRANCH   1  15
ATOM      9  C   UNL     1      -4.386  12.546  24.519  0.00  0.00    +0.000 C 
ATOM     10  C   UNL     1      -3.094  12.870  23.828  0.00  0.00    +0.000 A 
ATOM     11  C   UNL     1      -2.553  14.151  23.876  0.00  0.00    +0.000 A 
ATOM     12  C   UNL     1      -1.368  14.431  23.196  0.00  0.00    +0.000 A 
ATOM     13  C   UNL     1      -0.707  13.442  22.445  0.00  0.00    +0.000 A 
ATOM     14  C   UNL     1       0.502  13.854  21.647  0.00  0.00    +0.000 C 
ATOM     15  C   UNL     1      -1.221  12.126  22.411  0.00  0.00    +0.000 A 
ATOM     16  C   UNL     1      -2.420  11.874  23.106  0.00  0.00    +0.000 A 
ENDBRANCH   1  15
BRANCH   5  17
ATOM     17  C   UNL     1       2.647   7.541  19.775  0.00  0.00    +0.000 C 
BRANCH  17  18
ATOM     18  N   UNL     1       2.333   6.133  19.593  0.00  0.00    +0.000 N 
ATOM     19  N   UNL     1       1.369   5.605  20.399  0.00  0.00    +0.000 NA
ATOM     20  C   UNL     1       1.304   4.319  20.048  0.00  0.00    +0.000 A 
ATOM     21  C   UNL     1       2.175   4.029  18.995  0.00  0.00    +0.000 A 
ATOM     22  C   UNL     1       2.456   2.785  18.316  0.00  0.00    +0.000 A 
ATOM     23  O   UNL     1       1.900   1.733  18.594  0.00  0.00    +0.000 OA
ATOM     24  O   UNL     1       3.447   2.867  17.315  0.00  0.00    +0.000 OA
ATOM     25  C   UNL     1       4.073   4.095  16.951  0.00  0.00    +0.000 A 
ATOM     26  C   UNL     1       5.023   4.019  15.935  0.00  0.00    +0.000 A 
ATOM     27  C   UNL     1       5.650   5.186  15.509  0.00  0.00    +0.000 A 
ATOM     28  C   UNL     1       5.298   6.409  16.076  0.00  0.00    +0.000 A 
ATOM     29  C   UNL     1       4.330   6.474  17.085  0.00  0.00    +0.000 A 
ATOM     30  C   UNL     1       3.736   5.313  17.571  0.00  0.00    +0.000 A 
ATOM     31  C   UNL     1       2.782   5.227  18.665  0.00  0.00    +0.000 A 
ENDBRANCH  17  18
ENDBRANCH   5  17
TORSDOF 3
ENDMDL
MODEL 8
REMARK VINA RESULT:      -8.4      3.021      9.789
REMARK  Name = 
REMARK  5 active torsions:
REMARK  status: ('A' for Active; 'I' for Inactive)
REMARK    1  A    between atoms: C_1  and  C_2
REMARK    2  A    between atoms: C_5  and  C_6
REMARK    3  A    between atoms: C_7  and  N_8
REMARK    4  A    between atoms: C_12  and  C_14
REMARK    5  A    between atoms: C_14  and  N_15
REMARK                            x       y       z     vdW  Elec       q    Type
REMARK                         _______ _______ _______ _____ _____    ______ ____
ROOT
ATOM      1  N   UNL     1      -1.021  11.336  21.772  0.00  0.00    +0.000 N 
ATOM      2  C   UNL     1       0.142  10.596  22.294  0.00  0.00    +0.000 C 
ATOM      3  C   UNL     1       0.329   9.334  21.451  0.00  0.00    +0.000 C 
ATOM      4  N   UNL     1       0.505   9.652  20.028  0.00  0.00    +0.000 N 
ATOM      5  C   UNL     1       1.275   8.896  19.157  0.00  0.00    +0.000 C 
ATOM      6  O   UNL     1       1.273   9.139  17.946  0.00  0.00    +0.000 OA
ATOM      7  C   UNL     1      -0.513  10.573  19.476  0.00  0.00    +0.000 C 
ATOM      8  C   UNL     1      -0.791  11.796  20.382  0.00  0.00    +0.000 C 
ENDROOT
BRANCH   1  15
ATOM      9  C   UNL     1      -4.867  12.501  24.682  0.00  0.00    +0.000 C 
ATOM     10  C   UNL     1      -3.547  12.869  24.072  0.00  0.00    +0.000 A 
ATOM     11  C   UNL     1      -2.979  14.121  24.283  0.00  0.00    +0.000 A 
ATOM     12  C   UNL     1      -1.766  14.446  23.676  0.00  0.00    +0.000 A 
ATOM     13  C   UNL     1      -1.103  13.532  22.837  0.00  0.00    +0.000 A 
ATOM     14  C   UNL     1       0.141  14.001  22.128  0.00  0.00    +0.000 C 
ATOM     15  C   UNL     1      -1.645  12.243  22.637  0.00  0.00    +0.000 A 
ATOM     16  C   UNL     1      -2.872  11.944  23.262  0.00  0.00    +0.000 A 
ENDBRANCH   1  15
BRANCH   5  17
ATOM     17  C   UNL     1       2.063   7.712  19.694  0.00  0.00    +0.000 C 
BRANCH  17  18
ATOM     18  N   UNL     1       2.883   7.032  18.703  0.00  0.00    +0.000 N 
ATOM     19  N   UNL     1       3.741   7.803  17.976  0.00  0.00    +0.000 NA
ATOM     20  C   UNL     1       4.334   6.948  17.140  0.00  0.00    +0.000 A 
ATOM     21  C   UNL     1       3.907   5.635  17.358  0.00  0.00    +0.000 A 
ATOM     22  C   UNL     1       4.254   4.404  16.686  0.00  0.00    +0.000 A 
ATOM     23  O   UNL     1       5.055   4.351  15.765  0.00  0.00    +0.000 OA
ATOM     24  O   UNL     1       3.576   3.261  17.157  0.00  0.00    +0.000 OA
ATOM     25  C   UNL     1       2.672   3.302  18.259  0.00  0.00    +0.000 A 
ATOM     26  C   UNL     1       2.090   2.087  18.616  0.00  0.00    +0.000 A 
ATOM     27  C   UNL     1       1.220   2.050  19.702  0.00  0.00    +0.000 A 
ATOM     28  C   UNL     1       0.972   3.212  20.432  0.00  0.00    +0.000 A 
ATOM     29  C   UNL     1       1.576   4.421  20.071  0.00  0.00    +0.000 A 
ATOM     30  C   UNL     1       2.398   4.496  18.951  0.00  0.00    +0.000 A 
ATOM     31  C   UNL     1       3.022   5.697  18.419  0.00  0.00    +0.000 A 
ENDBRANCH  17  18
ENDBRANCH   5  17
TORSDOF 3
ENDMDL
MODEL 9
REMARK VINA RESULT:      -8.4      2.717      3.951
REMARK  Name = 
REMARK  5 active torsions:
REMARK  status: ('A' for Active; 'I' for Inactive)
REMARK    1  A    between atoms: C_1  and  C_2
REMARK    2  A    between atoms: C_5  and  C_6
REMARK    3  A    between atoms: C_7  and  N_8
REMARK    4  A    between atoms: C_12  and  C_14
REMARK    5  A    between atoms: C_14  and  N_15
REMARK                            x       y       z     vdW  Elec       q    Type
REMARK                         _______ _______ _______ _____ _____    ______ ____
ROOT
ATOM      1  N   UNL     1       2.620   6.708  18.456  0.00  0.00    +0.000 N 
ATOM      2  C   UNL     1       2.706   8.070  17.900  0.00  0.00    +0.000 C 
ATOM      3  C   UNL     1       1.470   8.853  18.348  0.00  0.00    +0.000 C 
ATOM      4  N   UNL     1       1.352   8.891  19.811  0.00  0.00    +0.000 N 
ATOM      5  C   UNL     1       0.794   9.947  20.513  0.00  0.00    +0.000 C 
ATOM      6  O   UNL     1       0.600   9.859  21.731  0.00  0.00    +0.000 OA
ATOM      7  C   UNL     1       1.473   7.572  20.469  0.00  0.00    +0.000 C 
ATOM      8  C   UNL     1       2.655   6.726  19.937  0.00  0.00    +0.000 C 
ENDROOT
BRANCH   1  15
ATOM      9  C   UNL     1       6.701   5.358  15.978  0.00  0.00    +0.000 C 
ATOM     10  C   UNL     1       5.369   5.003  16.571  0.00  0.00    +0.000 A 
ATOM     11  C   UNL     1       4.833   3.728  16.428  0.00  0.00    +0.000 A 
ATOM     12  C   UNL     1       3.578   3.437  16.961  0.00  0.00    +0.000 A 
ATOM     13  C   UNL     1       2.828   4.417  17.636  0.00  0.00    +0.000 A 
ATOM     14  C   UNL     1       1.435   4.056  18.081  0.00  0.00    +0.000 C 
ATOM     15  C   UNL     1       3.368   5.709  17.823  0.00  0.00    +0.000 A 
ATOM     16  C   UNL     1       4.638   5.974  17.272  0.00  0.00    +0.000 A 
ENDBRANCH   1  15
BRANCH   5  17
ATOM     17  C   UNL     1       0.345  11.190  19.761  0.00  0.00    +0.000 C 
BRANCH  17  18
ATOM     18  N   UNL     1       0.871  12.439  20.287  0.00  0.00    +0.000 N 
ATOM     19  N   UNL     1       2.000  12.930  19.701  0.00  0.00    +0.000 NA
ATOM     20  C   UNL     1       2.275  14.044  20.383  0.00  0.00    +0.000 A 
ATOM     21  C   UNL     1       1.311  14.300  21.361  0.00  0.00    +0.000 A 
ATOM     22  C   UNL     1       1.212  15.361  22.336  0.00  0.00    +0.000 A 
ATOM     23  O   UNL     1       2.030  16.264  22.425  0.00  0.00    +0.000 OA
ATOM     24  O   UNL     1       0.105  15.266  23.205  0.00  0.00    +0.000 OA
ATOM     25  C   UNL     1      -0.881  14.243  23.086  0.00  0.00    +0.000 A 
ATOM     26  C   UNL     1      -1.924  14.289  24.009  0.00  0.00    +0.000 A 
ATOM     27  C   UNL     1      -2.936  13.338  23.931  0.00  0.00    +0.000 A 
ATOM     28  C   UNL     1      -2.913  12.381  22.917  0.00  0.00    +0.000 A 
ATOM     29  C   UNL     1      -1.868  12.357  21.986  0.00  0.00    +0.000 A 
ATOM     30  C   UNL     1      -0.811  13.257  22.084  0.00  0.00    +0.000 A 
ATOM     31  C   UNL     1       0.372  13.292  21.239  0.00  0.00    +0.000 A 
ENDBRANCH  17  18
ENDBRANCH   5  17
TORSDOF 3
ENDMDL
