MODEL 1
REMARK VINA RESULT:      -8.5      0.000      0.000
REMARK  Name = 
REMARK  7 active torsions:
REMARK  status: ('A' for Active; 'I' for Inactive)
REMARK    1  A    between atoms: C_1  and  O_2
REMARK    2  A    between atoms: O_2  and  C_3
REMARK    3  A    between atoms: C_6  and  N_7
REMARK    4  A    between atoms: N_7  and  C_8
REMARK    5  A    between atoms: C_11  and  C_12
REMARK    6  A    between atoms: C_19  and  C_20
REMARK    7  A    between atoms: C_22  and  C_23
REMARK                            x       y       z     vdW  Elec       q    Type
REMARK                         _______ _______ _______ _____ _____    ______ ____
ROOT
ATOM      1  C   UNL     1       2.514   6.196  18.462  0.00  0.00    +0.000 A 
ATOM      2  N   UNL     1       2.321   7.465  18.019  0.00  0.00    +0.000 NA
ATOM      3  C   UNL     1       1.887   8.408  18.876  0.00  0.00    +0.000 A 
ATOM      4  C   UNL     1       1.606   8.184  20.213  0.00  0.00    +0.000 A 
ATOM      5  C   UNL     1       1.904   6.891  20.673  0.00  0.00    +0.000 A 
ATOM      6  C   UNL     1       2.385   5.866  19.818  0.00  0.00    +0.000 A 
ENDROOT
BRANCH   6   7
ATOM      7  C   UNL     1       2.647   4.522  20.362  0.00  0.00    +0.000 A 
ATOM      8  N   UNL     1       1.733   3.999  21.183  0.00  0.00    +0.000 NA
ATOM      9  C   UNL     1       2.005   2.771  21.624  0.00  0.00    +0.000 A 
ATOM     10  C   UNL     1       1.021   2.119  22.546  0.00  0.00    +0.000 C 
ATOM     11  N   UNL     1       3.082   2.067  21.281  0.00  0.00    +0.000 NA
ATOM     12  C   UNL     1       3.924   2.679  20.463  0.00  0.00    +0.000 A 
ATOM     13  N   UNL     1       5.046   1.983  20.068  0.00  0.00    +0.000 N 
ATOM     14  N   UNL     1       3.757   3.894  19.963  0.00  0.00    +0.000 NA
ATOM     15  H   UNL     1       4.897   0.987  20.170  0.00  0.00    +0.000 HD
ATOM     16  H   UNL     1       5.385   2.304  19.173  0.00  0.00    +0.000 HD
ENDBRANCH   6   7
BRANCH   4  17
ATOM     17  C   UNL     1       1.004   9.229  21.065  0.00  0.00    +0.000 A 
ATOM     18  C   UNL     1       0.512  10.427  20.530  0.00  0.00    +0.000 A 
ATOM     19  C   UNL     1      -0.046  11.369  21.374  0.00  0.00    +0.000 A 
ATOM     20  N   UNL     1      -0.146  11.182  22.703  0.00  0.00    +0.000 NA
ATOM     21  N   UNL     1       0.314  10.028  23.245  0.00  0.00    +0.000 NA
ATOM     22  C   UNL     1       0.870   9.091  22.442  0.00  0.00    +0.000 A 
ENDBRANCH   4  17
BRANCH   1  23
ATOM     23  N   UNL     1       2.842   5.240  17.465  0.00  0.00    +0.000 N 
ATOM     24  H   UNL     1       2.110   5.236  16.748  0.00  0.00    +0.000 HD
BRANCH  23  28
ATOM     25  C   UNL     1       6.538   5.358  15.534  0.00  0.00    +0.000 A 
ATOM     26  C   UNL     1       5.959   4.120  15.774  0.00  0.00    +0.000 A 
ATOM     27  C   UNL     1       4.713   4.074  16.408  0.00  0.00    +0.000 A 
ATOM     28  C   UNL     1       4.110   5.257  16.825  0.00  0.00    +0.000 A 
ATOM     29  C   UNL     1       4.764   6.447  16.487  0.00  0.00    +0.000 A 
ATOM     30  N   UNL     1       5.954   6.528  15.851  0.00  0.00    +0.000 NA
BRANCH  25  32
ATOM     31  C   UNL     1       7.711   5.197  13.527  0.00  0.00    +0.000 C 
ATOM     32  O   UNL     1       7.784   5.368  14.942  0.00  0.00    +0.000 OA
ENDBRANCH  25  32
ENDBRANCH  23  28
ENDBRANCH   1  23
TORSDOF 5
ENDMDL
MODEL 2
REMARK VINA RESULT:      -8.5      0.683      1.733
REMARK  Name = 
REMARK  7 active torsions:
REMARK  status: ('A' for Active; 'I' for Inactive)
REMARK    1  A    between atoms: C_1  and  O_2
REMARK    2  A    between atoms: O_2  and  C_3
REMARK    3  A    between atoms: C_6  and  N_7
REMARK    4  A    between atoms: N_7  and  C_8
REMARK    5  A    between atoms: C_11  and  C_12
REMARK    6  A    between atoms: C_19  and  C_20
REMARK    7  A    between atoms: C_22  and  C_23
REMARK                            x       y       z     vdW  Elec       q    Type
REMARK                         _______ _______ _______ _____ _____    ______ ____
ROOT
ATOM      1  C   UNL     1       2.425   6.240  18.550  0.00  0.00    +0.000 A 
ATOM      2  N   UNL     1       2.292   7.522  18.126  0.00  0.00    +0.000 NA
ATOM      3  C   UNL     1       1.850   8.461  18.984  0.00  0.00    +0.000 A 
ATOM      4  C   UNL     1       1.503   8.220  20.303  0.00  0.00    +0.000 A 
ATOM      5  C   UNL     1       1.741   6.909  20.747  0.00  0.00    +0.000 A 
ATOM      6  C   UNL     1       2.227   5.886  19.892  0.00  0.00    +0.000 A 
ENDROOT
BRANCH   6   7
ATOM      7  C   UNL     1       2.423   4.524  20.417  0.00  0.00    +0.000 A 
ATOM      8  N   UNL     1       3.528   3.872  20.046  0.00  0.00    +0.000 NA
ATOM      9  C   UNL     1       3.671   2.656  20.570  0.00  0.00    +0.000 A 
ATOM     10  C   UNL     1       4.890   1.868  20.202  0.00  0.00    +0.000 C 
ATOM     11  N   UNL     1       2.816   2.097  21.425  0.00  0.00    +0.000 NA
ATOM     12  C   UNL     1       1.754   2.828  21.726  0.00  0.00    +0.000 A 
ATOM     13  N   UNL     1       0.850   2.297  22.620  0.00  0.00    +0.000 N 
ATOM     14  N   UNL     1       1.509   4.046  21.267  0.00  0.00    +0.000 NA
ATOM     15  H   UNL     1       1.291   1.585  23.188  0.00  0.00    +0.000 HD
ATOM     16  H   UNL     1       0.343   3.021  23.108  0.00  0.00    +0.000 HD
ENDBRANCH   6   7
BRANCH   4  17
ATOM     17  C   UNL     1       0.897   9.266  21.150  0.00  0.00    +0.000 A 
ATOM     18  C   UNL     1       0.173   8.952  22.307  0.00  0.00    +0.000 A 
ATOM     19  C   UNL     1      -0.369   9.972  23.067  0.00  0.00    +0.000 A 
ATOM     20  N   UNL     1      -0.225  11.270  22.744  0.00  0.00    +0.000 NA
ATOM     21  N   UNL     1       0.478  11.601  21.635  0.00  0.00    +0.000 NA
ATOM     22  C   UNL     1       1.015  10.622  20.870  0.00  0.00    +0.000 A 
ENDBRANCH   4  17
BRANCH   1  23
ATOM     23  N   UNL     1       2.767   5.293  17.548  0.00  0.00    +0.000 N 
ATOM     24  H   UNL     1       2.044   5.296  16.821  0.00  0.00    +0.000 HD
BRANCH  23  28
ATOM     25  C   UNL     1       6.488   5.433  15.667  0.00  0.00    +0.000 A 
ATOM     26  C   UNL     1       5.899   4.193  15.873  0.00  0.00    +0.000 A 
ATOM     27  C   UNL     1       4.645   4.140  16.489  0.00  0.00    +0.000 A 
ATOM     28  C   UNL     1       4.042   5.317  16.925  0.00  0.00    +0.000 A 
ATOM     29  C   UNL     1       4.708   6.510  16.621  0.00  0.00    +0.000 A 
ATOM     30  N   UNL     1       5.906   6.599  16.003  0.00  0.00    +0.000 NA
BRANCH  25  32
ATOM     31  C   UNL     1       7.700   5.141  13.698  0.00  0.00    +0.000 C 
ATOM     32  O   UNL     1       7.742   5.448  15.091  0.00  0.00    +0.000 OA
ENDBRANCH  25  32
ENDBRANCH  23  28
ENDBRANCH   1  23
TORSDOF 5
ENDMDL
MODEL 3
REMARK VINA RESULT:      -8.4      1.326      1.666
REMARK  Name = 
REMARK  7 active torsions:
REMARK  status: ('A' for Active; 'I' for Inactive)
REMARK    1  A    between atoms: C_1  and  O_2
REMARK    2  A    between atoms: O_2  and  C_3
REMARK    3  A    between atoms: C_6  and  N_7
REMARK    4  A    between atoms: N_7  and  C_8
REMARK    5  A    between atoms: C_11  and  C_12
REMARK    6  A    between atoms: C_19  and  C_20
REMARK    7  A    between atoms: C_22  and  C_23
REMARK                            x       y       z     vdW  Elec       q    Type
REMARK                         _______ _______ _______ _____ _____    ______ ____
ROOT
ATOM      1  C   UNL     1       3.574   5.721  17.851  0.00  0.00    +0.000 A 
ATOM      2  N   UNL     1       3.535   6.905  17.190  0.00  0.00    +0.000 NA
ATOM      3  C   UNL     1       2.880   7.948  17.735  0.00  0.00    +0.000 A 
ATOM      4  C   UNL     1       2.217   7.911  18.950  0.00  0.00    +0.000 A 
ATOM      5  C   UNL     1       2.352   6.707  19.662  0.00  0.00    +0.000 A 
ATOM      6  C   UNL     1       3.050   5.586  19.145  0.00  0.00    +0.000 A 
ENDROOT
BRANCH   6   7
ATOM      7  C   UNL     1       3.126   4.343  19.932  0.00  0.00    +0.000 A 
ATOM      8  N   UNL     1       2.110   4.070  20.755  0.00  0.00    +0.000 NA
ATOM      9  C   UNL     1       2.215   2.922  21.423  0.00  0.00    +0.000 A 
ATOM     10  C   UNL     1       1.108   2.548  22.360  0.00  0.00    +0.000 C 
ATOM     11  N   UNL     1       3.226   2.064  21.297  0.00  0.00    +0.000 NA
ATOM     12  C   UNL     1       4.181   2.432  20.456  0.00  0.00    +0.000 A 
ATOM     13  N   UNL     1       5.240   1.569  20.281  0.00  0.00    +0.000 N 
ATOM     14  N   UNL     1       4.182   3.547  19.741  0.00  0.00    +0.000 NA
ATOM     15  H   UNL     1       4.975   0.628  20.541  0.00  0.00    +0.000 HD
ATOM     16  H   UNL     1       5.668   1.687  19.374  0.00  0.00    +0.000 HD
ENDBRANCH   6   7
BRANCH   4  17
ATOM     17  C   UNL     1       1.405   9.048  19.427  0.00  0.00    +0.000 A 
ATOM     18  C   UNL     1       0.924   9.112  20.741  0.00  0.00    +0.000 A 
ATOM     19  C   UNL     1       0.171  10.203  21.136  0.00  0.00    +0.000 A 
ATOM     20  N   UNL     1      -0.118  11.221  20.306  0.00  0.00    +0.000 NA
ATOM     21  N   UNL     1       0.343  11.188  19.032  0.00  0.00    +0.000 NA
ATOM     22  C   UNL     1       1.077  10.129  18.618  0.00  0.00    +0.000 A 
ENDBRANCH   4  17
BRANCH   1  23
ATOM     23  N   UNL     1       4.168   4.642  17.145  0.00  0.00    +0.000 N 
ATOM     24  H   UNL     1       3.438   4.120  16.650  0.00  0.00    +0.000 HD
BRANCH  23  28
ATOM     25  C   UNL     1       7.368   5.367  14.569  0.00  0.00    +0.000 A 
ATOM     26  C   UNL     1       6.285   4.645  14.088  0.00  0.00    +0.000 A 
ATOM     27  C   UNL     1       5.202   4.411  14.942  0.00  0.00    +0.000 A 
ATOM     28  C   UNL     1       5.256   4.859  16.259  0.00  0.00    +0.000 A 
ATOM     29  C   UNL     1       6.378   5.616  16.617  0.00  0.00    +0.000 A 
ATOM     30  N   UNL     1       7.427   5.884  15.810  0.00  0.00    +0.000 NA
BRANCH  25  32
ATOM     31  C   UNL     1       8.040   5.519  12.343  0.00  0.00    +0.000 C 
ATOM     32  O   UNL     1       8.436   5.547  13.714  0.00  0.00    +0.000 OA
ENDBRANCH  25  32
ENDBRANCH  23  28
ENDBRANCH   1  23
TORSDOF 5
ENDMDL
MODEL 4
REMARK VINA RESULT:      -8.1      2.657      7.208
REMARK  Name = 
REMARK  7 active torsions:
REMARK  status: ('A' for Active; 'I' for Inactive)
REMARK    1  A    between atoms: C_1  and  O_2
REMARK    2  A    between atoms: O_2  and  C_3
REMARK    3  A    between atoms: C_6  and  N_7
REMARK    4  A    between atoms: N_7  and  C_8
REMARK    5  A    between atoms: C_11  and  C_12
REMARK    6  A    between atoms: C_19  and  C_20
REMARK    7  A    between atoms: C_22  and  C_23
REMARK                            x       y       z     vdW  Elec       q    Type
REMARK                         _______ _______ _______ _____ _____    ______ ____
ROOT
ATOM      1  C   UNL     1       3.886   6.233  18.264  0.00  0.00    +0.000 A 
ATOM      2  N   UNL     1       4.111   7.097  17.241  0.00  0.00    +0.000 NA
ATOM      3  C   UNL     1       4.735   6.661  16.130  0.00  0.00    +0.000 A 
ATOM      4  C   UNL     1       5.185   5.366  15.939  0.00  0.00    +0.000 A 
ATOM      5  C   UNL     1       4.856   4.467  16.966  0.00  0.00    +0.000 A 
ATOM      6  C   UNL     1       4.180   4.867  18.148  0.00  0.00    +0.000 A 
ENDROOT
BRANCH   6   7
ATOM      7  C   UNL     1       3.895   3.877  19.200  0.00  0.00    +0.000 A 
ATOM      8  N   UNL     1       2.694   3.923  19.782  0.00  0.00    +0.000 NA
ATOM      9  C   UNL     1       2.476   2.989  20.707  0.00  0.00    +0.000 A 
ATOM     10  C   UNL     1       1.148   2.977  21.399  0.00  0.00    +0.000 C 
ATOM     11  N   UNL     1       3.351   2.042  21.044  0.00  0.00    +0.000 NA
ATOM     12  C   UNL     1       4.510   2.087  20.407  0.00  0.00    +0.000 A 
ATOM     13  N   UNL     1       5.440   1.117  20.710  0.00  0.00    +0.000 N 
ATOM     14  N   UNL     1       4.835   2.967  19.472  0.00  0.00    +0.000 NA
ATOM     15  H   UNL     1       4.987   0.306  21.111  0.00  0.00    +0.000 HD
ATOM     16  H   UNL     1       6.069   0.952  19.938  0.00  0.00    +0.000 HD
ENDBRANCH   6   7
BRANCH   4  17
ATOM     17  C   UNL     1       5.981   4.988  14.754  0.00  0.00    +0.000 A 
ATOM     18  C   UNL     1       5.538   4.018  13.846  0.00  0.00    +0.000 A 
ATOM     19  C   UNL     1       6.322   3.705  12.750  0.00  0.00    +0.000 A 
ATOM     20  N   UNL     1       7.504   4.303  12.511  0.00  0.00    +0.000 NA
ATOM     21  N   UNL     1       7.950   5.252  13.370  0.00  0.00    +0.000 NA
ATOM     22  C   UNL     1       7.205   5.572  14.453  0.00  0.00    +0.000 A 
ENDBRANCH   4  17
BRANCH   1  23
ATOM     23  N   UNL     1       3.346   6.806  19.446  0.00  0.00    +0.000 N 
ATOM     24  H   UNL     1       4.113   7.125  20.046  0.00  0.00    +0.000 HD
BRANCH  23  28
ATOM     25  C   UNL     1       0.399   9.755  19.298  0.00  0.00    +0.000 A 
ATOM     26  C   UNL     1       1.079   9.442  18.128  0.00  0.00    +0.000 A 
ATOM     27  C   UNL     1       2.057   8.445  18.168  0.00  0.00    +0.000 A 
ATOM     28  C   UNL     1       2.362   7.827  19.378  0.00  0.00    +0.000 A 
ATOM     29  C   UNL     1       1.579   8.191  20.480  0.00  0.00    +0.000 A 
ATOM     30  N   UNL     1       0.608   9.130  20.470  0.00  0.00    +0.000 NA
BRANCH  25  32
ATOM     31  C   UNL     1      -1.637  10.437  18.393  0.00  0.00    +0.000 C 
ATOM     32  O   UNL     1      -0.533  10.770  19.233  0.00  0.00    +0.000 OA
ENDBRANCH  25  32
ENDBRANCH  23  28
ENDBRANCH   1  23
TORSDOF 5
ENDMDL
MODEL 5
REMARK VINA RESULT:      -8.0      1.314      2.128
REMARK  Name = 
REMARK  7 active torsions:
REMARK  status: ('A' for Active; 'I' for Inactive)
REMARK    1  A    between atoms: C_1  and  O_2
REMARK    2  A    between atoms: O_2  and  C_3
REMARK    3  A    between atoms: C_6  and  N_7
REMARK    4  A    between atoms: N_7  and  C_8
REMARK    5  A    between atoms: C_11  and  C_12
REMARK    6  A    between atoms: C_19  and  C_20
REMARK    7  A    between atoms: C_22  and  C_23
REMARK                            x       y       z     vdW  Elec       q    Type
REMARK                         _______ _______ _______ _____ _____    ______ ____
ROOT
ATOM      1  C   UNL     1       3.417   5.708  18.000  0.00  0.00    +0.000 A 
ATOM      2  N   UNL     1       3.413   6.898  17.347  0.00  0.00    +0.000 NA
ATOM      3  C   UNL     1       2.788   7.955  17.900  0.00  0.00    +0.000 A 
ATOM      4  C   UNL     1       2.123   7.928  19.114  0.00  0.00    +0.000 A 
ATOM      5  C   UNL     1       2.223   6.715  19.817  0.00  0.00    +0.000 A 
ATOM      6  C   UNL     1       2.888   5.578  19.292  0.00  0.00    +0.000 A 
ENDROOT
BRANCH   6   7
ATOM      7  C   UNL     1       2.927   4.328  20.070  0.00  0.00    +0.000 A 
ATOM      8  N   UNL     1       4.012   3.558  19.948  0.00  0.00    +0.000 NA
ATOM      9  C   UNL     1       4.009   2.454  20.693  0.00  0.00    +0.000 A 
ATOM     10  C   UNL     1       5.197   1.545  20.611  0.00  0.00    +0.000 C 
ATOM     11  N   UNL     1       3.033   2.111  21.531  0.00  0.00    +0.000 NA
ATOM     12  C   UNL     1       2.004   2.942  21.575  0.00  0.00    +0.000 A 
ATOM     13  N   UNL     1       0.976   2.637  22.441  0.00  0.00    +0.000 N 
ATOM     14  N   UNL     1       1.899   4.066  20.882  0.00  0.00    +0.000 NA
ATOM     15  H   UNL     1       1.302   2.020  23.172  0.00  0.00    +0.000 HD
ATOM     16  H   UNL     1       0.479   3.466  22.732  0.00  0.00    +0.000 HD
ENDBRANCH   6   7
BRANCH   4  17
ATOM     17  C   UNL     1       1.343   9.084  19.599  0.00  0.00    +0.000 A 
ATOM     18  C   UNL     1       0.760   9.100  20.873  0.00  0.00    +0.000 A 
ATOM     19  C   UNL     1       0.044  10.211  21.277  0.00  0.00    +0.000 A 
ATOM     20  N   UNL     1      -0.115  11.294  20.496  0.00  0.00    +0.000 NA
ATOM     21  N   UNL     1       0.447  11.308  19.263  0.00  0.00    +0.000 NA
ATOM     22  C   UNL     1       1.148  10.230  18.839  0.00  0.00    +0.000 A 
ENDBRANCH   4  17
BRANCH   1  23
ATOM     23  N   UNL     1       3.981   4.617  17.286  0.00  0.00    +0.000 N 
ATOM     24  H   UNL     1       3.240   4.135  16.768  0.00  0.00    +0.000 HD
BRANCH  23  28
ATOM     25  C   UNL     1       7.250   5.258  14.774  0.00  0.00    +0.000 A 
ATOM     26  C   UNL     1       6.228   4.431  14.329  0.00  0.00    +0.000 A 
ATOM     27  C   UNL     1       5.122   4.224  15.159  0.00  0.00    +0.000 A 
ATOM     28  C   UNL     1       5.094   4.805  16.425  0.00  0.00    +0.000 A 
ATOM     29  C   UNL     1       6.158   5.656  16.746  0.00  0.00    +0.000 A 
ATOM     30  N   UNL     1       7.226   5.900  15.956  0.00  0.00    +0.000 NA
BRANCH  25  32
ATOM     31  C   UNL     1       7.970   5.527  12.574  0.00  0.00    +0.000 C 
ATOM     32  O   UNL     1       8.343   5.410  13.947  0.00  0.00    +0.000 OA
ENDBRANCH  25  32
ENDBRANCH  23  28
ENDBRANCH   1  23
TORSDOF 5
ENDMDL
MODEL 6
REMARK VINA RESULT:      -7.9      2.768      7.331
REMARK  Name = 
REMARK  7 active torsions:
REMARK  status: ('A' for Active; 'I' for Inactive)
REMARK    1  A    between atoms: C_1  and  O_2
REMARK    2  A    between atoms: O_2  and  C_3
REMARK    3  A    between atoms: C_6  and  N_7
REMARK    4  A    between atoms: N_7  and  C_8
REMARK    5  A    between atoms: C_11  and  C_12
REMARK    6  A    between atoms: C_19  and  C_20
REMARK    7  A    between atoms: C_22  and  C_23
REMARK                            x       y       z     vdW  Elec       q    Type
REMARK                         _______ _______ _______ _____ _____    ______ ____
ROOT
ATOM      1  C   UNL     1       4.162   6.270  17.840  0.00  0.00    +0.000 A 
ATOM      2  N   UNL     1       4.458   7.089  16.799  0.00  0.00    +0.000 NA
ATOM      3  C   UNL     1       4.971   6.566  15.669  0.00  0.00    +0.000 A 
ATOM      4  C   UNL     1       5.235   5.220  15.475  0.00  0.00    +0.000 A 
ATOM      5  C   UNL     1       4.830   4.380  16.526  0.00  0.00    +0.000 A 
ATOM      6  C   UNL     1       4.264   4.876  17.729  0.00  0.00    +0.000 A 
ENDROOT
BRANCH   6   7
ATOM      7  C   UNL     1       3.892   3.940  18.804  0.00  0.00    +0.000 A 
ATOM      8  N   UNL     1       2.638   3.992  19.261  0.00  0.00    +0.000 NA
ATOM      9  C   UNL     1       2.345   3.107  20.212  0.00  0.00    +0.000 A 
ATOM     10  C   UNL     1       0.955   3.104  20.769  0.00  0.00    +0.000 C 
ATOM     11  N   UNL     1       3.197   2.200  20.689  0.00  0.00    +0.000 NA
ATOM     12  C   UNL     1       4.414   2.236  20.168  0.00  0.00    +0.000 A 
ATOM     13  N   UNL     1       5.325   1.306  20.618  0.00  0.00    +0.000 N 
ATOM     14  N   UNL     1       4.816   3.069  19.220  0.00  0.00    +0.000 NA
ATOM     15  H   UNL     1       4.848   0.509  21.018  0.00  0.00    +0.000 HD
ATOM     16  H   UNL     1       6.031   1.112  19.922  0.00  0.00    +0.000 HD
ENDBRANCH   6   7
BRANCH   4  17
ATOM     17  C   UNL     1       5.923   4.730  14.265  0.00  0.00    +0.000 A 
ATOM     18  C   UNL     1       7.175   5.223  13.876  0.00  0.00    +0.000 A 
ATOM     19  C   UNL     1       7.776   4.725  12.734  0.00  0.00    +0.000 A 
ATOM     20  N   UNL     1       7.209   3.770  11.975  0.00  0.00    +0.000 NA
ATOM     21  N   UNL     1       6.002   3.270  12.334  0.00  0.00    +0.000 NA
ATOM     22  C   UNL     1       5.389   3.745  13.444  0.00  0.00    +0.000 A 
ENDBRANCH   4  17
BRANCH   1  23
ATOM     23  N   UNL     1       3.753   6.918  19.036  0.00  0.00    +0.000 N 
ATOM     24  H   UNL     1       4.563   7.378  19.463  0.00  0.00    +0.000 HD
BRANCH  23  28
ATOM     25  C   UNL     1       0.492   9.520  19.093  0.00  0.00    +0.000 A 
ATOM     26  C   UNL     1       1.162   9.327  17.892  0.00  0.00    +0.000 A 
ATOM     27  C   UNL     1       2.246   8.445  17.863  0.00  0.00    +0.000 A 
ATOM     28  C   UNL     1       2.659   7.824  19.038  0.00  0.00    +0.000 A 
ATOM     29  C   UNL     1       1.880   8.057  20.177  0.00  0.00    +0.000 A 
ATOM     30  N   UNL     1       0.810   8.881  20.233  0.00  0.00    +0.000 NA
BRANCH  25  32
ATOM     31  C   UNL     1      -1.348  10.333  17.918  0.00  0.00    +0.000 C 
ATOM     32  O   UNL     1      -0.549  10.425  19.096  0.00  0.00    +0.000 OA
ENDBRANCH  25  32
ENDBRANCH  23  28
ENDBRANCH   1  23
TORSDOF 5
ENDMDL
MODEL 7
REMARK VINA RESULT:      -7.9      0.874      1.762
REMARK  Name = 
REMARK  7 active torsions:
REMARK  status: ('A' for Active; 'I' for Inactive)
REMARK    1  A    between atoms: C_1  and  O_2
REMARK    2  A    between atoms: O_2  and  C_3
REMARK    3  A    between atoms: C_6  and  N_7
REMARK    4  A    between atoms: N_7  and  C_8
REMARK    5  A    between atoms: C_11  and  C_12
REMARK    6  A    between atoms: C_19  and  C_20
REMARK    7  A    between atoms: C_22  and  C_23
REMARK                            x       y       z     vdW  Elec       q    Type
REMARK                         _______ _______ _______ _____ _____    ______ ____
ROOT
ATOM      1  C   UNL     1       2.869   5.973  18.317  0.00  0.00    +0.000 A 
ATOM      2  N   UNL     1       2.798   7.222  17.792  0.00  0.00    +0.000 NA
ATOM      3  C   UNL     1       2.303   8.228  18.538  0.00  0.00    +0.000 A 
ATOM      4  C   UNL     1       1.842   8.090  19.836  0.00  0.00    +0.000 A 
ATOM      5  C   UNL     1       2.015   6.812  20.394  0.00  0.00    +0.000 A 
ATOM      6  C   UNL     1       2.552   5.722  19.660  0.00  0.00    +0.000 A 
ENDROOT
BRANCH   6   7
ATOM      7  C   UNL     1       2.676   4.400  20.297  0.00  0.00    +0.000 A 
ATOM      8  N   UNL     1       3.774   3.687  20.032  0.00  0.00    +0.000 NA
ATOM      9  C   UNL     1       3.850   2.512  20.654  0.00  0.00    +0.000 A 
ATOM     10  C   UNL     1       5.057   1.661  20.408  0.00  0.00    +0.000 C 
ATOM     11  N   UNL     1       2.937   2.048  21.507  0.00  0.00    +0.000 NA
ATOM     12  C   UNL     1       1.889   2.833  21.698  0.00  0.00    +0.000 A 
ATOM     13  N   UNL     1       0.926   2.402  22.584  0.00  0.00    +0.000 N 
ATOM     14  N   UNL     1       1.707   4.018  21.135  0.00  0.00    +0.000 NA
ATOM     15  H   UNL     1       1.315   1.724  23.226  0.00  0.00    +0.000 HD
ATOM     16  H   UNL     1       0.422   3.178  22.990  0.00  0.00    +0.000 HD
ENDBRANCH   6   7
BRANCH   4  17
ATOM     17  C   UNL     1       1.188   9.203  20.551  0.00  0.00    +0.000 A 
ATOM     18  C   UNL     1       0.671  10.314  19.872  0.00  0.00    +0.000 A 
ATOM     19  C   UNL     1       0.063  11.327  20.591  0.00  0.00    +0.000 A 
ATOM     20  N   UNL     1      -0.062  11.290  21.930  0.00  0.00    +0.000 NA
ATOM     21  N   UNL     1       0.421  10.223  22.610  0.00  0.00    +0.000 NA
ATOM     22  C   UNL     1       1.026   9.220  21.931  0.00  0.00    +0.000 A 
ENDBRANCH   4  17
BRANCH   1  23
ATOM     23  N   UNL     1       3.276   4.950  17.420  0.00  0.00    +0.000 N 
ATOM     24  H   UNL     1       2.509   4.746  16.772  0.00  0.00    +0.000 HD
BRANCH  23  28
ATOM     25  C   UNL     1       6.815   5.203  15.225  0.00  0.00    +0.000 A 
ATOM     26  C   UNL     1       6.752   5.849  16.452  0.00  0.00    +0.000 A 
ATOM     27  C   UNL     1       5.574   5.756  17.199  0.00  0.00    +0.000 A 
ATOM     28  C   UNL     1       4.482   5.066  16.679  0.00  0.00    +0.000 A 
ATOM     29  C   UNL     1       4.678   4.416  15.455  0.00  0.00    +0.000 A 
ATOM     30  N   UNL     1       5.811   4.462  14.721  0.00  0.00    +0.000 NA
BRANCH  25  32
ATOM     31  C   UNL     1       7.765   5.154  13.098  0.00  0.00    +0.000 C 
ATOM     32  O   UNL     1       7.978   5.346  14.496  0.00  0.00    +0.000 OA
ENDBRANCH  25  32
ENDBRANCH  23  28
ENDBRANCH   1  23
TORSDOF 5
ENDMDL
MODEL 8
REMARK VINA RESULT:      -7.8      2.796      7.444
REMARK  Name = 
REMARK  7 active torsions:
REMARK  status: ('A' for Active; 'I' for Inactive)
REMARK    1  A    between atoms: C_1  and  O_2
REMARK    2  A    between atoms: O_2  and  C_3
REMARK    3  A    between atoms: C_6  and  N_7
REMARK    4  A    between atoms: N_7  and  C_8
REMARK    5  A    between atoms: C_11  and  C_12
REMARK    6  A    between atoms: C_19  and  C_20
REMARK    7  A    between atoms: C_22  and  C_23
REMARK                            x       y       z     vdW  Elec       q    Type
REMARK                         _______ _______ _______ _____ _____    ______ ____
ROOT
ATOM      1  C   UNL     1       4.033   6.258  17.853  0.00  0.00    +0.000 A 
ATOM      2  N   UNL     1       4.442   7.095  16.866  0.00  0.00    +0.000 NA
ATOM      3  C   UNL     1       4.977   6.583  15.741  0.00  0.00    +0.000 A 
ATOM      4  C   UNL     1       5.156   5.231  15.501  0.00  0.00    +0.000 A 
ATOM      5  C   UNL     1       4.638   4.380  16.491  0.00  0.00    +0.000 A 
ATOM      6  C   UNL     1       4.044   4.866  17.685  0.00  0.00    +0.000 A 
ENDROOT
BRANCH   6   7
ATOM      7  C   UNL     1       3.549   3.916  18.696  0.00  0.00    +0.000 A 
ATOM      8  N   UNL     1       4.445   3.121  19.287  0.00  0.00    +0.000 NA
ATOM      9  C   UNL     1       3.951   2.300  20.213  0.00  0.00    +0.000 A 
ATOM     10  C   UNL     1       4.899   1.383  20.922  0.00  0.00    +0.000 C 
ATOM     11  N   UNL     1       2.669   2.255  20.575  0.00  0.00    +0.000 NA
ATOM     12  C   UNL     1       1.866   3.084  19.927  0.00  0.00    +0.000 A 
ATOM     13  N   UNL     1       0.534   3.084  20.279  0.00  0.00    +0.000 N 
ATOM     14  N   UNL     1       2.246   3.941  18.991  0.00  0.00    +0.000 NA
ATOM     15  H   UNL     1       0.416   2.715  21.213  0.00  0.00    +0.000 HD
ATOM     16  H   UNL     1       0.099   3.974  20.082  0.00  0.00    +0.000 HD
ENDBRANCH   6   7
BRANCH   4  17
ATOM     17  C   UNL     1       5.873   4.743  14.307  0.00  0.00    +0.000 A 
ATOM     18  C   UNL     1       5.317   3.780  13.454  0.00  0.00    +0.000 A 
ATOM     19  C   UNL     1       6.031   3.361  12.346  0.00  0.00    +0.000 A 
ATOM     20  N   UNL     1       7.247   3.848  12.042  0.00  0.00    +0.000 NA
ATOM     21  N   UNL     1       7.803   4.787  12.845  0.00  0.00    +0.000 NA
ATOM     22  C   UNL     1       7.129   5.210  13.940  0.00  0.00    +0.000 A 
ENDBRANCH   4  17
BRANCH   1  23
ATOM     23  N   UNL     1       3.607   6.884  19.054  0.00  0.00    +0.000 N 
ATOM     24  H   UNL     1       4.419   7.295  19.526  0.00  0.00    +0.000 HD
BRANCH  23  28
ATOM     25  C   UNL     1       0.458   9.621  19.085  0.00  0.00    +0.000 A 
ATOM     26  C   UNL     1       1.102   9.370  17.881  0.00  0.00    +0.000 A 
ATOM     27  C   UNL     1       2.148   8.443  17.861  0.00  0.00    +0.000 A 
ATOM     28  C   UNL     1       2.552   7.834  19.047  0.00  0.00    +0.000 A 
ATOM     29  C   UNL     1       1.799   8.130  20.189  0.00  0.00    +0.000 A 
ATOM     30  N   UNL     1       0.765   8.998  20.238  0.00  0.00    +0.000 NA
BRANCH  25  32
ATOM     31  C   UNL     1      -1.450  10.390  17.990  0.00  0.00    +0.000 C 
ATOM     32  O   UNL     1      -0.544  10.569  19.079  0.00  0.00    +0.000 OA
ENDBRANCH  25  32
ENDBRANCH  23  28
ENDBRANCH   1  23
TORSDOF 5
ENDMDL
MODEL 9
REMARK VINA RESULT:      -7.8      2.782      7.357
REMARK  Name = 
REMARK  7 active torsions:
REMARK  status: ('A' for Active; 'I' for Inactive)
REMARK    1  A    between atoms: C_1  and  O_2
REMARK    2  A    between atoms: O_2  and  C_3
REMARK    3  A    between atoms: C_6  and  N_7
REMARK    4  A    between atoms: N_7  and  C_8
REMARK    5  A    between atoms: C_11  and  C_12
REMARK    6  A    between atoms: C_19  and  C_20
REMARK    7  A    between atoms: C_22  and  C_23
REMARK                            x       y       z     vdW  Elec       q    Type
REMARK                         _______ _______ _______ _____ _____    ______ ____
ROOT
ATOM      1  C   UNL     1       4.093   6.267  17.877  0.00  0.00    +0.000 A 
ATOM      2  N   UNL     1       4.378   7.094  16.839  0.00  0.00    +0.000 NA
ATOM      3  C   UNL     1       4.916   6.585  15.714  0.00  0.00    +0.000 A 
ATOM      4  C   UNL     1       5.217   5.247  15.524  0.00  0.00    +0.000 A 
ATOM      5  C   UNL     1       4.825   4.396  16.571  0.00  0.00    +0.000 A 
ATOM      6  C   UNL     1       4.234   4.877  17.768  0.00  0.00    +0.000 A 
ENDROOT
BRANCH   6   7
ATOM      7  C   UNL     1       3.876   3.931  18.839  0.00  0.00    +0.000 A 
ATOM      8  N   UNL     1       2.627   3.974  19.309  0.00  0.00    +0.000 NA
ATOM      9  C   UNL     1       2.347   3.081  20.256  0.00  0.00    +0.000 A 
ATOM     10  C   UNL     1       0.962   3.068  20.827  0.00  0.00    +0.000 C 
ATOM     11  N   UNL     1       3.207   2.174  20.717  0.00  0.00    +0.000 NA
ATOM     12  C   UNL     1       4.418   2.218  20.184  0.00  0.00    +0.000 A 
ATOM     13  N   UNL     1       5.338   1.288  20.618  0.00  0.00    +0.000 N 
ATOM     14  N   UNL     1       4.808   3.060  19.239  0.00  0.00    +0.000 NA
ATOM     15  H   UNL     1       4.868   0.487  21.017  0.00  0.00    +0.000 HD
ATOM     16  H   UNL     1       6.038   1.103  19.914  0.00  0.00    +0.000 HD
ENDBRANCH   6   7
BRANCH   4  17
ATOM     17  C   UNL     1       5.930   4.775  14.320  0.00  0.00    +0.000 A 
ATOM     18  C   UNL     1       7.192   5.271  13.967  0.00  0.00    +0.000 A 
ATOM     19  C   UNL     1       7.817   4.791  12.831  0.00  0.00    +0.000 A 
ATOM     20  N   UNL     1       7.264   3.851  12.043  0.00  0.00    +0.000 NA
ATOM     21  N   UNL     1       6.049   3.348  12.367  0.00  0.00    +0.000 NA
ATOM     22  C   UNL     1       5.412   3.806  13.471  0.00  0.00    +0.000 A 
ENDBRANCH   4  17
BRANCH   1  23
ATOM     23  N   UNL     1       3.655   6.904  19.068  0.00  0.00    +0.000 N 
ATOM     24  H   UNL     1       4.457   7.350  19.526  0.00  0.00    +0.000 HD
BRANCH  23  28
ATOM     25  C   UNL     1       0.520   9.654  18.971  0.00  0.00    +0.000 A 
ATOM     26  C   UNL     1       0.767   8.978  20.158  0.00  0.00    +0.000 A 
ATOM     27  C   UNL     1       1.826   8.066  20.201  0.00  0.00    +0.000 A 
ATOM     28  C   UNL     1       2.570   7.820  19.050  0.00  0.00    +0.000 A 
ATOM     29  C   UNL     1       2.260   8.595  17.928  0.00  0.00    +0.000 A 
ATOM     30  N   UNL     1       1.262   9.504  17.860  0.00  0.00    +0.000 NA
BRANCH  25  32
ATOM     31  C   UNL     1      -0.820  11.083  20.235  0.00  0.00    +0.000 C 
ATOM     32  O   UNL     1      -0.556  10.519  18.951  0.00  0.00    +0.000 OA
ENDBRANCH  25  32
ENDBRANCH  23  28
ENDBRANCH   1  23
TORSDOF 5
ENDMDL
