MODEL 1
REMARK VINA RESULT:      -8.0      0.000      0.000
REMARK  Name = 
REMARK  5 active torsions:
REMARK  status: ('A' for Active; 'I' for Inactive)
REMARK    1  A    between atoms: C_1  and  O_2
REMARK    2  A    between atoms: O_2  and  C_3
REMARK    3  A    between atoms: C_6  and  C_7
REMARK    4  A    between atoms: C_9  and  C_10
REMARK    5  A    between atoms: C_20  and  O_21
REMARK                            x       y       z     vdW  Elec       q    Type
REMARK                         _______ _______ _______ _____ _____    ______ ____
ROOT
ATOM      1  C   UNL     1       3.812   5.626  18.882  0.00  0.00    +0.000 A 
ATOM      2  C   UNL     1       3.084   6.875  19.065  0.00  0.00    +0.000 A 
ATOM      3  C   UNL     1       2.141   6.988  20.013  0.00  0.00    +0.000 A 
ATOM      4  N   UNL     1       1.852   5.928  20.831  0.00  0.00    +0.000 N 
ATOM      5  C   UNL     1       2.496   4.723  20.757  0.00  0.00    +0.000 A 
ATOM      6  O   UNL     1       2.250   3.775  21.498  0.00  0.00    +0.000 OA
ATOM      7  C   UNL     1       3.553   4.584  19.700  0.00  0.00    +0.000 A 
ATOM      8  H   UNL     1       1.137   6.015  21.541  0.00  0.00    +0.000 HD
ENDROOT
BRANCH   3   9
ATOM      9  C   UNL     1       1.415   8.247  20.208  0.00  0.00    +0.000 A 
ATOM     10  C   UNL     1       0.800   8.530  21.436  0.00  0.00    +0.000 A 
ATOM     11  C   UNL     1       0.055   9.700  21.594  0.00  0.00    +0.000 A 
ATOM     12  C   UNL     1      -0.069  10.585  20.529  0.00  0.00    +0.000 A 
ATOM     13  F   UNL     1      -0.798  11.699  20.678  0.00  0.00    +0.000 F 
ATOM     14  C   UNL     1       0.551  10.330  19.311  0.00  0.00    +0.000 A 
ATOM     15  C   UNL     1       1.295   9.160  19.149  0.00  0.00    +0.000 A 
ENDBRANCH   3   9
BRANCH   1  19
ATOM     16  C   UNL     1       6.732   5.246  15.770  0.00  0.00    +0.000 A 
ATOM     17  C   UNL     1       7.046   5.912  16.956  0.00  0.00    +0.000 A 
ATOM     18  C   UNL     1       6.106   6.009  17.985  0.00  0.00    +0.000 A 
ATOM     19  C   UNL     1       4.825   5.467  17.821  0.00  0.00    +0.000 A 
ATOM     20  C   UNL     1       4.514   4.796  16.635  0.00  0.00    +0.000 A 
ATOM     21  C   UNL     1       5.462   4.687  15.612  0.00  0.00    +0.000 A 
BRANCH  16  23
ATOM     22  C   UNL     1       7.306   4.863  13.512  0.00  0.00    +0.000 C 
ATOM     23  O   UNL     1       7.717   5.246  14.819  0.00  0.00    +0.000 OA
ENDBRANCH  16  23
ENDBRANCH   1  19
BRANCH   7  24
ATOM     24  O   UNL     1       4.208   3.365  19.621  0.00  0.00    +0.000 OA
ATOM     25  H   UNL     1       3.497   2.705  19.483  0.00  0.00    +0.000 HD
ENDBRANCH   7  24
TORSDOF 4
ENDMDL
MODEL 2
REMARK VINA RESULT:      -7.9      0.141      1.019
REMARK  Name = 
REMARK  5 active torsions:
REMARK  status: ('A' for Active; 'I' for Inactive)
REMARK    1  A    between atoms: C_1  and  O_2
REMARK    2  A    between atoms: O_2  and  C_3
REMARK    3  A    between atoms: C_6  and  C_7
REMARK    4  A    between atoms: C_9  and  C_10
REMARK    5  A    between atoms: C_20  and  O_21
REMARK                            x       y       z     vdW  Elec       q    Type
REMARK                         _______ _______ _______ _____ _____    ______ ____
ROOT
ATOM      1  C   UNL     1       3.804   5.650  18.874  0.00  0.00    +0.000 A 
ATOM      2  C   UNL     1       3.083   6.904  19.050  0.00  0.00    +0.000 A 
ATOM      3  C   UNL     1       2.146   7.029  20.002  0.00  0.00    +0.000 A 
ATOM      4  N   UNL     1       1.858   5.979  20.832  0.00  0.00    +0.000 N 
ATOM      5  C   UNL     1       2.495   4.770  20.765  0.00  0.00    +0.000 A 
ATOM      6  O   UNL     1       2.249   3.830  21.517  0.00  0.00    +0.000 OA
ATOM      7  C   UNL     1       3.546   4.617  19.704  0.00  0.00    +0.000 A 
ATOM      8  H   UNL     1       1.147   6.075  21.545  0.00  0.00    +0.000 HD
ENDROOT
BRANCH   3   9
ATOM      9  C   UNL     1       1.427   8.294  20.189  0.00  0.00    +0.000 A 
ATOM     10  C   UNL     1       1.279   9.192  19.122  0.00  0.00    +0.000 A 
ATOM     11  C   UNL     1       0.652  10.423  19.323  0.00  0.00    +0.000 A 
ATOM     12  C   UNL     1       0.169  10.750  20.586  0.00  0.00    +0.000 A 
ATOM     13  F   UNL     1      -0.418  11.938  20.781  0.00  0.00    +0.000 F 
ATOM     14  C   UNL     1       0.289   9.863  21.650  0.00  0.00    +0.000 A 
ATOM     15  C   UNL     1       0.917   8.632  21.453  0.00  0.00    +0.000 A 
ENDBRANCH   3   9
BRANCH   1  19
ATOM     16  C   UNL     1       6.703   5.228  15.748  0.00  0.00    +0.000 A 
ATOM     17  C   UNL     1       7.024   5.914  16.921  0.00  0.00    +0.000 A 
ATOM     18  C   UNL     1       6.091   6.025  17.954  0.00  0.00    +0.000 A 
ATOM     19  C   UNL     1       4.811   5.476  17.809  0.00  0.00    +0.000 A 
ATOM     20  C   UNL     1       4.493   4.785  16.636  0.00  0.00    +0.000 A 
ATOM     21  C   UNL     1       5.435   4.662  15.608  0.00  0.00    +0.000 A 
BRANCH  16  23
ATOM     22  C   UNL     1       7.261   4.821  13.490  0.00  0.00    +0.000 C 
ATOM     23  O   UNL     1       7.682   5.215  14.791  0.00  0.00    +0.000 OA
ENDBRANCH  16  23
ENDBRANCH   1  19
BRANCH   7  24
ATOM     24  O   UNL     1       4.195   3.395  19.632  0.00  0.00    +0.000 OA
ATOM     25  H   UNL     1       4.562   3.357  18.724  0.00  0.00    +0.000 HD
ENDBRANCH   7  24
TORSDOF 4
ENDMDL
MODEL 3
REMARK VINA RESULT:      -7.8      0.155      1.018
REMARK  Name = 
REMARK  5 active torsions:
REMARK  status: ('A' for Active; 'I' for Inactive)
REMARK    1  A    between atoms: C_1  and  O_2
REMARK    2  A    between atoms: O_2  and  C_3
REMARK    3  A    between atoms: C_6  and  C_7
REMARK    4  A    between atoms: C_9  and  C_10
REMARK    5  A    between atoms: C_20  and  O_21
REMARK                            x       y       z     vdW  Elec       q    Type
REMARK                         _______ _______ _______ _____ _____    ______ ____
ROOT
ATOM      1  C   UNL     1       3.757   5.729  18.925  0.00  0.00    +0.000 A 
ATOM      2  C   UNL     1       3.022   6.975  19.102  0.00  0.00    +0.000 A 
ATOM      3  C   UNL     1       2.069   7.082  20.041  0.00  0.00    +0.000 A 
ATOM      4  N   UNL     1       1.778   6.020  20.855  0.00  0.00    +0.000 N 
ATOM      5  C   UNL     1       2.428   4.818  20.786  0.00  0.00    +0.000 A 
ATOM      6  O   UNL     1       2.179   3.868  21.524  0.00  0.00    +0.000 OA
ATOM      7  C   UNL     1       3.495   4.685  19.740  0.00  0.00    +0.000 A 
ATOM      8  H   UNL     1       1.056   6.103  21.558  0.00  0.00    +0.000 HD
ENDROOT
BRANCH   3   9
ATOM      9  C   UNL     1       1.336   8.338  20.230  0.00  0.00    +0.000 A 
ATOM     10  C   UNL     1       0.689   8.607  21.445  0.00  0.00    +0.000 A 
ATOM     11  C   UNL     1      -0.063   9.773  21.596  0.00  0.00    +0.000 A 
ATOM     12  C   UNL     1      -0.161  10.670  20.537  0.00  0.00    +0.000 A 
ATOM     13  F   UNL     1      -0.896  11.780  20.678  0.00  0.00    +0.000 F 
ATOM     14  C   UNL     1       0.491  10.428  19.333  0.00  0.00    +0.000 A 
ATOM     15  C   UNL     1       1.241   9.262  19.178  0.00  0.00    +0.000 A 
ENDBRANCH   3   9
BRANCH   1  19
ATOM     16  C   UNL     1       6.752   5.203  15.906  0.00  0.00    +0.000 A 
ATOM     17  C   UNL     1       5.466   4.690  15.723  0.00  0.00    +0.000 A 
ATOM     18  C   UNL     1       4.480   4.888  16.692  0.00  0.00    +0.000 A 
ATOM     19  C   UNL     1       4.781   5.576  17.874  0.00  0.00    +0.000 A 
ATOM     20  C   UNL     1       6.068   6.094  18.053  0.00  0.00    +0.000 A 
ATOM     21  C   UNL     1       7.050   5.907  17.074  0.00  0.00    +0.000 A 
BRANCH  16  23
ATOM     22  C   UNL     1       7.074   4.662  13.631  0.00  0.00    +0.000 C 
ATOM     23  O   UNL     1       7.645   4.916  14.909  0.00  0.00    +0.000 OA
ENDBRANCH  16  23
ENDBRANCH   1  19
BRANCH   7  24
ATOM     24  O   UNL     1       4.157   3.470  19.665  0.00  0.00    +0.000 OA
ATOM     25  H   UNL     1       4.114   3.217  18.720  0.00  0.00    +0.000 HD
ENDBRANCH   7  24
TORSDOF 4
ENDMDL
MODEL 4
REMARK VINA RESULT:      -7.8      0.258      1.446
REMARK  Name = 
REMARK  5 active torsions:
REMARK  status: ('A' for Active; 'I' for Inactive)
REMARK    1  A    between atoms: C_1  and  O_2
REMARK    2  A    between atoms: O_2  and  C_3
REMARK    3  A    between atoms: C_6  and  C_7
REMARK    4  A    between atoms: C_9  and  C_10
REMARK    5  A    between atoms: C_20  and  O_21
REMARK                            x       y       z     vdW  Elec       q    Type
REMARK                         _______ _______ _______ _____ _____    ______ ____
ROOT
ATOM      1  C   UNL     1       3.739   5.694  19.005  0.00  0.00    +0.000 A 
ATOM      2  C   UNL     1       3.032   6.954  19.197  0.00  0.00    +0.000 A 
ATOM      3  C   UNL     1       2.070   7.067  20.125  0.00  0.00    +0.000 A 
ATOM      4  N   UNL     1       1.742   5.997  20.915  0.00  0.00    +0.000 N 
ATOM      5  C   UNL     1       2.363   4.780  20.830  0.00  0.00    +0.000 A 
ATOM      6  O   UNL     1       2.081   3.823  21.546  0.00  0.00    +0.000 OA
ATOM      7  C   UNL     1       3.441   4.642  19.795  0.00  0.00    +0.000 A 
ATOM      8  H   UNL     1       1.012   6.084  21.610  0.00  0.00    +0.000 HD
ENDROOT
BRANCH   3   9
ATOM      9  C   UNL     1       1.365   8.336  20.330  0.00  0.00    +0.000 A 
ATOM     10  C   UNL     1       1.242   9.258  19.280  0.00  0.00    +0.000 A 
ATOM     11  C   UNL     1       0.629  10.493  19.498  0.00  0.00    +0.000 A 
ATOM     12  C   UNL     1       0.134  10.800  20.761  0.00  0.00    +0.000 A 
ATOM     13  F   UNL     1      -0.440  11.992  20.973  0.00  0.00    +0.000 F 
ATOM     14  C   UNL     1       0.228   9.889  21.807  0.00  0.00    +0.000 A 
ATOM     15  C   UNL     1       0.843   8.655  21.593  0.00  0.00    +0.000 A 
ENDBRANCH   3   9
BRANCH   1  19
ATOM     16  C   UNL     1       6.756   5.151  16.011  0.00  0.00    +0.000 A 
ATOM     17  C   UNL     1       5.440   4.754  15.768  0.00  0.00    +0.000 A 
ATOM     18  C   UNL     1       4.448   4.959  16.730  0.00  0.00    +0.000 A 
ATOM     19  C   UNL     1       4.773   5.536  17.964  0.00  0.00    +0.000 A 
ATOM     20  C   UNL     1       6.091   5.938  18.204  0.00  0.00    +0.000 A 
ATOM     21  C   UNL     1       7.080   5.744  17.233  0.00  0.00    +0.000 A 
BRANCH  16  23
ATOM     22  C   UNL     1       7.093   4.768  13.706  0.00  0.00    +0.000 C 
ATOM     23  O   UNL     1       7.648   4.866  15.013  0.00  0.00    +0.000 OA
ENDBRANCH  16  23
ENDBRANCH   1  19
BRANCH   7  24
ATOM     24  O   UNL     1       4.073   3.412  19.706  0.00  0.00    +0.000 OA
ATOM     25  H   UNL     1       4.431   3.378  18.794  0.00  0.00    +0.000 HD
ENDBRANCH   7  24
TORSDOF 4
ENDMDL
MODEL 5
REMARK VINA RESULT:      -7.6      1.001      1.544
REMARK  Name = 
REMARK  5 active torsions:
REMARK  status: ('A' for Active; 'I' for Inactive)
REMARK    1  A    between atoms: C_1  and  O_2
REMARK    2  A    between atoms: O_2  and  C_3
REMARK    3  A    between atoms: C_6  and  C_7
REMARK    4  A    between atoms: C_9  and  C_10
REMARK    5  A    between atoms: C_20  and  O_21
REMARK                            x       y       z     vdW  Elec       q    Type
REMARK                         _______ _______ _______ _____ _____    ______ ____
ROOT
ATOM      1  C   UNL     1       4.242   5.156  17.981  0.00  0.00    +0.000 A 
ATOM      2  C   UNL     1       3.508   6.379  18.278  0.00  0.00    +0.000 A 
ATOM      3  C   UNL     1       2.720   6.460  19.362  0.00  0.00    +0.000 A 
ATOM      4  N   UNL     1       2.601   5.393  20.212  0.00  0.00    +0.000 N 
ATOM      5  C   UNL     1       3.267   4.212  20.035  0.00  0.00    +0.000 A 
ATOM      6  O   UNL     1       3.173   3.257  20.803  0.00  0.00    +0.000 OA
ATOM      7  C   UNL     1       4.151   4.108  18.826  0.00  0.00    +0.000 A 
ATOM      8  H   UNL     1       2.002   5.456  21.025  0.00  0.00    +0.000 HD
ENDROOT
BRANCH   3   9
ATOM      9  C   UNL     1       1.989   7.693  19.671  0.00  0.00    +0.000 A 
ATOM     10  C   UNL     1       1.427   7.887  20.941  0.00  0.00    +0.000 A 
ATOM     11  C   UNL     1       0.675   9.033  21.209  0.00  0.00    +0.000 A 
ATOM     12  C   UNL     1       0.494   9.984  20.210  0.00  0.00    +0.000 A 
ATOM     13  F   UNL     1      -0.241  11.075  20.464  0.00  0.00    +0.000 F 
ATOM     14  C   UNL     1       1.061   9.817  18.952  0.00  0.00    +0.000 A 
ATOM     15  C   UNL     1       1.810   8.672  18.680  0.00  0.00    +0.000 A 
ENDBRANCH   3   9
BRANCH   1  19
ATOM     16  C   UNL     1       6.706   4.708  14.504  0.00  0.00    +0.000 A 
ATOM     17  C   UNL     1       5.384   4.259  14.496  0.00  0.00    +0.000 A 
ATOM     18  C   UNL     1       4.570   4.433  15.618  0.00  0.00    +0.000 A 
ATOM     19  C   UNL     1       5.083   5.030  16.775  0.00  0.00    +0.000 A 
ATOM     20  C   UNL     1       6.406   5.484  16.779  0.00  0.00    +0.000 A 
ATOM     21  C   UNL     1       7.216   5.322  15.650  0.00  0.00    +0.000 A 
BRANCH  16  23
ATOM     22  C   UNL     1       6.703   3.782  12.333  0.00  0.00    +0.000 C 
ATOM     23  O   UNL     1       7.419   4.450  13.365  0.00  0.00    +0.000 OA
ENDBRANCH  16  23
ENDBRANCH   1  19
BRANCH   7  24
ATOM     24  O   UNL     1       4.829   2.913  18.643  0.00  0.00    +0.000 OA
ATOM     25  H   UNL     1       5.411   2.830  19.426  0.00  0.00    +0.000 HD
ENDBRANCH   7  24
TORSDOF 4
ENDMDL
MODEL 6
REMARK VINA RESULT:      -7.5      3.610      7.545
REMARK  Name = 
REMARK  5 active torsions:
REMARK  status: ('A' for Active; 'I' for Inactive)
REMARK    1  A    between atoms: C_1  and  O_2
REMARK    2  A    between atoms: O_2  and  C_3
REMARK    3  A    between atoms: C_6  and  C_7
REMARK    4  A    between atoms: C_9  and  C_10
REMARK    5  A    between atoms: C_20  and  O_21
REMARK                            x       y       z     vdW  Elec       q    Type
REMARK                         _______ _______ _______ _____ _____    ______ ____
ROOT
ATOM      1  C   UNL     1       3.660   5.920  18.364  0.00  0.00    +0.000 A 
ATOM      2  C   UNL     1       4.319   5.781  17.071  0.00  0.00    +0.000 A 
ATOM      3  C   UNL     1       5.102   4.722  16.810  0.00  0.00    +0.000 A 
ATOM      4  N   UNL     1       5.287   3.750  17.756  0.00  0.00    +0.000 N 
ATOM      5  C   UNL     1       4.693   3.775  18.989  0.00  0.00    +0.000 A 
ATOM      6  O   UNL     1       4.846   2.897  19.835  0.00  0.00    +0.000 OA
ATOM      7  C   UNL     1       3.815   4.954  19.293  0.00  0.00    +0.000 A 
ATOM      8  H   UNL     1       5.881   2.956  17.558  0.00  0.00    +0.000 HD
ENDROOT
BRANCH   3   9
ATOM      9  C   UNL     1       5.757   4.572  15.507  0.00  0.00    +0.000 A 
ATOM     10  C   UNL     1       6.968   5.227  15.241  0.00  0.00    +0.000 A 
ATOM     11  C   UNL     1       7.552   5.135  13.977  0.00  0.00    +0.000 A 
ATOM     12  C   UNL     1       6.931   4.384  12.985  0.00  0.00    +0.000 A 
ATOM     13  F   UNL     1       7.484   4.310  11.768  0.00  0.00    +0.000 F 
ATOM     14  C   UNL     1       5.740   3.711  13.238  0.00  0.00    +0.000 A 
ATOM     15  C   UNL     1       5.152   3.804  14.500  0.00  0.00    +0.000 A 
ENDBRANCH   3   9
BRANCH   1  19
ATOM     16  C   UNL     1       1.166   9.282  19.278  0.00  0.00    +0.000 A 
ATOM     17  C   UNL     1       1.405   8.298  20.239  0.00  0.00    +0.000 A 
ATOM     18  C   UNL     1       2.244   7.218  19.953  0.00  0.00    +0.000 A 
ATOM     19  C   UNL     1       2.826   7.095  18.686  0.00  0.00    +0.000 A 
ATOM     20  C   UNL     1       2.590   8.084  17.727  0.00  0.00    +0.000 A 
ATOM     21  C   UNL     1       1.762   9.173  18.020  0.00  0.00    +0.000 A 
BRANCH  16  23
ATOM     22  C   UNL     1       0.489  10.780  20.973  0.00  0.00    +0.000 C 
ATOM     23  O   UNL     1       0.300  10.272  19.657  0.00  0.00    +0.000 OA
ENDBRANCH  16  23
ENDBRANCH   1  19
BRANCH   7  24
ATOM     24  O   UNL     1       3.211   4.985  20.539  0.00  0.00    +0.000 OA
ATOM     25  H   UNL     1       2.971   4.053  20.726  0.00  0.00    +0.000 HD
ENDBRANCH   7  24
TORSDOF 4
ENDMDL
MODEL 7
REMARK VINA RESULT:      -7.5      1.068      1.923
REMARK  Name = 
REMARK  5 active torsions:
REMARK  status: ('A' for Active; 'I' for Inactive)
REMARK    1  A    between atoms: C_1  and  O_2
REMARK    2  A    between atoms: O_2  and  C_3
REMARK    3  A    between atoms: C_6  and  C_7
REMARK    4  A    between atoms: C_9  and  C_10
REMARK    5  A    between atoms: C_20  and  O_21
REMARK                            x       y       z     vdW  Elec       q    Type
REMARK                         _______ _______ _______ _____ _____    ______ ____
ROOT
ATOM      1  C   UNL     1       4.254   5.088  17.890  0.00  0.00    +0.000 A 
ATOM      2  C   UNL     1       3.522   6.316  18.175  0.00  0.00    +0.000 A 
ATOM      3  C   UNL     1       2.744   6.414  19.265  0.00  0.00    +0.000 A 
ATOM      4  N   UNL     1       2.633   5.361  20.132  0.00  0.00    +0.000 N 
ATOM      5  C   UNL     1       3.298   4.176  19.968  0.00  0.00    +0.000 A 
ATOM      6  O   UNL     1       3.211   3.234  20.751  0.00  0.00    +0.000 OA
ATOM      7  C   UNL     1       4.171   4.054  18.753  0.00  0.00    +0.000 A 
ATOM      8  H   UNL     1       2.042   5.437  20.949  0.00  0.00    +0.000 HD
ENDROOT
BRANCH   3   9
ATOM      9  C   UNL     1       2.016   7.652  19.561  0.00  0.00    +0.000 A 
ATOM     10  C   UNL     1       1.855   8.636  18.574  0.00  0.00    +0.000 A 
ATOM     11  C   UNL     1       1.219   9.840  18.881  0.00  0.00    +0.000 A 
ATOM     12  C   UNL     1       0.740  10.056  20.168  0.00  0.00    +0.000 A 
ATOM     13  F   UNL     1       0.145  11.218  20.466  0.00  0.00    +0.000 F 
ATOM     14  C   UNL     1       0.873   9.083  21.153  0.00  0.00    +0.000 A 
ATOM     15  C   UNL     1       1.511   7.879  20.851  0.00  0.00    +0.000 A 
ENDBRANCH   3   9
BRANCH   1  19
ATOM     16  C   UNL     1       6.681   4.583  14.396  0.00  0.00    +0.000 A 
ATOM     17  C   UNL     1       5.337   4.206  14.383  0.00  0.00    +0.000 A 
ATOM     18  C   UNL     1       4.536   4.400  15.511  0.00  0.00    +0.000 A 
ATOM     19  C   UNL     1       5.084   4.944  16.679  0.00  0.00    +0.000 A 
ATOM     20  C   UNL     1       6.429   5.325  16.688  0.00  0.00    +0.000 A 
ATOM     21  C   UNL     1       7.226   5.145  15.552  0.00  0.00    +0.000 A 
BRANCH  16  23
ATOM     22  C   UNL     1       6.648   3.622  12.240  0.00  0.00    +0.000 C 
ATOM     23  O   UNL     1       7.376   4.313  13.248  0.00  0.00    +0.000 OA
ENDBRANCH  16  23
ENDBRANCH   1  19
BRANCH   7  24
ATOM     24  O   UNL     1       4.847   2.856  18.581  0.00  0.00    +0.000 OA
ATOM     25  H   UNL     1       4.470   2.255  19.257  0.00  0.00    +0.000 HD
ENDBRANCH   7  24
TORSDOF 4
ENDMDL
MODEL 8
REMARK VINA RESULT:      -7.5      3.603      7.484
REMARK  Name = 
REMARK  5 active torsions:
REMARK  status: ('A' for Active; 'I' for Inactive)
REMARK    1  A    between atoms: C_1  and  O_2
REMARK    2  A    between atoms: O_2  and  C_3
REMARK    3  A    between atoms: C_6  and  C_7
REMARK    4  A    between atoms: C_9  and  C_10
REMARK    5  A    between atoms: C_20  and  O_21
REMARK                            x       y       z     vdW  Elec       q    Type
REMARK                         _______ _______ _______ _____ _____    ______ ____
ROOT
ATOM      1  C   UNL     1       3.620   5.780  18.420  0.00  0.00    +0.000 A 
ATOM      2  C   UNL     1       4.282   5.672  17.127  0.00  0.00    +0.000 A 
ATOM      3  C   UNL     1       5.074   4.625  16.846  0.00  0.00    +0.000 A 
ATOM      4  N   UNL     1       5.264   3.635  17.772  0.00  0.00    +0.000 N 
ATOM      5  C   UNL     1       4.668   3.630  19.003  0.00  0.00    +0.000 A 
ATOM      6  O   UNL     1       4.826   2.736  19.831  0.00  0.00    +0.000 OA
ATOM      7  C   UNL     1       3.781   4.796  19.330  0.00  0.00    +0.000 A 
ATOM      8  H   UNL     1       5.865   2.850  17.559  0.00  0.00    +0.000 HD
ENDROOT
BRANCH   3   9
ATOM      9  C   UNL     1       5.732   4.507  15.541  0.00  0.00    +0.000 A 
ATOM     10  C   UNL     1       6.924   5.199  15.281  0.00  0.00    +0.000 A 
ATOM     11  C   UNL     1       7.510   5.136  14.016  0.00  0.00    +0.000 A 
ATOM     12  C   UNL     1       6.909   4.377  13.017  0.00  0.00    +0.000 A 
ATOM     13  F   UNL     1       7.464   4.331  11.799  0.00  0.00    +0.000 F 
ATOM     14  C   UNL     1       5.738   3.669  13.263  0.00  0.00    +0.000 A 
ATOM     15  C   UNL     1       5.148   3.732  14.526  0.00  0.00    +0.000 A 
ENDBRANCH   3   9
BRANCH   1  19
ATOM     16  C   UNL     1       1.248   9.198  19.444  0.00  0.00    +0.000 A 
ATOM     17  C   UNL     1       1.811   9.084  18.172  0.00  0.00    +0.000 A 
ATOM     18  C   UNL     1       2.558   7.956  17.826  0.00  0.00    +0.000 A 
ATOM     19  C   UNL     1       2.777   6.941  18.765  0.00  0.00    +0.000 A 
ATOM     20  C   UNL     1       2.208   7.055  20.038  0.00  0.00    +0.000 A 
ATOM     21  C   UNL     1       1.448   8.179  20.377  0.00  0.00    +0.000 A 
BRANCH  16  23
ATOM     22  C   UNL     1      -0.206  10.852  18.594  0.00  0.00    +0.000 C 
ATOM     23  O   UNL     1       0.568  10.362  19.682  0.00  0.00    +0.000 OA
ENDBRANCH  16  23
ENDBRANCH   1  19
BRANCH   7  24
ATOM     24  O   UNL     1       3.175   4.797  20.576  0.00  0.00    +0.000 OA
ATOM     25  H   UNL     1       3.915   4.838  21.217  0.00  0.00    +0.000 HD
ENDBRANCH   7  24
TORSDOF 4
ENDMDL
MODEL 9
REMARK VINA RESULT:      -7.5      3.630      7.529
REMARK  Name = 
REMARK  5 active torsions:
REMARK  status: ('A' for Active; 'I' for Inactive)
REMARK    1  A    between atoms: C_1  and  O_2
REMARK    2  A    between atoms: O_2  and  C_3
REMARK    3  A    between atoms: C_6  and  C_7
REMARK    4  A    between atoms: C_9  and  C_10
REMARK    5  A    between atoms: C_20  and  O_21
REMARK                            x       y       z     vdW  Elec       q    Type
REMARK                         _______ _______ _______ _____ _____    ______ ____
ROOT
ATOM      1  C   UNL     1       3.578   5.892  18.401  0.00  0.00    +0.000 A 
ATOM      2  C   UNL     1       4.200   5.788  17.087  0.00  0.00    +0.000 A 
ATOM      3  C   UNL     1       5.011   4.760  16.791  0.00  0.00    +0.000 A 
ATOM      4  N   UNL     1       5.260   3.786  17.721  0.00  0.00    +0.000 N 
ATOM      5  C   UNL     1       4.705   3.779  18.971  0.00  0.00    +0.000 A 
ATOM      6  O   UNL     1       4.915   2.899  19.802  0.00  0.00    +0.000 OA
ATOM      7  C   UNL     1       3.797   4.923  19.315  0.00  0.00    +0.000 A 
ATOM      8  H   UNL     1       5.876   3.016  17.496  0.00  0.00    +0.000 HD
ENDROOT
BRANCH   3   9
ATOM      9  C   UNL     1       5.630   4.647  15.467  0.00  0.00    +0.000 A 
ATOM     10  C   UNL     1       5.010   3.898  14.455  0.00  0.00    +0.000 A 
ATOM     11  C   UNL     1       5.636   3.738  13.217  0.00  0.00    +0.000 A 
ATOM     12  C   UNL     1       6.873   4.331  12.991  0.00  0.00    +0.000 A 
ATOM     13  F   UNL     1       7.480   4.163  11.809  0.00  0.00    +0.000 F 
ATOM     14  C   UNL     1       7.492   5.093  13.976  0.00  0.00    +0.000 A 
ATOM     15  C   UNL     1       6.871   5.253  15.216  0.00  0.00    +0.000 A 
ENDBRANCH   3   9
BRANCH   1  19
ATOM     16  C   UNL     1       1.145   9.254  19.465  0.00  0.00    +0.000 A 
ATOM     17  C   UNL     1       1.640   9.124  18.167  0.00  0.00    +0.000 A 
ATOM     18  C   UNL     1       2.407   8.012  17.809  0.00  0.00    +0.000 A 
ATOM     19  C   UNL     1       2.714   7.033  18.762  0.00  0.00    +0.000 A 
ATOM     20  C   UNL     1       2.212   7.163  20.061  0.00  0.00    +0.000 A 
ATOM     21  C   UNL     1       1.432   8.270  20.412  0.00  0.00    +0.000 A 
BRANCH  16  23
ATOM     22  C   UNL     1      -0.686  10.619  18.865  0.00  0.00    +0.000 C 
ATOM     23  O   UNL     1       0.438  10.401  19.710  0.00  0.00    +0.000 OA
ENDBRANCH  16  23
ENDBRANCH   1  19
BRANCH   7  24
ATOM     24  O   UNL     1       3.231   4.920  20.580  0.00  0.00    +0.000 OA
ATOM     25  H   UNL     1       3.786   4.304  21.102  0.00  0.00    +0.000 HD
ENDBRANCH   7  24
TORSDOF 4
ENDMDL
