MODEL 1
REMARK VINA RESULT:      -7.9      0.000      0.000
REMARK  Name = 
REMARK  6 active torsions:
REMARK  status: ('A' for Active; 'I' for Inactive)
REMARK    1  A    between atoms: C_1  and  O_2
REMARK    2  A    between atoms: O_2  and  C_3
REMARK    3  A    between atoms: C_6  and  C_7
REMARK    4  A    between atoms: C_15  and  C_16
REMARK    5  A    between atoms: C_18  and  C_19
REMARK    6  A    between atoms: C_19  and  N_20
REMARK                            x       y       z     vdW  Elec       q    Type
REMARK                         _______ _______ _______ _____ _____    ______ ____
ROOT
ATOM      1  C   UNL     1       6.427   6.018  17.182  0.00  0.00    +0.000 A 
ATOM      2  C   UNL     1       6.196   5.998  18.561  0.00  0.00    +0.000 A 
ATOM      3  C   UNL     1       5.111   5.299  19.097  0.00  0.00    +0.000 A 
ATOM      4  C   UNL     1       4.216   4.606  18.272  0.00  0.00    +0.000 A 
ATOM      5  C   UNL     1       4.467   4.654  16.884  0.00  0.00    +0.000 A 
ATOM      6  C   UNL     1       5.576   5.320  16.305  0.00  0.00    +0.000 A 
ENDROOT
BRANCH   4   7
ATOM      7  C   UNL     1       3.075   3.838  18.833  0.00  0.00    +0.000 A 
ATOM      8  C   UNL     1       1.968   3.476  18.037  0.00  0.00    +0.000 A 
ATOM      9  C   UNL     1       0.886   2.749  18.558  0.00  0.00    +0.000 A 
ATOM     10  C   UNL     1       0.896   2.358  19.893  0.00  0.00    +0.000 A 
ATOM     11  C   UNL     1       1.981   2.695  20.687  0.00  0.00    +0.000 A 
ATOM     12  F   UNL     1       1.998   2.314  21.971  0.00  0.00    +0.000 F 
ATOM     13  C   UNL     1       3.054   3.424  20.177  0.00  0.00    +0.000 A 
ENDBRANCH   4   7
BRANCH   6  14
ATOM     14  C   UNL     1       5.783   5.234  14.805  0.00  0.00    +0.000 C 
ATOM     15  C   UNL     1       7.159   4.920  14.265  0.00  0.00    +0.000 C 
ATOM     16  C   UNL     1       6.067   3.899  14.127  0.00  0.00    +0.000 C 
BRANCH  16  17
ATOM     17  C   UNL     1       5.541   3.607  12.757  0.00  0.00    +0.000 C 
BRANCH  17  18
ATOM     18  N   UNL     1       6.350   2.562  12.149  0.00  0.00    +0.000 NA
ATOM     19  H   UNL     1       5.770   1.737  12.008  0.00  0.00    +0.000 HD
ATOM     20  H   UNL     1       7.071   2.278  12.812  0.00  0.00    +0.000 HD
ENDBRANCH  17  18
ENDBRANCH  16  17
ENDBRANCH   6  14
BRANCH   1  22
ATOM     21  C   UNL     1       7.815   7.912  17.451  0.00  0.00    +0.000 C 
ATOM     22  O   UNL     1       7.586   6.657  16.822  0.00  0.00    +0.000 OA
ENDBRANCH   1  22
TORSDOF 5
ENDMDL
MODEL 2
REMARK VINA RESULT:      -7.9      3.790      6.698
REMARK  Name = 
REMARK  6 active torsions:
REMARK  status: ('A' for Active; 'I' for Inactive)
REMARK    1  A    between atoms: C_1  and  O_2
REMARK    2  A    between atoms: O_2  and  C_3
REMARK    3  A    between atoms: C_6  and  C_7
REMARK    4  A    between atoms: C_15  and  C_16
REMARK    5  A    between atoms: C_18  and  C_19
REMARK    6  A    between atoms: C_19  and  N_20
REMARK                            x       y       z     vdW  Elec       q    Type
REMARK                         _______ _______ _______ _____ _____    ______ ____
ROOT
ATOM      1  C   UNL     1       3.880   5.740  18.088  0.00  0.00    +0.000 A 
ATOM      2  C   UNL     1       4.666   6.662  17.391  0.00  0.00    +0.000 A 
ATOM      3  C   UNL     1       5.313   6.304  16.205  0.00  0.00    +0.000 A 
ATOM      4  C   UNL     1       5.204   5.008  15.684  0.00  0.00    +0.000 A 
ATOM      5  C   UNL     1       4.414   4.095  16.415  0.00  0.00    +0.000 A 
ATOM      6  C   UNL     1       3.712   4.431  17.600  0.00  0.00    +0.000 A 
ENDROOT
BRANCH   4   7
ATOM      7  C   UNL     1       5.865   4.625  14.411  0.00  0.00    +0.000 A 
ATOM      8  C   UNL     1       7.109   5.173  14.033  0.00  0.00    +0.000 A 
ATOM      9  C   UNL     1       7.743   4.817  12.833  0.00  0.00    +0.000 A 
ATOM     10  C   UNL     1       7.146   3.888  11.985  0.00  0.00    +0.000 A 
ATOM     11  C   UNL     1       5.930   3.330  12.346  0.00  0.00    +0.000 A 
ATOM     12  F   UNL     1       5.354   2.431  11.537  0.00  0.00    +0.000 F 
ATOM     13  C   UNL     1       5.291   3.687  13.533  0.00  0.00    +0.000 A 
ENDBRANCH   4   7
BRANCH   6  14
ATOM     14  C   UNL     1       2.831   3.383  18.252  0.00  0.00    +0.000 C 
ATOM     15  C   UNL     1       3.357   1.977  18.424  0.00  0.00    +0.000 C 
ATOM     16  C   UNL     1       3.156   2.838  19.638  0.00  0.00    +0.000 C 
BRANCH  16  17
ATOM     17  C   UNL     1       2.064   2.469  20.592  0.00  0.00    +0.000 C 
BRANCH  17  18
ATOM     18  N   UNL     1       2.536   2.666  21.954  0.00  0.00    +0.000 NA
ATOM     19  H   UNL     1       2.354   1.819  22.491  0.00  0.00    +0.000 HD
ATOM     20  H   UNL     1       1.973   3.393  22.394  0.00  0.00    +0.000 HD
ENDBRANCH  17  18
ENDBRANCH  16  17
ENDBRANCH   6  14
BRANCH   1  22
ATOM     21  C   UNL     1       2.434   7.421  18.906  0.00  0.00    +0.000 C 
ATOM     22  O   UNL     1       3.228   6.271  19.172  0.00  0.00    +0.000 OA
ENDBRANCH   1  22
TORSDOF 5
ENDMDL
MODEL 3
REMARK VINA RESULT:      -7.7      3.993      6.766
REMARK  Name = 
REMARK  6 active torsions:
REMARK  status: ('A' for Active; 'I' for Inactive)
REMARK    1  A    between atoms: C_1  and  O_2
REMARK    2  A    between atoms: O_2  and  C_3
REMARK    3  A    between atoms: C_6  and  C_7
REMARK    4  A    between atoms: C_15  and  C_16
REMARK    5  A    between atoms: C_18  and  C_19
REMARK    6  A    between atoms: C_19  and  N_20
REMARK                            x       y       z     vdW  Elec       q    Type
REMARK                         _______ _______ _______ _____ _____    ______ ____
ROOT
ATOM      1  C   UNL     1       3.587   5.725  18.130  0.00  0.00    +0.000 A 
ATOM      2  C   UNL     1       4.352   6.692  17.471  0.00  0.00    +0.000 A 
ATOM      3  C   UNL     1       5.086   6.370  16.326  0.00  0.00    +0.000 A 
ATOM      4  C   UNL     1       5.087   5.067  15.809  0.00  0.00    +0.000 A 
ATOM      5  C   UNL     1       4.316   4.110  16.502  0.00  0.00    +0.000 A 
ATOM      6  C   UNL     1       3.528   4.406  17.643  0.00  0.00    +0.000 A 
ENDROOT
BRANCH   4   7
ATOM      7  C   UNL     1       5.842   4.720  14.578  0.00  0.00    +0.000 A 
ATOM      8  C   UNL     1       5.370   3.744  13.676  0.00  0.00    +0.000 A 
ATOM      9  C   UNL     1       6.075   3.409  12.509  0.00  0.00    +0.000 A 
ATOM     10  C   UNL     1       7.270   4.059  12.214  0.00  0.00    +0.000 A 
ATOM     11  C   UNL     1       7.743   5.029  13.084  0.00  0.00    +0.000 A 
ATOM     12  F   UNL     1       8.889   5.663  12.801  0.00  0.00    +0.000 F 
ATOM     13  C   UNL     1       7.051   5.360  14.248  0.00  0.00    +0.000 A 
ENDBRANCH   4   7
BRANCH   6  14
ATOM     14  C   UNL     1       2.680   3.308  18.254  0.00  0.00    +0.000 C 
ATOM     15  C   UNL     1       3.310   1.969  18.561  0.00  0.00    +0.000 C 
ATOM     16  C   UNL     1       2.893   2.861  19.695  0.00  0.00    +0.000 C 
BRANCH  16  17
ATOM     17  C   UNL     1       1.739   2.431  20.544  0.00  0.00    +0.000 C 
BRANCH  17  18
ATOM     18  N   UNL     1       2.102   2.567  21.946  0.00  0.00    +0.000 NA
ATOM     19  H   UNL     1       1.391   2.110  22.516  0.00  0.00    +0.000 HD
ATOM     20  H   UNL     1       2.063   3.553  22.200  0.00  0.00    +0.000 HD
ENDBRANCH  17  18
ENDBRANCH  16  17
ENDBRANCH   6  14
BRANCH   1  22
ATOM     21  C   UNL     1       2.336   7.536  18.992  0.00  0.00    +0.000 C 
ATOM     22  O   UNL     1       2.843   6.219  19.172  0.00  0.00    +0.000 OA
ENDBRANCH   1  22
TORSDOF 5
ENDMDL
MODEL 4
REMARK VINA RESULT:      -7.7      1.015      1.425
REMARK  Name = 
REMARK  6 active torsions:
REMARK  status: ('A' for Active; 'I' for Inactive)
REMARK    1  A    between atoms: C_1  and  O_2
REMARK    2  A    between atoms: O_2  and  C_3
REMARK    3  A    between atoms: C_6  and  C_7
REMARK    4  A    between atoms: C_15  and  C_16
REMARK    5  A    between atoms: C_18  and  C_19
REMARK    6  A    between atoms: C_19  and  N_20
REMARK                            x       y       z     vdW  Elec       q    Type
REMARK                         _______ _______ _______ _____ _____    ______ ____
ROOT
ATOM      1  C   UNL     1       6.391   6.086  17.227  0.00  0.00    +0.000 A 
ATOM      2  C   UNL     1       6.227   6.125  18.615  0.00  0.00    +0.000 A 
ATOM      3  C   UNL     1       5.137   5.501  19.227  0.00  0.00    +0.000 A 
ATOM      4  C   UNL     1       4.170   4.825  18.471  0.00  0.00    +0.000 A 
ATOM      5  C   UNL     1       4.355   4.812  17.072  0.00  0.00    +0.000 A 
ATOM      6  C   UNL     1       5.466   5.401  16.417  0.00  0.00    +0.000 A 
ENDROOT
BRANCH   4   7
ATOM      7  C   UNL     1       3.023   4.136  19.114  0.00  0.00    +0.000 A 
ATOM      8  C   UNL     1       2.720   4.326  20.478  0.00  0.00    +0.000 A 
ATOM      9  C   UNL     1       1.637   3.680  21.095  0.00  0.00    +0.000 A 
ATOM     10  C   UNL     1       0.823   2.832  20.350  0.00  0.00    +0.000 A 
ATOM     11  C   UNL     1       1.099   2.642  19.005  0.00  0.00    +0.000 A 
ATOM     12  F   UNL     1       0.315   1.832  18.282  0.00  0.00    +0.000 F 
ATOM     13  C   UNL     1       2.178   3.275  18.390  0.00  0.00    +0.000 A 
ENDBRANCH   4   7
BRANCH   6  14
ATOM     14  C   UNL     1       5.595   5.252  14.913  0.00  0.00    +0.000 C 
ATOM     15  C   UNL     1       6.952   4.970  14.311  0.00  0.00    +0.000 C 
ATOM     16  C   UNL     1       5.900   3.899  14.282  0.00  0.00    +0.000 C 
BRANCH  16  17
ATOM     17  C   UNL     1       5.314   3.521  12.958  0.00  0.00    +0.000 C 
BRANCH  17  18
ATOM     18  N   UNL     1       6.296   2.758  12.203  0.00  0.00    +0.000 NA
ATOM     19  H   UNL     1       7.190   3.244  12.240  0.00  0.00    +0.000 HD
ATOM     20  H   UNL     1       6.025   2.758  11.220  0.00  0.00    +0.000 HD
ENDBRANCH  17  18
ENDBRANCH  16  17
ENDBRANCH   6  14
BRANCH   1  22
ATOM     21  C   UNL     1       7.928   7.871  17.426  0.00  0.00    +0.000 C 
ATOM     22  O   UNL     1       7.561   6.653  16.788  0.00  0.00    +0.000 OA
ENDBRANCH   1  22
TORSDOF 5
ENDMDL
MODEL 5
REMARK VINA RESULT:      -7.5      0.981      1.005
REMARK  Name = 
REMARK  6 active torsions:
REMARK  status: ('A' for Active; 'I' for Inactive)
REMARK    1  A    between atoms: C_1  and  O_2
REMARK    2  A    between atoms: O_2  and  C_3
REMARK    3  A    between atoms: C_6  and  C_7
REMARK    4  A    between atoms: C_15  and  C_16
REMARK    5  A    between atoms: C_18  and  C_19
REMARK    6  A    between atoms: C_19  and  N_20
REMARK                            x       y       z     vdW  Elec       q    Type
REMARK                         _______ _______ _______ _____ _____    ______ ____
ROOT
ATOM      1  C   UNL     1       6.472   6.093  16.928  0.00  0.00    +0.000 A 
ATOM      2  C   UNL     1       6.176   6.103  18.294  0.00  0.00    +0.000 A 
ATOM      3  C   UNL     1       5.072   5.408  18.796  0.00  0.00    +0.000 A 
ATOM      4  C   UNL     1       4.221   4.690  17.945  0.00  0.00    +0.000 A 
ATOM      5  C   UNL     1       4.537   4.707  16.570  0.00  0.00    +0.000 A 
ATOM      6  C   UNL     1       5.669   5.368  16.028  0.00  0.00    +0.000 A 
ENDROOT
BRANCH   4   7
ATOM      7  C   UNL     1       3.061   3.926  18.471  0.00  0.00    +0.000 A 
ATOM      8  C   UNL     1       2.878   2.561  18.165  0.00  0.00    +0.000 A 
ATOM      9  C   UNL     1       1.786   1.831  18.657  0.00  0.00    +0.000 A 
ATOM     10  C   UNL     1       0.853   2.454  19.481  0.00  0.00    +0.000 A 
ATOM     11  C   UNL     1       1.022   3.791  19.801  0.00  0.00    +0.000 A 
ATOM     12  F   UNL     1       0.131   4.394  20.600  0.00  0.00    +0.000 F 
ATOM     13  C   UNL     1       2.102   4.524  19.308  0.00  0.00    +0.000 A 
ENDBRANCH   4   7
BRANCH   6  14
ATOM     14  C   UNL     1       5.946   5.248  14.542  0.00  0.00    +0.000 C 
ATOM     15  C   UNL     1       7.339   4.891  14.076  0.00  0.00    +0.000 C 
ATOM     16  C   UNL     1       6.229   3.894  13.903  0.00  0.00    +0.000 C 
BRANCH  16  17
ATOM     17  C   UNL     1       5.764   3.589  12.514  0.00  0.00    +0.000 C 
BRANCH  17  18
ATOM     18  N   UNL     1       6.415   2.374  12.050  0.00  0.00    +0.000 NA
ATOM     19  H   UNL     1       6.729   1.839  12.858  0.00  0.00    +0.000 HD
ATOM     20  H   UNL     1       7.264   2.630  11.546  0.00  0.00    +0.000 HD
ENDBRANCH  17  18
ENDBRANCH  16  17
ENDBRANCH   6  14
BRANCH   1  22
ATOM     21  C   UNL     1       7.883   7.953  17.297  0.00  0.00    +0.000 C 
ATOM     22  O   UNL     1       7.643   6.732  16.607  0.00  0.00    +0.000 OA
ENDBRANCH   1  22
TORSDOF 5
ENDMDL
MODEL 6
REMARK VINA RESULT:      -7.4      4.369      5.406
REMARK  Name = 
REMARK  6 active torsions:
REMARK  status: ('A' for Active; 'I' for Inactive)
REMARK    1  A    between atoms: C_1  and  O_2
REMARK    2  A    between atoms: O_2  and  C_3
REMARK    3  A    between atoms: C_6  and  C_7
REMARK    4  A    between atoms: C_15  and  C_16
REMARK    5  A    between atoms: C_18  and  C_19
REMARK    6  A    between atoms: C_19  and  N_20
REMARK                            x       y       z     vdW  Elec       q    Type
REMARK                         _______ _______ _______ _____ _____    ______ ____
ROOT
ATOM      1  C   UNL     1       3.272   4.175  19.216  0.00  0.00    +0.000 A 
ATOM      2  C   UNL     1       2.350   4.327  20.256  0.00  0.00    +0.000 A 
ATOM      3  C   UNL     1       1.815   5.581  20.564  0.00  0.00    +0.000 A 
ATOM      4  C   UNL     1       2.193   6.725  19.849  0.00  0.00    +0.000 A 
ATOM      5  C   UNL     1       3.134   6.543  18.813  0.00  0.00    +0.000 A 
ATOM      6  C   UNL     1       3.671   5.283  18.446  0.00  0.00    +0.000 A 
ENDROOT
BRANCH   4   7
ATOM      7  C   UNL     1       1.610   8.057  20.150  0.00  0.00    +0.000 A 
ATOM      8  C   UNL     1       1.447   9.033  19.145  0.00  0.00    +0.000 A 
ATOM      9  C   UNL     1       0.896  10.295  19.419  0.00  0.00    +0.000 A 
ATOM     10  C   UNL     1       0.485  10.603  20.713  0.00  0.00    +0.000 A 
ATOM     11  C   UNL     1       0.628   9.652  21.711  0.00  0.00    +0.000 A 
ATOM     12  F   UNL     1       0.228   9.941  22.956  0.00  0.00    +0.000 F 
ATOM     13  C   UNL     1       1.182   8.400  21.445  0.00  0.00    +0.000 A 
ENDBRANCH   4   7
BRANCH   6  14
ATOM     14  C   UNL     1       4.616   5.204  17.263  0.00  0.00    +0.000 C 
ATOM     15  C   UNL     1       5.202   6.478  16.698  0.00  0.00    +0.000 C 
ATOM     16  C   UNL     1       6.099   5.515  17.421  0.00  0.00    +0.000 C 
BRANCH  16  17
ATOM     17  C   UNL     1       7.127   4.774  16.626  0.00  0.00    +0.000 C 
BRANCH  17  18
ATOM     18  N   UNL     1       8.072   4.145  17.537  0.00  0.00    +0.000 NA
ATOM     19  H   UNL     1       7.552   3.626  18.243  0.00  0.00    +0.000 HD
ATOM     20  H   UNL     1       8.570   4.874  18.047  0.00  0.00    +0.000 HD
ENDBRANCH  17  18
ENDBRANCH  16  17
ENDBRANCH   6  14
BRANCH   1  22
ATOM     21  C   UNL     1       2.705   2.130  18.175  0.00  0.00    +0.000 C 
ATOM     22  O   UNL     1       3.623   2.871  18.970  0.00  0.00    +0.000 OA
ENDBRANCH   1  22
TORSDOF 5
ENDMDL
MODEL 7
REMARK VINA RESULT:      -7.4      1.146      1.327
REMARK  Name = 
REMARK  6 active torsions:
REMARK  status: ('A' for Active; 'I' for Inactive)
REMARK    1  A    between atoms: C_1  and  O_2
REMARK    2  A    between atoms: O_2  and  C_3
REMARK    3  A    between atoms: C_6  and  C_7
REMARK    4  A    between atoms: C_15  and  C_16
REMARK    5  A    between atoms: C_18  and  C_19
REMARK    6  A    between atoms: C_19  and  N_20
REMARK                            x       y       z     vdW  Elec       q    Type
REMARK                         _______ _______ _______ _____ _____    ______ ____
ROOT
ATOM      1  C   UNL     1       6.340   6.095  16.973  0.00  0.00    +0.000 A 
ATOM      2  C   UNL     1       5.722   6.581  18.128  0.00  0.00    +0.000 A 
ATOM      3  C   UNL     1       4.637   5.910  18.700  0.00  0.00    +0.000 A 
ATOM      4  C   UNL     1       4.129   4.736  18.129  0.00  0.00    +0.000 A 
ATOM      5  C   UNL     1       4.764   4.275  16.956  0.00  0.00    +0.000 A 
ATOM      6  C   UNL     1       5.890   4.906  16.368  0.00  0.00    +0.000 A 
ENDROOT
BRANCH   4   7
ATOM      7  C   UNL     1       2.994   4.001  18.743  0.00  0.00    +0.000 A 
ATOM      8  C   UNL     1       2.043   3.322  17.953  0.00  0.00    +0.000 A 
ATOM      9  C   UNL     1       0.968   2.624  18.523  0.00  0.00    +0.000 A 
ATOM     10  C   UNL     1       0.829   2.580  19.908  0.00  0.00    +0.000 A 
ATOM     11  C   UNL     1       1.761   3.232  20.700  0.00  0.00    +0.000 A 
ATOM     12  F   UNL     1       1.636   3.188  22.033  0.00  0.00    +0.000 F 
ATOM     13  C   UNL     1       2.826   3.934  20.138  0.00  0.00    +0.000 A 
ENDBRANCH   4   7
BRANCH   6  14
ATOM     14  C   UNL     1       6.535   4.271  15.152  0.00  0.00    +0.000 C 
ATOM     15  C   UNL     1       5.668   3.859  13.984  0.00  0.00    +0.000 C 
ATOM     16  C   UNL     1       6.612   5.016  13.825  0.00  0.00    +0.000 C 
BRANCH  16  17
ATOM     17  C   UNL     1       7.789   4.847  12.917  0.00  0.00    +0.000 C 
BRANCH  17  18
ATOM     18  N   UNL     1       8.726   5.937  13.144  0.00  0.00    +0.000 NA
ATOM     19  H   UNL     1       9.620   5.547  13.438  0.00  0.00    +0.000 HD
ATOM     20  H   UNL     1       8.397   6.492  13.934  0.00  0.00    +0.000 HD
ENDBRANCH  17  18
ENDBRANCH  16  17
ENDBRANCH   6  14
BRANCH   1  22
ATOM     21  C   UNL     1       7.852   7.837  17.489  0.00  0.00    +0.000 C 
ATOM     22  O   UNL     1       7.452   6.804  16.595  0.00  0.00    +0.000 OA
ENDBRANCH   1  22
TORSDOF 5
ENDMDL
MODEL 8
REMARK VINA RESULT:      -7.4      4.005      4.901
REMARK  Name = 
REMARK  6 active torsions:
REMARK  status: ('A' for Active; 'I' for Inactive)
REMARK    1  A    between atoms: C_1  and  O_2
REMARK    2  A    between atoms: O_2  and  C_3
REMARK    3  A    between atoms: C_6  and  C_7
REMARK    4  A    between atoms: C_15  and  C_16
REMARK    5  A    between atoms: C_18  and  C_19
REMARK    6  A    between atoms: C_19  and  N_20
REMARK                            x       y       z     vdW  Elec       q    Type
REMARK                         _______ _______ _______ _____ _____    ______ ____
ROOT
ATOM      1  C   UNL     1       3.802   4.116  18.573  0.00  0.00    +0.000 A 
ATOM      2  C   UNL     1       3.044   4.299  19.734  0.00  0.00    +0.000 A 
ATOM      3  C   UNL     1       2.431   5.525  20.006  0.00  0.00    +0.000 A 
ATOM      4  C   UNL     1       2.564   6.611  19.131  0.00  0.00    +0.000 A 
ATOM      5  C   UNL     1       3.345   6.401  17.974  0.00  0.00    +0.000 A 
ATOM      6  C   UNL     1       3.950   5.162  17.644  0.00  0.00    +0.000 A 
ENDROOT
BRANCH   4   7
ATOM      7  C   UNL     1       1.895   7.910  19.397  0.00  0.00    +0.000 A 
ATOM      8  C   UNL     1       1.719   8.869  18.378  0.00  0.00    +0.000 A 
ATOM      9  C   UNL     1       1.087  10.099  18.618  0.00  0.00    +0.000 A 
ATOM     10  C   UNL     1       0.605  10.391  19.891  0.00  0.00    +0.000 A 
ATOM     11  C   UNL     1       0.759   9.456  20.901  0.00  0.00    +0.000 A 
ATOM     12  F   UNL     1       0.291   9.728  22.127  0.00  0.00    +0.000 F 
ATOM     13  C   UNL     1       1.394   8.236  20.670  0.00  0.00    +0.000 A 
ENDBRANCH   4   7
BRANCH   6  14
ATOM     14  C   UNL     1       4.700   5.038  16.332  0.00  0.00    +0.000 C 
ATOM     15  C   UNL     1       5.186   6.288  15.636  0.00  0.00    +0.000 C 
ATOM     16  C   UNL     1       6.188   5.351  16.246  0.00  0.00    +0.000 C 
BRANCH  16  17
ATOM     17  C   UNL     1       7.083   4.580  15.328  0.00  0.00    +0.000 C 
BRANCH  17  18
ATOM     18  N   UNL     1       7.755   5.505  14.428  0.00  0.00    +0.000 NA
ATOM     19  H   UNL     1       8.103   4.986  13.623  0.00  0.00    +0.000 HD
ATOM     20  H   UNL     1       8.583   5.872  14.895  0.00  0.00    +0.000 HD
ENDBRANCH  17  18
ENDBRANCH  16  17
ENDBRANCH   6  14
BRANCH   1  22
ATOM     21  C   UNL     1       3.247   1.822  18.441  0.00  0.00    +0.000 C 
ATOM     22  O   UNL     1       4.250   2.831  18.398  0.00  0.00    +0.000 OA
ENDBRANCH   1  22
TORSDOF 5
ENDMDL
MODEL 9
REMARK VINA RESULT:      -7.4      4.526      5.591
REMARK  Name = 
REMARK  6 active torsions:
REMARK  status: ('A' for Active; 'I' for Inactive)
REMARK    1  A    between atoms: C_1  and  O_2
REMARK    2  A    between atoms: O_2  and  C_3
REMARK    3  A    between atoms: C_6  and  C_7
REMARK    4  A    between atoms: C_15  and  C_16
REMARK    5  A    between atoms: C_18  and  C_19
REMARK    6  A    between atoms: C_19  and  N_20
REMARK                            x       y       z     vdW  Elec       q    Type
REMARK                         _______ _______ _______ _____ _____    ______ ____
ROOT
ATOM      1  C   UNL     1       3.283   4.227  19.158  0.00  0.00    +0.000 A 
ATOM      2  C   UNL     1       2.448   4.394  20.267  0.00  0.00    +0.000 A 
ATOM      3  C   UNL     1       1.908   5.645  20.577  0.00  0.00    +0.000 A 
ATOM      4  C   UNL     1       2.192   6.772  19.794  0.00  0.00    +0.000 A 
ATOM      5  C   UNL     1       3.046   6.576  18.688  0.00  0.00    +0.000 A 
ATOM      6  C   UNL     1       3.584   5.316  18.319  0.00  0.00    +0.000 A 
ENDROOT
BRANCH   4   7
ATOM      7  C   UNL     1       1.601   8.100  20.099  0.00  0.00    +0.000 A 
ATOM      8  C   UNL     1       1.221   8.452  21.411  0.00  0.00    +0.000 A 
ATOM      9  C   UNL     1       0.662   9.705  21.710  0.00  0.00    +0.000 A 
ATOM     10  C   UNL     1       0.483  10.641  20.696  0.00  0.00    +0.000 A 
ATOM     11  C   UNL     1       0.862  10.316  19.404  0.00  0.00    +0.000 A 
ATOM     12  F   UNL     1       0.699  11.216  18.425  0.00  0.00    +0.000 F 
ATOM     13  C   UNL     1       1.410   9.070  19.099  0.00  0.00    +0.000 A 
ENDBRANCH   4   7
BRANCH   6  14
ATOM     14  C   UNL     1       4.426   5.218  17.062  0.00  0.00    +0.000 C 
ATOM     15  C   UNL     1       4.982   6.480  16.443  0.00  0.00    +0.000 C 
ATOM     16  C   UNL     1       5.922   5.507  17.096  0.00  0.00    +0.000 C 
BRANCH  16  17
ATOM     17  C   UNL     1       6.870   4.747  16.223  0.00  0.00    +0.000 C 
BRANCH  17  18
ATOM     18  N   UNL     1       7.944   4.208  17.042  0.00  0.00    +0.000 NA
ATOM     19  H   UNL     1       8.581   4.964  17.290  0.00  0.00    +0.000 HD
ATOM     20  H   UNL     1       8.495   3.562  16.477  0.00  0.00    +0.000 HD
ENDBRANCH  17  18
ENDBRANCH  16  17
ENDBRANCH   6  14
BRANCH   1  22
ATOM     21  C   UNL     1       2.586   2.047  18.568  0.00  0.00    +0.000 C 
ATOM     22  O   UNL     1       3.647   2.925  18.926  0.00  0.00    +0.000 OA
ENDBRANCH   1  22
TORSDOF 5
ENDMDL
