MODEL 1
REMARK VINA RESULT:      -8.4      0.000      0.000
REMARK  Name = 
REMARK  4 active torsions:
REMARK  status: ('A' for Active; 'I' for Inactive)
REMARK    1  A    between atoms: C_1  and  C_2
REMARK    2  A    between atoms: C_2  and  C_3
REMARK    3  A    between atoms: C_3  and  C_4
REMARK    4  A    between atoms: N_13  and  C_14
REMARK                            x       y       z     vdW  Elec       q    Type
REMARK                         _______ _______ _______ _____ _____    ______ ____
ROOT
ATOM      1  C   UNL     1       6.613   4.849  18.257  0.00  0.00    +0.000 C 
ATOM      2  C   UNL     1       6.721   4.484  16.784  0.00  0.00    +0.000 C 
ATOM      3  C   UNL     1       5.454   4.861  16.069  0.00  0.00    +0.000 C 
ATOM      4  O   UNL     1       5.475   5.398  14.962  0.00  0.00    +0.000 OA
ATOM      5  C   UNL     1       4.173   4.367  16.683  0.00  0.00    +0.000 C 
ATOM      6  C   UNL     1       4.165   4.718  18.164  0.00  0.00    +0.000 C 
ATOM      7  O   UNL     1       5.386   4.398  18.833  0.00  0.00    +0.000 OA
ATOM      8  C   UNL     1       3.706   6.211  18.333  0.00  0.00    +0.000 C 
ATOM      9  O   UNL     1       4.125   7.178  17.711  0.00  0.00    +0.000 OA
ATOM     10  N   UNL     1       2.727   6.247  19.315  0.00  0.00    +0.000 N 
ATOM     11  C   UNL     1       2.153   7.459  19.837  0.00  0.00    +0.000 C 
ATOM     12  C   UNL     1       2.298   4.961  19.639  0.00  0.00    +0.000 A 
ATOM     13  C   UNL     1       1.242   4.624  20.470  0.00  0.00    +0.000 A 
ATOM     14  C   UNL     1       0.935   3.275  20.621  0.00  0.00    +0.000 A 
ATOM     15  C   UNL     1       1.700   2.300  19.967  0.00  0.00    +0.000 A 
ATOM     16  C   UNL     1       2.785   2.661  19.151  0.00  0.00    +0.000 A 
ATOM     17 BR   UNL     1       3.812   1.260  18.401  0.00  0.00    +0.000 Br
ATOM     18  C   UNL     1       3.074   4.007  18.963  0.00  0.00    +0.000 A 
ENDROOT
BRANCH   1  19
ATOM     19  C   UNL     1       6.958   6.325  18.522  0.00  0.00    +0.000 C 
BRANCH  19  21
ATOM     20  C   UNL     1       7.907   8.490  17.645  0.00  0.00    +0.000 C 
ATOM     21  C   UNL     1       7.630   7.025  17.339  0.00  0.00    +0.000 C 
ENDBRANCH  19  21
ENDBRANCH   1  19
TORSDOF 2
ENDMDL
MODEL 2
REMARK VINA RESULT:      -8.4      1.171      1.326
REMARK  Name = 
REMARK  4 active torsions:
REMARK  status: ('A' for Active; 'I' for Inactive)
REMARK    1  A    between atoms: C_1  and  C_2
REMARK    2  A    between atoms: C_2  and  C_3
REMARK    3  A    between atoms: C_3  and  C_4
REMARK    4  A    between atoms: N_13  and  C_14
REMARK                            x       y       z     vdW  Elec       q    Type
REMARK                         _______ _______ _______ _____ _____    ______ ____
ROOT
ATOM      1  C   UNL     1       7.112   5.399  17.909  0.00  0.00    +0.000 C 
ATOM      2  C   UNL     1       7.246   4.350  16.814  0.00  0.00    +0.000 C 
ATOM      3  C   UNL     1       5.971   4.275  16.021  0.00  0.00    +0.000 C 
ATOM      4  O   UNL     1       5.982   4.186  14.793  0.00  0.00    +0.000 OA
ATOM      5  C   UNL     1       4.704   4.108  16.814  0.00  0.00    +0.000 C 
ATOM      6  C   UNL     1       4.671   5.152  17.921  0.00  0.00    +0.000 C 
ATOM      7  O   UNL     1       5.898   5.253  18.646  0.00  0.00    +0.000 OA
ATOM      8  C   UNL     1       4.157   6.512  17.326  0.00  0.00    +0.000 C 
ATOM      9  O   UNL     1       4.545   7.053  16.299  0.00  0.00    +0.000 OA
ATOM     10  N   UNL     1       3.169   6.999  18.170  0.00  0.00    +0.000 N 
ATOM     11  C   UNL     1       2.547   8.288  18.022  0.00  0.00    +0.000 C 
ATOM     12  C   UNL     1       2.784   6.033  19.098  0.00  0.00    +0.000 A 
ATOM     13  C   UNL     1       1.735   6.119  19.997  0.00  0.00    +0.000 A 
ATOM     14  C   UNL     1       1.476   5.016  20.806  0.00  0.00    +0.000 A 
ATOM     15  C   UNL     1       2.281   3.873  20.718  0.00  0.00    +0.000 A 
ATOM     16  C   UNL     1       3.359   3.816  19.819  0.00  0.00    +0.000 A 
ATOM     17 BR   UNL     1       4.442   2.265  19.858  0.00  0.00    +0.000 Br
ATOM     18  C   UNL     1       3.600   4.897  18.981  0.00  0.00    +0.000 A 
ENDROOT
BRANCH   1  19
ATOM     19  C   UNL     1       7.401   6.821  17.396  0.00  0.00    +0.000 C 
BRANCH  19  21
ATOM     20  C   UNL     1       8.217   9.142  17.946  0.00  0.00    +0.000 C 
ATOM     21  C   UNL     1       8.196   7.683  18.380  0.00  0.00    +0.000 C 
ENDBRANCH  19  21
ENDBRANCH   1  19
TORSDOF 2
ENDMDL
MODEL 3
REMARK VINA RESULT:      -7.2      2.381      3.788
REMARK  Name = 
REMARK  4 active torsions:
REMARK  status: ('A' for Active; 'I' for Inactive)
REMARK    1  A    between atoms: C_1  and  C_2
REMARK    2  A    between atoms: C_2  and  C_3
REMARK    3  A    between atoms: C_3  and  C_4
REMARK    4  A    between atoms: N_13  and  C_14
REMARK                            x       y       z     vdW  Elec       q    Type
REMARK                         _______ _______ _______ _____ _____    ______ ____
ROOT
ATOM      1  C   UNL     1       4.919   5.358  15.568  0.00  0.00    +0.000 C 
ATOM      2  C   UNL     1       5.905   6.517  15.539  0.00  0.00    +0.000 C 
ATOM      3  C   UNL     1       6.578   6.650  16.877  0.00  0.00    +0.000 C 
ATOM      4  O   UNL     1       7.785   6.865  16.971  0.00  0.00    +0.000 OA
ATOM      5  C   UNL     1       5.669   6.709  18.074  0.00  0.00    +0.000 C 
ATOM      6  C   UNL     1       4.678   5.555  18.001  0.00  0.00    +0.000 C 
ATOM      7  O   UNL     1       4.072   5.404  16.717  0.00  0.00    +0.000 OA
ATOM      8  C   UNL     1       5.367   4.255  18.550  0.00  0.00    +0.000 C 
ATOM      9  O   UNL     1       6.474   3.830  18.245  0.00  0.00    +0.000 OA
ATOM     10  N   UNL     1       4.500   3.664  19.458  0.00  0.00    +0.000 N 
ATOM     11  C   UNL     1       4.729   2.385  20.076  0.00  0.00    +0.000 C 
ATOM     12  C   UNL     1       3.447   4.521  19.772  0.00  0.00    +0.000 A 
ATOM     13  C   UNL     1       2.477   4.322  20.741  0.00  0.00    +0.000 A 
ATOM     14  C   UNL     1       1.539   5.330  20.942  0.00  0.00    +0.000 A 
ATOM     15  C   UNL     1       1.573   6.492  20.159  0.00  0.00    +0.000 A 
ATOM     16  C   UNL     1       2.548   6.662  19.162  0.00  0.00    +0.000 A 
ATOM     17 BR   UNL     1       2.437   8.222  18.095  0.00  0.00    +0.000 Br
ATOM     18  C   UNL     1       3.512   5.679  18.982  0.00  0.00    +0.000 A 
ENDROOT
BRANCH   1  19
ATOM     19  C   UNL     1       5.601   4.003  15.309  0.00  0.00    +0.000 C 
BRANCH  19  21
ATOM     20  C   UNL     1       5.933   3.555  12.850  0.00  0.00    +0.000 C 
ATOM     21  C   UNL     1       6.590   4.021  14.142  0.00  0.00    +0.000 C 
ENDBRANCH  19  21
ENDBRANCH   1  19
TORSDOF 2
ENDMDL
MODEL 4
REMARK VINA RESULT:      -6.2      7.476      9.563
REMARK  Name = 
REMARK  4 active torsions:
REMARK  status: ('A' for Active; 'I' for Inactive)
REMARK    1  A    between atoms: C_1  and  C_2
REMARK    2  A    between atoms: C_2  and  C_3
REMARK    3  A    between atoms: C_3  and  C_4
REMARK    4  A    between atoms: N_13  and  C_14
REMARK                            x       y       z     vdW  Elec       q    Type
REMARK                         _______ _______ _______ _____ _____    ______ ____
ROOT
ATOM      1  C   UNL     1       0.205  10.064  19.592  0.00  0.00    +0.000 C 
ATOM      2  C   UNL     1       1.195  10.782  18.687  0.00  0.00    +0.000 C 
ATOM      3  C   UNL     1       0.867  12.248  18.632  0.00  0.00    +0.000 C 
ATOM      4  O   UNL     1       1.746  13.107  18.687  0.00  0.00    +0.000 OA
ATOM      5  C   UNL     1      -0.559  12.598  18.302  0.00  0.00    +0.000 C 
ATOM      6  C   UNL     1      -1.486  11.799  19.207  0.00  0.00    +0.000 C 
ATOM      7  O   UNL     1      -1.147  10.414  19.292  0.00  0.00    +0.000 OA
ATOM      8  C   UNL     1      -1.597  12.525  20.595  0.00  0.00    +0.000 C 
ATOM      9  O   UNL     1      -0.670  12.948  21.274  0.00  0.00    +0.000 OA
ATOM     10  N   UNL     1      -2.942  12.613  20.925  0.00  0.00    +0.000 N 
ATOM     11  C   UNL     1      -3.433  13.104  22.184  0.00  0.00    +0.000 C 
ATOM     12  C   UNL     1      -3.745  12.274  19.837  0.00  0.00    +0.000 A 
ATOM     13  C   UNL     1      -5.123  12.384  19.758  0.00  0.00    +0.000 A 
ATOM     14  C   UNL     1      -5.737  12.045  18.555  0.00  0.00    +0.000 A 
ATOM     15  C   UNL     1      -4.970  11.583  17.478  0.00  0.00    +0.000 A 
ATOM     16  C   UNL     1      -3.576  11.452  17.587  0.00  0.00    +0.000 A 
ATOM     17 BR   UNL     1      -2.652  10.720  16.106  0.00  0.00    +0.000 Br
ATOM     18  C   UNL     1      -2.951  11.825  18.770  0.00  0.00    +0.000 A 
ENDROOT
BRANCH   1  19
ATOM     19  C   UNL     1       0.593  10.159  21.078  0.00  0.00    +0.000 C 
BRANCH  19  21
ATOM     20  C   UNL     1      -0.750   9.996  23.205  0.00  0.00    +0.000 C 
ATOM     21  C   UNL     1      -0.225   9.243  21.991  0.00  0.00    +0.000 C 
ENDBRANCH  19  21
ENDBRANCH   1  19
TORSDOF 2
ENDMDL
MODEL 5
REMARK VINA RESULT:      -6.2      8.046     11.647
REMARK  Name = 
REMARK  4 active torsions:
REMARK  status: ('A' for Active; 'I' for Inactive)
REMARK    1  A    between atoms: C_1  and  C_2
REMARK    2  A    between atoms: C_2  and  C_3
REMARK    3  A    between atoms: C_3  and  C_4
REMARK    4  A    between atoms: N_13  and  C_14
REMARK                            x       y       z     vdW  Elec       q    Type
REMARK                         _______ _______ _______ _____ _____    ______ ____
ROOT
ATOM      1  C   UNL     1       9.862  12.200  17.696  0.00  0.00    +0.000 C 
ATOM      2  C   UNL     1      11.197  11.721  18.247  0.00  0.00    +0.000 C 
ATOM      3  C   UNL     1      11.431  12.315  19.608  0.00  0.00    +0.000 C 
ATOM      4  O   UNL     1      11.884  11.644  20.534  0.00  0.00    +0.000 OA
ATOM      5  C   UNL     1      11.275  13.807  19.717  0.00  0.00    +0.000 C 
ATOM      6  C   UNL     1       9.946  14.213  19.095  0.00  0.00    +0.000 C 
ATOM      7  O   UNL     1       9.706  13.614  17.820  0.00  0.00    +0.000 OA
ATOM      8  C   UNL     1       8.800  13.986  20.144  0.00  0.00    +0.000 C 
ATOM      9  O   UNL     1       8.616  12.981  20.819  0.00  0.00    +0.000 OA
ATOM     10  N   UNL     1       8.023  15.135  20.182  0.00  0.00    +0.000 N 
ATOM     11  C   UNL     1       6.803  15.258  20.934  0.00  0.00    +0.000 C 
ATOM     12  C   UNL     1       8.641  16.178  19.493  0.00  0.00    +0.000 A 
ATOM     13  C   UNL     1       8.225  17.498  19.442  0.00  0.00    +0.000 A 
ATOM     14  C   UNL     1       9.016  18.405  18.743  0.00  0.00    +0.000 A 
ATOM     15  C   UNL     1      10.180  17.970  18.093  0.00  0.00    +0.000 A 
ATOM     16  C   UNL     1      10.569  16.621  18.133  0.00  0.00    +0.000 A 
ATOM     17 BR   UNL     1      12.099  16.128  17.135  0.00  0.00    +0.000 Br
ATOM     18  C   UNL     1       9.806  15.717  18.862  0.00  0.00    +0.000 A 
ENDROOT
BRANCH   1  19
ATOM     19  C   UNL     1       8.680  11.362  18.214  0.00  0.00    +0.000 C 
BRANCH  19  21
ATOM     20  C   UNL     1       8.201   8.900  17.957  0.00  0.00    +0.000 C 
ATOM     21  C   UNL     1       9.068   9.946  18.645  0.00  0.00    +0.000 C 
ENDBRANCH  19  21
ENDBRANCH   1  19
TORSDOF 2
ENDMDL
MODEL 6
REMARK VINA RESULT:      -5.9      7.256     10.426
REMARK  Name = 
REMARK  4 active torsions:
REMARK  status: ('A' for Active; 'I' for Inactive)
REMARK    1  A    between atoms: C_1  and  C_2
REMARK    2  A    between atoms: C_2  and  C_3
REMARK    3  A    between atoms: C_3  and  C_4
REMARK    4  A    between atoms: N_13  and  C_14
REMARK                            x       y       z     vdW  Elec       q    Type
REMARK                         _______ _______ _______ _____ _____    ______ ____
ROOT
ATOM      1  C   UNL     1       9.156  11.555  18.002  0.00  0.00    +0.000 C 
ATOM      2  C   UNL     1      10.667  11.586  17.826  0.00  0.00    +0.000 C 
ATOM      3  C   UNL     1      11.320  12.051  19.098  0.00  0.00    +0.000 C 
ATOM      4  O   UNL     1      12.333  11.508  19.536  0.00  0.00    +0.000 OA
ATOM      5  C   UNL     1      10.791  13.330  19.686  0.00  0.00    +0.000 C 
ATOM      6  C   UNL     1       9.274  13.245  19.776  0.00  0.00    +0.000 C 
ATOM      7  O   UNL     1       8.658  12.762  18.581  0.00  0.00    +0.000 OA
ATOM      8  C   UNL     1       8.883  12.451  21.073  0.00  0.00    +0.000 C 
ATOM      9  O   UNL     1       9.350  11.381  21.443  0.00  0.00    +0.000 OA
ATOM     10  N   UNL     1       7.909  13.178  21.741  0.00  0.00    +0.000 N 
ATOM     11  C   UNL     1       7.212  12.710  22.909  0.00  0.00    +0.000 C 
ATOM     12  C   UNL     1       7.785  14.457  21.202  0.00  0.00    +0.000 A 
ATOM     13  C   UNL     1       7.017  15.497  21.701  0.00  0.00    +0.000 A 
ATOM     14  C   UNL     1       7.072  16.723  21.045  0.00  0.00    +0.000 A 
ATOM     15  C   UNL     1       7.865  16.874  19.899  0.00  0.00    +0.000 A 
ATOM     16  C   UNL     1       8.613  15.799  19.391  0.00  0.00    +0.000 A 
ATOM     17 BR   UNL     1       9.564  16.086  17.780  0.00  0.00    +0.000 Br
ATOM     18  C   UNL     1       8.595  14.584  20.063  0.00  0.00    +0.000 A 
ENDROOT
BRANCH   1  19
ATOM     19  C   UNL     1       8.670  10.257  18.671  0.00  0.00    +0.000 C 
BRANCH  19  21
ATOM     20  C   UNL     1       8.178   7.819  18.257  0.00  0.00    +0.000 C 
ATOM     21  C   UNL     1       8.102   9.230  17.689  0.00  0.00    +0.000 C 
ENDBRANCH  19  21
ENDBRANCH   1  19
TORSDOF 2
ENDMDL
MODEL 7
REMARK VINA RESULT:      -5.7      7.214      9.424
REMARK  Name = 
REMARK  4 active torsions:
REMARK  status: ('A' for Active; 'I' for Inactive)
REMARK    1  A    between atoms: C_1  and  C_2
REMARK    2  A    between atoms: C_2  and  C_3
REMARK    3  A    between atoms: C_3  and  C_4
REMARK    4  A    between atoms: N_13  and  C_14
REMARK                            x       y       z     vdW  Elec       q    Type
REMARK                         _______ _______ _______ _____ _____    ______ ____
ROOT
ATOM      1  C   UNL     1       0.371   9.845  20.001  0.00  0.00    +0.000 C 
ATOM      2  C   UNL     1       1.262  10.338  18.870  0.00  0.00    +0.000 C 
ATOM      3  C   UNL     1       1.171  11.835  18.763  0.00  0.00    +0.000 C 
ATOM      4  O   UNL     1       2.170  12.529  18.582  0.00  0.00    +0.000 OA
ATOM      5  C   UNL     1      -0.216  12.411  18.684  0.00  0.00    +0.000 C 
ATOM      6  C   UNL     1      -1.059  11.828  19.810  0.00  0.00    +0.000 C 
ATOM      7  O   UNL     1      -0.938  10.410  19.938  0.00  0.00    +0.000 OA
ATOM      8  C   UNL     1      -0.770  12.625  21.132  0.00  0.00    +0.000 C 
ATOM      9  O   UNL     1       0.330  12.911  21.585  0.00  0.00    +0.000 OA
ATOM     10  N   UNL     1      -1.989  12.960  21.703  0.00  0.00    +0.000 N 
ATOM     11  C   UNL     1      -2.131  13.586  22.990  0.00  0.00    +0.000 C 
ATOM     12  C   UNL     1      -3.038  12.717  20.818  0.00  0.00    +0.000 A 
ATOM     13  C   UNL     1      -4.368  13.061  20.995  0.00  0.00    +0.000 A 
ATOM     14  C   UNL     1      -5.258  12.780  19.962  0.00  0.00    +0.000 A 
ATOM     15  C   UNL     1      -4.808  12.143  18.798  0.00  0.00    +0.000 A 
ATOM     16  C   UNL     1      -3.460  11.776  18.650  0.00  0.00    +0.000 A 
ATOM     17 BR   UNL     1      -2.984  10.829  17.082  0.00  0.00    +0.000 Br
ATOM     18  C   UNL     1      -2.558  12.089  19.659  0.00  0.00    +0.000 A 
ENDROOT
BRANCH   1  19
ATOM     19  C   UNL     1       1.061   9.939  21.374  0.00  0.00    +0.000 C 
BRANCH  19  21
ATOM     20  C   UNL     1      -0.569   9.746  23.287  0.00  0.00    +0.000 C 
ATOM     21  C   UNL     1       0.458   9.015  22.433  0.00  0.00    +0.000 C 
ENDBRANCH  19  21
ENDBRANCH   1  19
TORSDOF 2
ENDMDL
MODEL 8
REMARK VINA RESULT:      -5.7      7.232     10.205
REMARK  Name = 
REMARK  4 active torsions:
REMARK  status: ('A' for Active; 'I' for Inactive)
REMARK    1  A    between atoms: C_1  and  C_2
REMARK    2  A    between atoms: C_2  and  C_3
REMARK    3  A    between atoms: C_3  and  C_4
REMARK    4  A    between atoms: N_13  and  C_14
REMARK                            x       y       z     vdW  Elec       q    Type
REMARK                         _______ _______ _______ _____ _____    ______ ____
ROOT
ATOM      1  C   UNL     1      -0.819  11.821  22.763  0.00  0.00    +0.000 C 
ATOM      2  C   UNL     1      -2.159  12.540  22.688  0.00  0.00    +0.000 C 
ATOM      3  C   UNL     1      -2.590  12.668  21.253  0.00  0.00    +0.000 C 
ATOM      4  O   UNL     1      -3.754  12.463  20.911  0.00  0.00    +0.000 OA
ATOM      5  C   UNL     1      -1.579  13.253  20.306  0.00  0.00    +0.000 C 
ATOM      6  C   UNL     1      -0.255  12.523  20.481  0.00  0.00    +0.000 C 
ATOM      7  O   UNL     1       0.132  12.364  21.847  0.00  0.00    +0.000 OA
ATOM      8  C   UNL     1      -0.297  11.185  19.659  0.00  0.00    +0.000 C 
ATOM      9  O   UNL     1      -1.196  10.355  19.661  0.00  0.00    +0.000 OA
ATOM     10  N   UNL     1       0.872  11.105  18.916  0.00  0.00    +0.000 N 
ATOM     11  C   UNL     1       1.252   9.960  18.132  0.00  0.00    +0.000 C 
ATOM     12  C   UNL     1       1.560  12.317  18.938  0.00  0.00    +0.000 A 
ATOM     13  C   UNL     1       2.685  12.645  18.198  0.00  0.00    +0.000 A 
ATOM     14  C   UNL     1       3.193  13.935  18.320  0.00  0.00    +0.000 A 
ATOM     15  C   UNL     1       2.588  14.851  19.191  0.00  0.00    +0.000 A 
ATOM     16  C   UNL     1       1.465  14.490  19.954  0.00  0.00    +0.000 A 
ATOM     17 BR   UNL     1       0.794  15.773  21.173  0.00  0.00    +0.000 Br
ATOM     18  C   UNL     1       0.928  13.218  19.808  0.00  0.00    +0.000 A 
ENDROOT
BRANCH   1  19
ATOM     19  C   UNL     1      -0.972  10.290  22.720  0.00  0.00    +0.000 C 
BRANCH  19  21
ATOM     20  C   UNL     1       1.084   8.965  22.109  0.00  0.00    +0.000 C 
ATOM     21  C   UNL     1       0.247   9.532  23.248  0.00  0.00    +0.000 C 
ENDBRANCH  19  21
ENDBRANCH   1  19
TORSDOF 2
ENDMDL
MODEL 9
REMARK VINA RESULT:      -5.6      8.676     10.874
REMARK  Name = 
REMARK  4 active torsions:
REMARK  status: ('A' for Active; 'I' for Inactive)
REMARK    1  A    between atoms: C_1  and  C_2
REMARK    2  A    between atoms: C_2  and  C_3
REMARK    3  A    between atoms: C_3  and  C_4
REMARK    4  A    between atoms: N_13  and  C_14
REMARK                            x       y       z     vdW  Elec       q    Type
REMARK                         _______ _______ _______ _____ _____    ______ ____
ROOT
ATOM      1  C   UNL     1      -1.046  12.723  22.481  0.00  0.00    +0.000 C 
ATOM      2  C   UNL     1      -0.061  13.847  22.193  0.00  0.00    +0.000 C 
ATOM      3  C   UNL     1      -0.530  14.646  21.009  0.00  0.00    +0.000 C 
ATOM      4  O   UNL     1      -0.475  15.875  21.000  0.00  0.00    +0.000 OA
ATOM      5  C   UNL     1      -0.872  13.861  19.772  0.00  0.00    +0.000 C 
ATOM      6  C   UNL     1      -1.811  12.724  20.151  0.00  0.00    +0.000 C 
ATOM      7  O   UNL     1      -1.387  11.993  21.302  0.00  0.00    +0.000 OA
ATOM      8  C   UNL     1      -3.277  13.281  20.240  0.00  0.00    +0.000 C 
ATOM      9  O   UNL     1      -3.640  14.291  20.829  0.00  0.00    +0.000 OA
ATOM     10  N   UNL     1      -4.102  12.427  19.524  0.00  0.00    +0.000 N 
ATOM     11  C   UNL     1      -5.536  12.538  19.480  0.00  0.00    +0.000 C 
ATOM     12  C   UNL     1      -3.353  11.528  18.767  0.00  0.00    +0.000 A 
ATOM     13  C   UNL     1      -3.835  10.628  17.830  0.00  0.00    +0.000 A 
ATOM     14  C   UNL     1      -2.912   9.852  17.135  0.00  0.00    +0.000 A 
ATOM     15  C   UNL     1      -1.543   9.971  17.408  0.00  0.00    +0.000 A 
ATOM     16  C   UNL     1      -1.076  10.869  18.383  0.00  0.00    +0.000 A 
ATOM     17 BR   UNL     1       0.782  10.871  18.743  0.00  0.00    +0.000 Br
ATOM     18  C   UNL     1      -1.987  11.675  19.053  0.00  0.00    +0.000 A 
ENDROOT
BRANCH   1  19
ATOM     19  C   UNL     1      -2.241  13.194  23.330  0.00  0.00    +0.000 C 
BRANCH  19  21
ATOM     20  C   UNL     1      -4.294  12.563  24.651  0.00  0.00    +0.000 C 
ATOM     21  C   UNL     1      -3.239  12.083  23.663  0.00  0.00    +0.000 C 
ENDBRANCH  19  21
ENDBRANCH   1  19
TORSDOF 2
ENDMDL
