MODEL 1
REMARK VINA RESULT:      -5.9      0.000      0.000
REMARK  Name = 
REMARK  13 active torsions:
REMARK  status: ('A' for Active; 'I' for Inactive)
REMARK    1  A    between atoms: C_1  and  C_2
REMARK    2  A    between atoms: C_2  and  C_3
REMARK    3  A    between atoms: C_2  and  S_4
REMARK    4  A    between atoms: C_2  and  CA_12
REMARK    5  A    between atoms: S_4  and  SG_5
REMARK    6  A    between atoms: SG_5  and  CB_6
REMARK    7  A    between atoms: CB_6  and  CA_7
REMARK    8  A    between atoms: CA_7  and  N_8
REMARK    9  A    between atoms: CA_7  and  C_9
REMARK   10  A    between atoms: C_9  and  OXT_11
REMARK   11  A    between atoms: CA_12  and  N_13
REMARK   12  A    between atoms: CA_12  and  C_14
REMARK   13  A    between atoms: C_14  and  OXT_16
REMARK                            x       y       z     vdW  Elec       q    Type
REMARK                         _______ _______ _______ _____ _____    ______ ____
ROOT
ATOM      1  C   UNL     1       2.490   5.351  19.724  0.00  0.00    +0.000 C 
ATOM      2  C   UNL     1       2.543   4.055  18.900  0.00  0.00    +0.000 C 
ATOM      3  C   UNL     1       1.325   3.976  17.960  0.00  0.00    +0.000 C 
ENDROOT
BRANCH   2   4
ATOM      4  S   UNL     1       4.091   4.072  17.822  0.00  0.00    +0.000 S 
BRANCH   4   5
ATOM      5  SG  UNL     1       4.611   6.052  17.606  0.00  0.00    +0.000 S 
BRANCH   5   6
ATOM      6  CB  UNL     1       6.312   5.994  16.916  0.00  0.00    +0.000 C 
BRANCH   6   7
ATOM      7  CA  UNL     1       6.770   4.608  16.439  0.00  0.00    +0.000 C 
BRANCH   7   8
ATOM      8  N   UNL     1       8.030   4.217  17.129  0.00  0.00    +0.000 NA
ATOM      9  H1  UNL     1       7.967   4.529  18.102  0.00  0.00    +0.000 HD
ATOM     10  H2  UNL     1       8.787   4.795  16.749  0.00  0.00    +0.000 HD
ENDBRANCH   7   8
BRANCH   7  11
ATOM     11  C   UNL     1       7.004   4.605  14.924  0.00  0.00    +0.000 C 
ATOM     12  O   UNL     1       7.686   5.431  14.334  0.00  0.00    +0.000 OA
BRANCH  11  13
ATOM     13  OXT UNL     1       6.407   3.573  14.278  0.00  0.00    +0.000 OA
ATOM     14  HXT UNL     1       6.539   3.589  13.307  0.00  0.00    +0.000 HD
ENDBRANCH  11  13
ENDBRANCH   7  11
ENDBRANCH   6   7
ENDBRANCH   5   6
ENDBRANCH   4   5
ENDBRANCH   2   4
BRANCH   2  15
ATOM     15  CA  UNL     1       2.662   2.784  19.811  0.00  0.00    +0.000 C 
BRANCH  15  16
ATOM     16  N   UNL     1       4.079   2.361  20.117  0.00  0.00    +0.000 NA
ATOM     17  H1  UNL     1       4.049   1.480  20.642  0.00  0.00    +0.000 HD
ATOM     18  H2  UNL     1       4.454   3.033  20.797  0.00  0.00    +0.000 HD
ENDBRANCH  15  16
BRANCH  15  19
ATOM     19  C   UNL     1       1.935   2.900  21.174  0.00  0.00    +0.000 C 
ATOM     20  O   UNL     1       2.451   3.081  22.262  0.00  0.00    +0.000 OA
BRANCH  19  21
ATOM     21  OXT UNL     1       0.585   2.826  21.008  0.00  0.00    +0.000 OA
ATOM     22  HXT UNL     1       0.424   2.092  20.362  0.00  0.00    +0.000 HD
ENDBRANCH  19  21
ENDBRANCH  15  19
ENDBRANCH   2  15
TORSDOF 11
ENDMDL
MODEL 2
REMARK VINA RESULT:      -5.9      2.138      2.422
REMARK  Name = 
REMARK  13 active torsions:
REMARK  status: ('A' for Active; 'I' for Inactive)
REMARK    1  A    between atoms: C_1  and  C_2
REMARK    2  A    between atoms: C_2  and  C_3
REMARK    3  A    between atoms: C_2  and  S_4
REMARK    4  A    between atoms: C_2  and  CA_12
REMARK    5  A    between atoms: S_4  and  SG_5
REMARK    6  A    between atoms: SG_5  and  CB_6
REMARK    7  A    between atoms: CB_6  and  CA_7
REMARK    8  A    between atoms: CA_7  and  N_8
REMARK    9  A    between atoms: CA_7  and  C_9
REMARK   10  A    between atoms: C_9  and  OXT_11
REMARK   11  A    between atoms: CA_12  and  N_13
REMARK   12  A    between atoms: CA_12  and  C_14
REMARK   13  A    between atoms: C_14  and  OXT_16
REMARK                            x       y       z     vdW  Elec       q    Type
REMARK                         _______ _______ _______ _____ _____    ______ ____
ROOT
ATOM      1  C   UNL     1       1.357   5.074  20.448  0.00  0.00    +0.000 C 
ATOM      2  C   UNL     1       1.925   3.862  19.693  0.00  0.00    +0.000 C 
ATOM      3  C   UNL     1       0.803   2.851  19.395  0.00  0.00    +0.000 C 
ENDROOT
BRANCH   2   4
ATOM      4  S   UNL     1       2.625   4.439  18.039  0.00  0.00    +0.000 S 
BRANCH   4   5
ATOM      5  SG  UNL     1       3.457   6.289  18.387  0.00  0.00    +0.000 S 
BRANCH   5   6
ATOM      6  CB  UNL     1       5.064   6.231  17.500  0.00  0.00    +0.000 C 
BRANCH   6   7
ATOM      7  CA  UNL     1       5.897   4.967  17.754  0.00  0.00    +0.000 C 
BRANCH   7   8
ATOM      8  N   UNL     1       6.269   4.874  19.191  0.00  0.00    +0.000 NA
ATOM      9  H1  UNL     1       7.275   4.692  19.246  0.00  0.00    +0.000 HD
ATOM     10  H2  UNL     1       5.857   4.014  19.567  0.00  0.00    +0.000 HD
ENDBRANCH   7   8
BRANCH   7  11
ATOM     11  C   UNL     1       7.174   4.979  16.903  0.00  0.00    +0.000 C 
ATOM     12  O   UNL     1       7.340   5.696  15.927  0.00  0.00    +0.000 OA
BRANCH  11  13
ATOM     13  OXT UNL     1       8.138   4.135  17.348  0.00  0.00    +0.000 OA
ATOM     14  HXT UNL     1       7.803   3.242  17.577  0.00  0.00    +0.000 HD
ENDBRANCH  11  13
ENDBRANCH   7  11
ENDBRANCH   6   7
ENDBRANCH   5   6
ENDBRANCH   4   5
ENDBRANCH   2   4
BRANCH   2  15
ATOM     15  CA  UNL     1       3.120   3.199  20.463  0.00  0.00    +0.000 C 
BRANCH  15  16
ATOM     16  N   UNL     1       2.736   2.531  21.762  0.00  0.00    +0.000 NA
ATOM     17  H1  UNL     1       3.583   2.136  22.187  0.00  0.00    +0.000 HD
ATOM     18  H2  UNL     1       2.180   1.703  21.522  0.00  0.00    +0.000 HD
ENDBRANCH  15  16
BRANCH  15  19
ATOM     19  C   UNL     1       3.907   2.145  19.644  0.00  0.00    +0.000 C 
ATOM     20  O   UNL     1       3.457   1.398  18.795  0.00  0.00    +0.000 OA
BRANCH  19  21
ATOM     21  OXT UNL     1       5.232   2.185  19.956  0.00  0.00    +0.000 OA
ATOM     22  HXT UNL     1       5.563   3.068  19.653  0.00  0.00    +0.000 HD
ENDBRANCH  19  21
ENDBRANCH  15  19
ENDBRANCH   2  15
TORSDOF 11
ENDMDL
MODEL 3
REMARK VINA RESULT:      -5.8      2.067      2.367
REMARK  Name = 
REMARK  13 active torsions:
REMARK  status: ('A' for Active; 'I' for Inactive)
REMARK    1  A    between atoms: C_1  and  C_2
REMARK    2  A    between atoms: C_2  and  C_3
REMARK    3  A    between atoms: C_2  and  S_4
REMARK    4  A    between atoms: C_2  and  CA_12
REMARK    5  A    between atoms: S_4  and  SG_5
REMARK    6  A    between atoms: SG_5  and  CB_6
REMARK    7  A    between atoms: CB_6  and  CA_7
REMARK    8  A    between atoms: CA_7  and  N_8
REMARK    9  A    between atoms: CA_7  and  C_9
REMARK   10  A    between atoms: C_9  and  OXT_11
REMARK   11  A    between atoms: CA_12  and  N_13
REMARK   12  A    between atoms: CA_12  and  C_14
REMARK   13  A    between atoms: C_14  and  OXT_16
REMARK                            x       y       z     vdW  Elec       q    Type
REMARK                         _______ _______ _______ _____ _____    ______ ____
ROOT
ATOM      1  C   UNL     1       2.467   4.230  20.590  0.00  0.00    +0.000 C 
ATOM      2  C   UNL     1       2.258   3.328  19.365  0.00  0.00    +0.000 C 
ATOM      3  C   UNL     1       0.841   2.723  19.389  0.00  0.00    +0.000 C 
ENDROOT
BRANCH   2   4
ATOM      4  S   UNL     1       2.402   4.370  17.800  0.00  0.00    +0.000 S 
BRANCH   4   5
ATOM      5  SG  UNL     1       3.510   6.025  18.319  0.00  0.00    +0.000 S 
BRANCH   5   6
ATOM      6  CB  UNL     1       4.660   6.255  16.906  0.00  0.00    +0.000 C 
BRANCH   6   7
ATOM      7  CA  UNL     1       6.135   5.963  17.217  0.00  0.00    +0.000 C 
BRANCH   7   8
ATOM      8  N   UNL     1       6.977   7.141  16.873  0.00  0.00    +0.000 NA
ATOM      9  H1  UNL     1       6.779   7.880  17.553  0.00  0.00    +0.000 HD
ATOM     10  H2  UNL     1       6.622   7.533  15.994  0.00  0.00    +0.000 HD
ENDBRANCH   7   8
BRANCH   7  11
ATOM     11  C   UNL     1       6.626   4.745  16.427  0.00  0.00    +0.000 C 
ATOM     12  O   UNL     1       7.593   4.758  15.678  0.00  0.00    +0.000 OA
BRANCH  11  13
ATOM     13  OXT UNL     1       5.907   3.618  16.651  0.00  0.00    +0.000 OA
ATOM     14  HXT UNL     1       6.087   3.204  17.521  0.00  0.00    +0.000 HD
ENDBRANCH  11  13
ENDBRANCH   7  11
ENDBRANCH   6   7
ENDBRANCH   5   6
ENDBRANCH   4   5
ENDBRANCH   2   4
BRANCH   2  15
ATOM     15  CA  UNL     1       3.364   2.222  19.254  0.00  0.00    +0.000 C 
BRANCH  15  16
ATOM     16  N   UNL     1       3.693   1.802  17.842  0.00  0.00    +0.000 NA
ATOM     17  H1  UNL     1       4.672   2.045  17.650  0.00  0.00    +0.000 HD
ATOM     18  H2  UNL     1       3.166   2.420  17.213  0.00  0.00    +0.000 HD
ENDBRANCH  15  16
BRANCH  15  19
ATOM     19  C   UNL     1       4.710   2.589  19.928  0.00  0.00    +0.000 C 
ATOM     20  O   UNL     1       5.492   3.451  19.571  0.00  0.00    +0.000 OA
BRANCH  19  21
ATOM     21  OXT UNL     1       4.908   1.840  21.048  0.00  0.00    +0.000 OA
ATOM     22  HXT UNL     1       4.418   2.296  21.778  0.00  0.00    +0.000 HD
ENDBRANCH  19  21
ENDBRANCH  15  19
ENDBRANCH   2  15
TORSDOF 11
ENDMDL
MODEL 4
REMARK VINA RESULT:      -5.8      2.282      6.125
REMARK  Name = 
REMARK  13 active torsions:
REMARK  status: ('A' for Active; 'I' for Inactive)
REMARK    1  A    between atoms: C_1  and  C_2
REMARK    2  A    between atoms: C_2  and  C_3
REMARK    3  A    between atoms: C_2  and  S_4
REMARK    4  A    between atoms: C_2  and  CA_12
REMARK    5  A    between atoms: S_4  and  SG_5
REMARK    6  A    between atoms: SG_5  and  CB_6
REMARK    7  A    between atoms: CB_6  and  CA_7
REMARK    8  A    between atoms: CA_7  and  N_8
REMARK    9  A    between atoms: CA_7  and  C_9
REMARK   10  A    between atoms: C_9  and  OXT_11
REMARK   11  A    between atoms: CA_12  and  N_13
REMARK   12  A    between atoms: CA_12  and  C_14
REMARK   13  A    between atoms: C_14  and  OXT_16
REMARK                            x       y       z     vdW  Elec       q    Type
REMARK                         _______ _______ _______ _____ _____    ______ ____
ROOT
ATOM      1  C   UNL     1       5.180   3.953  16.179  0.00  0.00    +0.000 C 
ATOM      2  C   UNL     1       4.894   5.080  17.183  0.00  0.00    +0.000 C 
ATOM      3  C   UNL     1       5.113   6.451  16.515  0.00  0.00    +0.000 C 
ENDROOT
BRANCH   2   4
ATOM      4  S   UNL     1       3.086   4.990  17.713  0.00  0.00    +0.000 S 
BRANCH   4   5
ATOM      5  SG  UNL     1       2.927   6.167  19.394  0.00  0.00    +0.000 S 
BRANCH   5   6
ATOM      6  CB  UNL     1       1.936   5.152  20.559  0.00  0.00    +0.000 C 
BRANCH   6   7
ATOM      7  CA  UNL     1       1.796   3.673  20.171  0.00  0.00    +0.000 C 
BRANCH   7   8
ATOM      8  N   UNL     1       0.363   3.273  20.173  0.00  0.00    +0.000 NA
ATOM      9  H1  UNL     1      -0.201   4.119  20.048  0.00  0.00    +0.000 HD
ATOM     10  H2  UNL     1       0.123   2.972  21.123  0.00  0.00    +0.000 HD
ENDBRANCH   7   8
BRANCH   7  11
ATOM     11  C   UNL     1       2.569   2.780  21.149  0.00  0.00    +0.000 C 
ATOM     12  O   UNL     1       3.695   2.350  20.941  0.00  0.00    +0.000 OA
BRANCH  11  13
ATOM     13  OXT UNL     1       1.903   2.522  22.302  0.00  0.00    +0.000 OA
ATOM     14  HXT UNL     1       1.034   2.973  22.362  0.00  0.00    +0.000 HD
ENDBRANCH  11  13
ENDBRANCH   7  11
ENDBRANCH   6   7
ENDBRANCH   5   6
ENDBRANCH   4   5
ENDBRANCH   2   4
BRANCH   2  15
ATOM     15  CA  UNL     1       5.740   4.928  18.494  0.00  0.00    +0.000 C 
BRANCH  15  16
ATOM     16  N   UNL     1       5.646   3.569  19.147  0.00  0.00    +0.000 NA
ATOM     17  H1  UNL     1       5.652   2.854  18.412  0.00  0.00    +0.000 HD
ATOM     18  H2  UNL     1       4.704   3.493  19.549  0.00  0.00    +0.000 HD
ENDBRANCH  15  16
BRANCH  15  19
ATOM     19  C   UNL     1       7.250   5.229  18.324  0.00  0.00    +0.000 C 
ATOM     20  O   UNL     1       7.811   6.288  18.541  0.00  0.00    +0.000 OA
BRANCH  19  21
ATOM     21  OXT UNL     1       7.924   4.110  17.938  0.00  0.00    +0.000 OA
ATOM     22  HXT UNL     1       8.257   3.685  18.768  0.00  0.00    +0.000 HD
ENDBRANCH  19  21
ENDBRANCH  15  19
ENDBRANCH   2  15
TORSDOF 11
ENDMDL
MODEL 5
REMARK VINA RESULT:      -5.8      1.698      1.795
REMARK  Name = 
REMARK  13 active torsions:
REMARK  status: ('A' for Active; 'I' for Inactive)
REMARK    1  A    between atoms: C_1  and  C_2
REMARK    2  A    between atoms: C_2  and  C_3
REMARK    3  A    between atoms: C_2  and  S_4
REMARK    4  A    between atoms: C_2  and  CA_12
REMARK    5  A    between atoms: S_4  and  SG_5
REMARK    6  A    between atoms: SG_5  and  CB_6
REMARK    7  A    between atoms: CB_6  and  CA_7
REMARK    8  A    between atoms: CA_7  and  N_8
REMARK    9  A    between atoms: CA_7  and  C_9
REMARK   10  A    between atoms: C_9  and  OXT_11
REMARK   11  A    between atoms: CA_12  and  N_13
REMARK   12  A    between atoms: CA_12  and  C_14
REMARK   13  A    between atoms: C_14  and  OXT_16
REMARK                            x       y       z     vdW  Elec       q    Type
REMARK                         _______ _______ _______ _____ _____    ______ ____
ROOT
ATOM      1  C   UNL     1       2.086   5.355  20.134  0.00  0.00    +0.000 C 
ATOM      2  C   UNL     1       2.834   4.359  19.235  0.00  0.00    +0.000 C 
ATOM      3  C   UNL     1       2.233   4.371  17.817  0.00  0.00    +0.000 C 
ENDROOT
BRANCH   2   4
ATOM      4  S   UNL     1       4.638   4.890  19.092  0.00  0.00    +0.000 S 
BRANCH   4   5
ATOM      5  SG  UNL     1       4.699   6.289  17.583  0.00  0.00    +0.000 S 
BRANCH   5   6
ATOM      6  CB  UNL     1       6.373   6.087  16.854  0.00  0.00    +0.000 C 
BRANCH   6   7
ATOM      7  CA  UNL     1       6.727   4.653  16.435  0.00  0.00    +0.000 C 
BRANCH   7   8
ATOM      8  N   UNL     1       7.949   4.195  17.149  0.00  0.00    +0.000 NA
ATOM      9  H1  UNL     1       8.013   4.713  18.030  0.00  0.00    +0.000 HD
ATOM     10  H2  UNL     1       8.763   4.529  16.623  0.00  0.00    +0.000 HD
ENDBRANCH   7   8
BRANCH   7  11
ATOM     11  C   UNL     1       6.968   4.573  14.922  0.00  0.00    +0.000 C 
ATOM     12  O   UNL     1       7.599   5.404  14.284  0.00  0.00    +0.000 OA
BRANCH  11  13
ATOM     13  OXT UNL     1       6.440   3.468  14.339  0.00  0.00    +0.000 OA
ATOM     14  HXT UNL     1       6.441   3.503  13.360  0.00  0.00    +0.000 HD
ENDBRANCH  11  13
ENDBRANCH   7  11
ENDBRANCH   6   7
ENDBRANCH   5   6
ENDBRANCH   4   5
ENDBRANCH   2   4
BRANCH   2  15
ATOM     15  CA  UNL     1       2.854   2.916  19.849  0.00  0.00    +0.000 C 
BRANCH  15  16
ATOM     16  N   UNL     1       1.728   2.021  19.386  0.00  0.00    +0.000 NA
ATOM     17  H1  UNL     1       1.811   1.892  18.371  0.00  0.00    +0.000 HD
ATOM     18  H2  UNL     1       0.857   2.555  19.489  0.00  0.00    +0.000 HD
ENDBRANCH  15  16
BRANCH  15  19
ATOM     19  C   UNL     1       4.166   2.130  19.604  0.00  0.00    +0.000 C 
ATOM     20  O   UNL     1       5.093   2.000  20.382  0.00  0.00    +0.000 OA
BRANCH  19  21
ATOM     21  OXT UNL     1       4.146   1.528  18.382  0.00  0.00    +0.000 OA
ATOM     22  HXT UNL     1       3.631   2.126  17.785  0.00  0.00    +0.000 HD
ENDBRANCH  19  21
ENDBRANCH  15  19
ENDBRANCH   2  15
TORSDOF 11
ENDMDL
MODEL 6
REMARK VINA RESULT:      -5.8      1.764      6.901
REMARK  Name = 
REMARK  13 active torsions:
REMARK  status: ('A' for Active; 'I' for Inactive)
REMARK    1  A    between atoms: C_1  and  C_2
REMARK    2  A    between atoms: C_2  and  C_3
REMARK    3  A    between atoms: C_2  and  S_4
REMARK    4  A    between atoms: C_2  and  CA_12
REMARK    5  A    between atoms: S_4  and  SG_5
REMARK    6  A    between atoms: SG_5  and  CB_6
REMARK    7  A    between atoms: CB_6  and  CA_7
REMARK    8  A    between atoms: CA_7  and  N_8
REMARK    9  A    between atoms: CA_7  and  C_9
REMARK   10  A    between atoms: C_9  and  OXT_11
REMARK   11  A    between atoms: CA_12  and  N_13
REMARK   12  A    between atoms: CA_12  and  C_14
REMARK   13  A    between atoms: C_14  and  OXT_16
REMARK                            x       y       z     vdW  Elec       q    Type
REMARK                         _______ _______ _______ _____ _____    ______ ____
ROOT
ATOM      1  C   UNL     1       7.167   7.027  17.440  0.00  0.00    +0.000 C 
ATOM      2  C   UNL     1       6.569   5.621  17.283  0.00  0.00    +0.000 C 
ATOM      3  C   UNL     1       7.648   4.554  17.553  0.00  0.00    +0.000 C 
ENDROOT
BRANCH   2   4
ATOM      4  S   UNL     1       5.204   5.384  18.563  0.00  0.00    +0.000 S 
BRANCH   4   5
ATOM      5  SG  UNL     1       4.118   3.751  17.939  0.00  0.00    +0.000 S 
BRANCH   5   6
ATOM      6  CB  UNL     1       3.758   2.835  19.490  0.00  0.00    +0.000 C 
BRANCH   6   7
ATOM      7  CA  UNL     1       2.291   2.876  19.940  0.00  0.00    +0.000 C 
BRANCH   7   8
ATOM      8  N   UNL     1       1.470   3.628  18.954  0.00  0.00    +0.000 NA
ATOM      9  H1  UNL     1       2.062   3.838  18.145  0.00  0.00    +0.000 HD
ATOM     10  H2  UNL     1       1.279   4.556  19.347  0.00  0.00    +0.000 HD
ENDBRANCH   7   8
BRANCH   7  11
ATOM     11  C   UNL     1       2.164   3.545  21.315  0.00  0.00    +0.000 C 
ATOM     12  O   UNL     1       1.881   2.948  22.344  0.00  0.00    +0.000 OA
BRANCH  11  13
ATOM     13  OXT UNL     1       2.426   4.875  21.304  0.00  0.00    +0.000 OA
ATOM     14  HXT UNL     1       2.718   5.211  20.431  0.00  0.00    +0.000 HD
ENDBRANCH  11  13
ENDBRANCH   7  11
ENDBRANCH   6   7
ENDBRANCH   5   6
ENDBRANCH   4   5
ENDBRANCH   2   4
BRANCH   2  15
ATOM     15  CA  UNL     1       5.891   5.424  15.883  0.00  0.00    +0.000 C 
BRANCH  15  16
ATOM     16  N   UNL     1       5.277   6.676  15.302  0.00  0.00    +0.000 NA
ATOM     17  H1  UNL     1       4.261   6.635  15.443  0.00  0.00    +0.000 HD
ATOM     18  H2  UNL     1       5.379   6.617  14.282  0.00  0.00    +0.000 HD
ENDBRANCH  15  16
BRANCH  15  19
ATOM     19  C   UNL     1       6.826   4.847  14.790  0.00  0.00    +0.000 C 
ATOM     20  O   UNL     1       7.803   5.389  14.307  0.00  0.00    +0.000 OA
BRANCH  19  21
ATOM     21  OXT UNL     1       6.446   3.584  14.450  0.00  0.00    +0.000 OA
ATOM     22  HXT UNL     1       6.194   3.618  13.492  0.00  0.00    +0.000 HD
ENDBRANCH  19  21
ENDBRANCH  15  19
ENDBRANCH   2  15
TORSDOF 11
ENDMDL
MODEL 7
REMARK VINA RESULT:      -5.8      1.938      5.901
REMARK  Name = 
REMARK  13 active torsions:
REMARK  status: ('A' for Active; 'I' for Inactive)
REMARK    1  A    between atoms: C_1  and  C_2
REMARK    2  A    between atoms: C_2  and  C_3
REMARK    3  A    between atoms: C_2  and  S_4
REMARK    4  A    between atoms: C_2  and  CA_12
REMARK    5  A    between atoms: S_4  and  SG_5
REMARK    6  A    between atoms: SG_5  and  CB_6
REMARK    7  A    between atoms: CB_6  and  CA_7
REMARK    8  A    between atoms: CA_7  and  N_8
REMARK    9  A    between atoms: CA_7  and  C_9
REMARK   10  A    between atoms: C_9  and  OXT_11
REMARK   11  A    between atoms: CA_12  and  N_13
REMARK   12  A    between atoms: CA_12  and  C_14
REMARK   13  A    between atoms: C_14  and  OXT_16
REMARK                            x       y       z     vdW  Elec       q    Type
REMARK                         _______ _______ _______ _____ _____    ______ ____
ROOT
ATOM      1  C   UNL     1       5.152   6.656  15.458  0.00  0.00    +0.000 C 
ATOM      2  C   UNL     1       5.446   5.797  16.696  0.00  0.00    +0.000 C 
ATOM      3  C   UNL     1       6.152   6.644  17.773  0.00  0.00    +0.000 C 
ENDROOT
BRANCH   2   4
ATOM      4  S   UNL     1       3.817   5.191  17.429  0.00  0.00    +0.000 S 
BRANCH   4   5
ATOM      5  SG  UNL     1       4.049   5.269  19.472  0.00  0.00    +0.000 S 
BRANCH   5   6
ATOM      6  CB  UNL     1       3.055   3.854  20.089  0.00  0.00    +0.000 C 
BRANCH   6   7
ATOM      7  CA  UNL     1       3.709   2.476  19.909  0.00  0.00    +0.000 C 
BRANCH   7   8
ATOM      8  N   UNL     1       5.177   2.625  19.717  0.00  0.00    +0.000 NA
ATOM      9  H1  UNL     1       5.647   2.145  20.491  0.00  0.00    +0.000 HD
ATOM     10  H2  UNL     1       5.416   3.609  19.876  0.00  0.00    +0.000 HD
ENDBRANCH   7   8
BRANCH   7  11
ATOM     11  C   UNL     1       3.114   1.747  18.698  0.00  0.00    +0.000 C 
ATOM     12  O   UNL     1       2.010   1.985  18.229  0.00  0.00    +0.000 OA
BRANCH  11  13
ATOM     13  OXT UNL     1       3.940   0.818  18.157  0.00  0.00    +0.000 OA
ATOM     14  HXT UNL     1       4.803   0.744  18.616  0.00  0.00    +0.000 HD
ENDBRANCH  11  13
ENDBRANCH   7  11
ENDBRANCH   6   7
ENDBRANCH   5   6
ENDBRANCH   4   5
ENDBRANCH   2   4
BRANCH   2  15
ATOM     15  CA  UNL     1       6.266   4.509  16.337  0.00  0.00    +0.000 C 
BRANCH  15  16
ATOM     16  N   UNL     1       5.504   3.215  16.495  0.00  0.00    +0.000 NA
ATOM     17  H1  UNL     1       4.611   3.301  15.997  0.00  0.00    +0.000 HD
ATOM     18  H2  UNL     1       5.224   3.149  17.480  0.00  0.00    +0.000 HD
ENDBRANCH  15  16
BRANCH  15  19
ATOM     19  C   UNL     1       6.853   4.500  14.903  0.00  0.00    +0.000 C 
ATOM     20  O   UNL     1       7.702   5.250  14.458  0.00  0.00    +0.000 OA
BRANCH  19  21
ATOM     21  OXT UNL     1       6.327   3.477  14.174  0.00  0.00    +0.000 OA
ATOM     22  HXT UNL     1       6.997   2.747  14.195  0.00  0.00    +0.000 HD
ENDBRANCH  19  21
ENDBRANCH  15  19
ENDBRANCH   2  15
TORSDOF 11
ENDMDL
MODEL 8
REMARK VINA RESULT:      -5.8      2.038      6.548
REMARK  Name = 
REMARK  13 active torsions:
REMARK  status: ('A' for Active; 'I' for Inactive)
REMARK    1  A    between atoms: C_1  and  C_2
REMARK    2  A    between atoms: C_2  and  C_3
REMARK    3  A    between atoms: C_2  and  S_4
REMARK    4  A    between atoms: C_2  and  CA_12
REMARK    5  A    between atoms: S_4  and  SG_5
REMARK    6  A    between atoms: SG_5  and  CB_6
REMARK    7  A    between atoms: CB_6  and  CA_7
REMARK    8  A    between atoms: CA_7  and  N_8
REMARK    9  A    between atoms: CA_7  and  C_9
REMARK   10  A    between atoms: C_9  and  OXT_11
REMARK   11  A    between atoms: CA_12  and  N_13
REMARK   12  A    between atoms: CA_12  and  C_14
REMARK   13  A    between atoms: C_14  and  OXT_16
REMARK                            x       y       z     vdW  Elec       q    Type
REMARK                         _______ _______ _______ _____ _____    ______ ____
ROOT
ATOM      1  C   UNL     1       4.442   6.759  17.287  0.00  0.00    +0.000 C 
ATOM      2  C   UNL     1       5.064   5.576  18.044  0.00  0.00    +0.000 C 
ATOM      3  C   UNL     1       4.410   5.433  19.432  0.00  0.00    +0.000 C 
ENDROOT
BRANCH   2   4
ATOM      4  S   UNL     1       4.725   3.985  17.090  0.00  0.00    +0.000 S 
BRANCH   4   5
ATOM      5  SG  UNL     1       2.756   3.511  17.456  0.00  0.00    +0.000 S 
BRANCH   5   6
ATOM      6  CB  UNL     1       2.840   2.254  18.792  0.00  0.00    +0.000 C 
BRANCH   6   7
ATOM      7  CA  UNL     1       1.508   1.977  19.505  0.00  0.00    +0.000 C 
BRANCH   7   8
ATOM      8  N   UNL     1       0.368   2.253  18.591  0.00  0.00    +0.000 NA
ATOM      9  H1  UNL     1       0.290   1.469  17.937  0.00  0.00    +0.000 HD
ATOM     10  H2  UNL     1       0.634   3.036  17.984  0.00  0.00    +0.000 HD
ENDBRANCH   7   8
BRANCH   7  11
ATOM     11  C   UNL     1       1.372   2.851  20.758  0.00  0.00    +0.000 C 
ATOM     12  O   UNL     1       1.882   2.586  21.837  0.00  0.00    +0.000 OA
BRANCH  11  13
ATOM     13  OXT UNL     1       0.651   3.983  20.563  0.00  0.00    +0.000 OA
ATOM     14  HXT UNL     1       0.332   4.393  21.394  0.00  0.00    +0.000 HD
ENDBRANCH  11  13
ENDBRANCH   7  11
ENDBRANCH   6   7
ENDBRANCH   5   6
ENDBRANCH   4   5
ENDBRANCH   2   4
BRANCH   2  15
ATOM     15  CA  UNL     1       6.624   5.699  18.145  0.00  0.00    +0.000 C 
BRANCH  15  16
ATOM     16  N   UNL     1       7.362   4.382  18.092  0.00  0.00    +0.000 NA
ATOM     17  H1  UNL     1       7.327   4.028  17.129  0.00  0.00    +0.000 HD
ATOM     18  H2  UNL     1       6.802   3.702  18.618  0.00  0.00    +0.000 HD
ENDBRANCH  15  16
BRANCH  15  19
ATOM     19  C   UNL     1       7.269   6.606  17.067  0.00  0.00    +0.000 C 
ATOM     20  O   UNL     1       7.582   7.776  17.191  0.00  0.00    +0.000 OA
BRANCH  19  21
ATOM     21  OXT UNL     1       7.507   5.903  15.925  0.00  0.00    +0.000 OA
ATOM     22  HXT UNL     1       6.789   6.151  15.290  0.00  0.00    +0.000 HD
ENDBRANCH  19  21
ENDBRANCH  15  19
ENDBRANCH   2  15
TORSDOF 11
ENDMDL
MODEL 9
REMARK VINA RESULT:      -5.7      2.060      2.320
REMARK  Name = 
REMARK  13 active torsions:
REMARK  status: ('A' for Active; 'I' for Inactive)
REMARK    1  A    between atoms: C_1  and  C_2
REMARK    2  A    between atoms: C_2  and  C_3
REMARK    3  A    between atoms: C_2  and  S_4
REMARK    4  A    between atoms: C_2  and  CA_12
REMARK    5  A    between atoms: S_4  and  SG_5
REMARK    6  A    between atoms: SG_5  and  CB_6
REMARK    7  A    between atoms: CB_6  and  CA_7
REMARK    8  A    between atoms: CA_7  and  N_8
REMARK    9  A    between atoms: CA_7  and  C_9
REMARK   10  A    between atoms: C_9  and  OXT_11
REMARK   11  A    between atoms: CA_12  and  N_13
REMARK   12  A    between atoms: CA_12  and  C_14
REMARK   13  A    between atoms: C_14  and  OXT_16
REMARK                            x       y       z     vdW  Elec       q    Type
REMARK                         _______ _______ _______ _____ _____    ______ ____
ROOT
ATOM      1  C   UNL     1       2.330   4.216  20.375  0.00  0.00    +0.000 C 
ATOM      2  C   UNL     1       2.059   3.225  19.233  0.00  0.00    +0.000 C 
ATOM      3  C   UNL     1       0.596   2.744  19.286  0.00  0.00    +0.000 C 
ENDROOT
BRANCH   2   4
ATOM      4  S   UNL     1       2.309   4.102  17.583  0.00  0.00    +0.000 S 
BRANCH   4   5
ATOM      5  SG  UNL     1       3.288   5.861  18.016  0.00  0.00    +0.000 S 
BRANCH   5   6
ATOM      6  CB  UNL     1       5.059   5.381  18.088  0.00  0.00    +0.000 C 
BRANCH   6   7
ATOM      7  CA  UNL     1       5.666   4.945  16.747  0.00  0.00    +0.000 C 
BRANCH   7   8
ATOM      8  N   UNL     1       5.600   3.465  16.608  0.00  0.00    +0.000 NA
ATOM      9  H1  UNL     1       6.092   3.206  15.748  0.00  0.00    +0.000 HD
ATOM     10  H2  UNL     1       4.627   3.213  16.404  0.00  0.00    +0.000 HD
ENDBRANCH   7   8
BRANCH   7  11
ATOM     11  C   UNL     1       7.128   5.396  16.641  0.00  0.00    +0.000 C 
ATOM     12  O   UNL     1       7.476   6.519  16.305  0.00  0.00    +0.000 OA
BRANCH  11  13
ATOM     13  OXT UNL     1       8.024   4.439  16.986  0.00  0.00    +0.000 OA
ATOM     14  HXT UNL     1       8.199   3.789  16.273  0.00  0.00    +0.000 HD
ENDBRANCH  11  13
ENDBRANCH   7  11
ENDBRANCH   6   7
ENDBRANCH   5   6
ENDBRANCH   4   5
ENDBRANCH   2   4
BRANCH   2  15
ATOM     15  CA  UNL     1       3.069   2.025  19.245  0.00  0.00    +0.000 C 
BRANCH  15  16
ATOM     16  N   UNL     1       3.677   1.703  17.900  0.00  0.00    +0.000 NA
ATOM     17  H1  UNL     1       2.925   1.678  17.201  0.00  0.00    +0.000 HD
ATOM     18  H2  UNL     1       3.998   0.729  17.941  0.00  0.00    +0.000 HD
ENDBRANCH  15  16
BRANCH  15  19
ATOM     19  C   UNL     1       4.251   2.189  20.233  0.00  0.00    +0.000 C 
ATOM     20  O   UNL     1       4.253   1.914  21.418  0.00  0.00    +0.000 OA
BRANCH  19  21
ATOM     21  OXT UNL     1       5.359   2.647  19.586  0.00  0.00    +0.000 OA
ATOM     22  HXT UNL     1       5.203   3.611  19.416  0.00  0.00    +0.000 HD
ENDBRANCH  19  21
ENDBRANCH  15  19
ENDBRANCH   2  15
TORSDOF 11
ENDMDL
