MODEL 1
REMARK VINA RESULT:      -8.4      0.000      0.000
REMARK  Name = 
REMARK  8 active torsions:
REMARK  status: ('A' for Active; 'I' for Inactive)
REMARK    1  A    between atoms: C_1  and  O_2
REMARK    2  A    between atoms: O_2  and  C_3
REMARK    3  A    between atoms: C_6  and  C_7
REMARK    4  A    between atoms: N_9  and  C1*_10
REMARK    5  A    between atoms: C4*_12  and  C5*_13
REMARK    6  A    between atoms: C5*_13  and  O5*_14
REMARK    7  A    between atoms: C3*_15  and  O3*_16
REMARK    8  A    between atoms: C2*_17  and  O2*_18
REMARK                            x       y       z     vdW  Elec       q    Type
REMARK                         _______ _______ _______ _____ _____    ______ ____
ROOT
ATOM      1  C   UNL     1       2.673   6.071  19.001  0.00  0.00    +0.000 A 
ATOM      2  N   UNL     1       3.786   6.215  18.252  0.00  0.00    +0.000 NA
ATOM      3  N   UNL     1       4.180   4.944  17.992  0.00  0.00    +0.000 N 
ATOM      4  C   UNL     1       3.325   3.999  18.489  0.00  0.00    +0.000 A 
ATOM      5  N   UNL     1       3.444   2.665  18.369  0.00  0.00    +0.000 NA
ATOM      6  C   UNL     1       2.445   2.023  18.992  0.00  0.00    +0.000 A 
ATOM      7  N   UNL     1       1.416   2.560  19.672  0.00  0.00    +0.000 NA
ATOM      8  C   UNL     1       1.335   3.903  19.766  0.00  0.00    +0.000 A 
ATOM      9  N   UNL     1       0.240   4.390  20.471  0.00  0.00    +0.000 N 
ATOM     10  C   UNL     1       2.326   4.690  19.158  0.00  0.00    +0.000 A 
ATOM     11  H   UNL     1      -0.438   3.651  20.618  0.00  0.00    +0.000 HD
ATOM     12  H   UNL     1      -0.136   5.263  20.124  0.00  0.00    +0.000 HD
ENDROOT
BRANCH   1  16
ATOM     13  C   UNL     1       0.711   9.548  20.564  0.00  0.00    +0.000 A 
ATOM     14  C   UNL     1       1.128   9.509  19.233  0.00  0.00    +0.000 A 
ATOM     15  C   UNL     1       1.755   8.369  18.718  0.00  0.00    +0.000 A 
ATOM     16  C   UNL     1       2.000   7.259  19.536  0.00  0.00    +0.000 A 
ATOM     17  C   UNL     1       1.621   7.330  20.883  0.00  0.00    +0.000 A 
ATOM     18  C   UNL     1       0.961   8.456  21.390  0.00  0.00    +0.000 A 
BRANCH  13  20
ATOM     19  C   UNL     1      -0.383  10.747  22.287  0.00  0.00    +0.000 C 
ATOM     20  O   UNL     1       0.118  10.717  20.955  0.00  0.00    +0.000 OA
ENDBRANCH  13  20
ENDBRANCH   1  16
BRANCH   3  21
ATOM     21  C1* UNL     1       5.418   4.674  17.286  0.00  0.00    +0.000 C 
ATOM     22  O4* UNL     1       6.442   4.294  18.243  0.00  0.00    +0.000 OA
ATOM     23  C4* UNL     1       7.663   5.003  17.929  0.00  0.00    +0.000 C 
ATOM     24  C3* UNL     1       7.459   5.630  16.556  0.00  0.00    +0.000 C 
ATOM     25  C2* UNL     1       5.959   5.870  16.495  0.00  0.00    +0.000 C 
BRANCH  24  26
ATOM     26  O3* UNL     1       7.804   4.714  15.496  0.00  0.00    +0.000 OA
ATOM     27  H3* UNL     1       7.246   3.916  15.572  0.00  0.00    +0.000 HD
ENDBRANCH  24  26
BRANCH  25  28
ATOM     28  O2* UNL     1       5.506   5.899  15.138  0.00  0.00    +0.000 OA
ATOM     29  H2* UNL     1       5.529   4.969  14.823  0.00  0.00    +0.000 HD
ENDBRANCH  25  28
BRANCH  23  30
ATOM     30  C5* UNL     1       7.950   6.034  19.022  0.00  0.00    +0.000 C 
BRANCH  30  31
ATOM     31  O5* UNL     1       7.851   5.419  20.304  0.00  0.00    +0.000 OA
ATOM     32  H5* UNL     1       8.702   4.961  20.449  0.00  0.00    +0.000 HD
ENDBRANCH  30  31
ENDBRANCH  23  30
ENDBRANCH   3  21
TORSDOF 7
ENDMDL
MODEL 2
REMARK VINA RESULT:      -8.3      0.426      1.017
REMARK  Name = 
REMARK  8 active torsions:
REMARK  status: ('A' for Active; 'I' for Inactive)
REMARK    1  A    between atoms: C_1  and  O_2
REMARK    2  A    between atoms: O_2  and  C_3
REMARK    3  A    between atoms: C_6  and  C_7
REMARK    4  A    between atoms: N_9  and  C1*_10
REMARK    5  A    between atoms: C4*_12  and  C5*_13
REMARK    6  A    between atoms: C5*_13  and  O5*_14
REMARK    7  A    between atoms: C3*_15  and  O3*_16
REMARK    8  A    between atoms: C2*_17  and  O2*_18
REMARK                            x       y       z     vdW  Elec       q    Type
REMARK                         _______ _______ _______ _____ _____    ______ ____
ROOT
ATOM      1  C   UNL     1       2.606   6.217  18.967  0.00  0.00    +0.000 A 
ATOM      2  N   UNL     1       3.664   6.439  18.160  0.00  0.00    +0.000 NA
ATOM      3  N   UNL     1       4.074   5.198  17.797  0.00  0.00    +0.000 N 
ATOM      4  C   UNL     1       3.277   4.200  18.287  0.00  0.00    +0.000 A 
ATOM      5  N   UNL     1       3.423   2.880  18.077  0.00  0.00    +0.000 NA
ATOM      6  C   UNL     1       2.483   2.172  18.720  0.00  0.00    +0.000 A 
ATOM      7  N   UNL     1       1.486   2.636  19.495  0.00  0.00    +0.000 NA
ATOM      8  C   UNL     1       1.376   3.967  19.677  0.00  0.00    +0.000 A 
ATOM      9  N   UNL     1       0.316   4.378  20.477  0.00  0.00    +0.000 N 
ATOM     10  C   UNL     1       2.306   4.819  19.059  0.00  0.00    +0.000 A 
ATOM     11  H   UNL     1      -0.331   3.612  20.620  0.00  0.00    +0.000 HD
ATOM     12  H   UNL     1      -0.104   5.259  20.209  0.00  0.00    +0.000 HD
ENDROOT
BRANCH   1  16
ATOM     13  C   UNL     1       0.647   9.526  20.862  0.00  0.00    +0.000 A 
ATOM     14  C   UNL     1       0.943   8.370  21.585  0.00  0.00    +0.000 A 
ATOM     15  C   UNL     1       1.595   7.295  20.971  0.00  0.00    +0.000 A 
ATOM     16  C   UNL     1       1.938   7.350  19.615  0.00  0.00    +0.000 A 
ATOM     17  C   UNL     1       1.591   8.497  18.888  0.00  0.00    +0.000 A 
ATOM     18  C   UNL     1       0.972   9.587  19.510  0.00  0.00    +0.000 A 
BRANCH  13  20
ATOM     19  C   UNL     1      -0.435  10.151  22.872  0.00  0.00    +0.000 C 
ATOM     20  O   UNL     1       0.002  10.506  21.566  0.00  0.00    +0.000 OA
ENDBRANCH  13  20
ENDBRANCH   1  16
BRANCH   3  21
ATOM     21  C1* UNL     1       5.270   5.008  17.000  0.00  0.00    +0.000 C 
ATOM     22  O4* UNL     1       6.278   4.338  17.802  0.00  0.00    +0.000 OA
ATOM     23  C4* UNL     1       7.548   5.006  17.613  0.00  0.00    +0.000 C 
ATOM     24  C3* UNL     1       7.369   5.951  16.433  0.00  0.00    +0.000 C 
ATOM     25  C2* UNL     1       5.892   6.311  16.487  0.00  0.00    +0.000 C 
BRANCH  24  26
ATOM     26  O3* UNL     1       7.615   5.286  15.177  0.00  0.00    +0.000 OA
ATOM     27  H3* UNL     1       7.296   5.854  14.448  0.00  0.00    +0.000 HD
ENDBRANCH  24  26
BRANCH  25  28
ATOM     28  O2* UNL     1       5.416   6.692  15.193  0.00  0.00    +0.000 OA
ATOM     29  H2* UNL     1       4.863   5.945  14.876  0.00  0.00    +0.000 HD
ENDBRANCH  25  28
BRANCH  23  30
ATOM     30  C5* UNL     1       7.941   5.728  18.903  0.00  0.00    +0.000 C 
BRANCH  30  31
ATOM     31  O5* UNL     1       7.077   5.327  19.963  0.00  0.00    +0.000 OA
ATOM     32  H5* UNL     1       6.184   5.637  19.715  0.00  0.00    +0.000 HD
ENDBRANCH  30  31
ENDBRANCH  23  30
ENDBRANCH   3  21
TORSDOF 7
ENDMDL
MODEL 3
REMARK VINA RESULT:      -7.7      1.319      1.445
REMARK  Name = 
REMARK  8 active torsions:
REMARK  status: ('A' for Active; 'I' for Inactive)
REMARK    1  A    between atoms: C_1  and  O_2
REMARK    2  A    between atoms: O_2  and  C_3
REMARK    3  A    between atoms: C_6  and  C_7
REMARK    4  A    between atoms: N_9  and  C1*_10
REMARK    5  A    between atoms: C4*_12  and  C5*_13
REMARK    6  A    between atoms: C5*_13  and  O5*_14
REMARK    7  A    between atoms: C3*_15  and  O3*_16
REMARK    8  A    between atoms: C2*_17  and  O2*_18
REMARK                            x       y       z     vdW  Elec       q    Type
REMARK                         _______ _______ _______ _____ _____    ______ ____
ROOT
ATOM      1  C   UNL     1       2.768   6.218  19.484  0.00  0.00    +0.000 A 
ATOM      2  N   UNL     1       4.021   6.320  18.995  0.00  0.00    +0.000 NA
ATOM      3  N   UNL     1       4.465   5.040  18.941  0.00  0.00    +0.000 N 
ATOM      4  C   UNL     1       3.520   4.124  19.313  0.00  0.00    +0.000 A 
ATOM      5  N   UNL     1       3.664   2.787  19.340  0.00  0.00    +0.000 NA
ATOM      6  C   UNL     1       2.552   2.180  19.776  0.00  0.00    +0.000 A 
ATOM      7  N   UNL     1       1.396   2.752  20.158  0.00  0.00    +0.000 NA
ATOM      8  C   UNL     1       1.294   4.095  20.115  0.00  0.00    +0.000 A 
ATOM      9  N   UNL     1       0.068   4.618  20.510  0.00  0.00    +0.000 N 
ATOM     10  C   UNL     1       2.396   4.848  19.678  0.00  0.00    +0.000 A 
ATOM     11  H   UNL     1      -0.625   3.880  20.565  0.00  0.00    +0.000 HD
ATOM     12  H   UNL     1      -0.221   5.450  20.013  0.00  0.00    +0.000 HD
ENDROOT
BRANCH   1  16
ATOM     13  C   UNL     1       0.502   9.774  20.256  0.00  0.00    +0.000 A 
ATOM     14  C   UNL     1       1.083   9.562  19.006  0.00  0.00    +0.000 A 
ATOM     15  C   UNL     1       1.810   8.395  18.747  0.00  0.00    +0.000 A 
ATOM     16  C   UNL     1       1.992   7.432  19.748  0.00  0.00    +0.000 A 
ATOM     17  C   UNL     1       1.446   7.680  21.015  0.00  0.00    +0.000 A 
ATOM     18  C   UNL     1       0.687   8.830  21.263  0.00  0.00    +0.000 A 
BRANCH  13  20
ATOM     19  C   UNL     1      -0.417  11.678  19.192  0.00  0.00    +0.000 C 
ATOM     20  O   UNL     1      -0.177  10.954  20.393  0.00  0.00    +0.000 OA
ENDBRANCH  13  20
ENDBRANCH   1  16
BRANCH   3  21
ATOM     21  C1* UNL     1       5.830   4.737  18.557  0.00  0.00    +0.000 C 
ATOM     22  O4* UNL     1       6.713   5.770  19.070  0.00  0.00    +0.000 OA
ATOM     23  C4* UNL     1       7.636   6.159  18.025  0.00  0.00    +0.000 C 
ATOM     24  C3* UNL     1       7.494   5.125  16.916  0.00  0.00    +0.000 C 
ATOM     25  C2* UNL     1       6.051   4.663  17.042  0.00  0.00    +0.000 C 
BRANCH  24  26
ATOM     26  O3* UNL     1       8.345   3.983  17.142  0.00  0.00    +0.000 OA
ATOM     27  H3* UNL     1       9.100   4.254  17.699  0.00  0.00    +0.000 HD
ENDBRANCH  24  26
BRANCH  25  28
ATOM     28  O2* UNL     1       5.894   3.342  16.514  0.00  0.00    +0.000 OA
ATOM     29  H2* UNL     1       6.318   3.351  15.629  0.00  0.00    +0.000 HD
ENDBRANCH  25  28
BRANCH  23  30
ATOM     30  C5* UNL     1       7.313   7.581  17.562  0.00  0.00    +0.000 C 
BRANCH  30  31
ATOM     31  O5* UNL     1       8.254   8.495  18.119  0.00  0.00    +0.000 OA
ATOM     32  H5* UNL     1       8.015   9.375  17.767  0.00  0.00    +0.000 HD
ENDBRANCH  30  31
ENDBRANCH  23  30
ENDBRANCH   3  21
TORSDOF 7
ENDMDL
MODEL 4
REMARK VINA RESULT:      -7.6      1.222      1.601
REMARK  Name = 
REMARK  8 active torsions:
REMARK  status: ('A' for Active; 'I' for Inactive)
REMARK    1  A    between atoms: C_1  and  O_2
REMARK    2  A    between atoms: O_2  and  C_3
REMARK    3  A    between atoms: C_6  and  C_7
REMARK    4  A    between atoms: N_9  and  C1*_10
REMARK    5  A    between atoms: C4*_12  and  C5*_13
REMARK    6  A    between atoms: C5*_13  and  O5*_14
REMARK    7  A    between atoms: C3*_15  and  O3*_16
REMARK    8  A    between atoms: C2*_17  and  O2*_18
REMARK                            x       y       z     vdW  Elec       q    Type
REMARK                         _______ _______ _______ _____ _____    ______ ____
ROOT
ATOM      1  C   UNL     1       2.773   6.237  19.474  0.00  0.00    +0.000 A 
ATOM      2  N   UNL     1       4.028   6.336  18.987  0.00  0.00    +0.000 NA
ATOM      3  N   UNL     1       4.471   5.056  18.944  0.00  0.00    +0.000 N 
ATOM      4  C   UNL     1       3.526   4.142  19.322  0.00  0.00    +0.000 A 
ATOM      5  N   UNL     1       3.670   2.806  19.359  0.00  0.00    +0.000 NA
ATOM      6  C   UNL     1       2.556   2.202  19.797  0.00  0.00    +0.000 A 
ATOM      7  N   UNL     1       1.399   2.776  20.172  0.00  0.00    +0.000 NA
ATOM      8  C   UNL     1       1.297   4.119  20.118  0.00  0.00    +0.000 A 
ATOM      9  N   UNL     1       0.070   4.645  20.506  0.00  0.00    +0.000 N 
ATOM     10  C   UNL     1       2.401   4.870  19.678  0.00  0.00    +0.000 A 
ATOM     11  H   UNL     1      -0.623   3.908  20.565  0.00  0.00    +0.000 HD
ATOM     12  H   UNL     1      -0.217   5.474  20.002  0.00  0.00    +0.000 HD
ENDROOT
BRANCH   1  16
ATOM     13  C   UNL     1       0.494   9.792  20.214  0.00  0.00    +0.000 A 
ATOM     14  C   UNL     1       0.648   8.829  21.211  0.00  0.00    +0.000 A 
ATOM     15  C   UNL     1       1.404   7.676  20.976  0.00  0.00    +0.000 A 
ATOM     16  C   UNL     1       1.996   7.454  19.727  0.00  0.00    +0.000 A 
ATOM     17  C   UNL     1       1.792   8.404  18.717  0.00  0.00    +0.000 A 
ATOM     18  C   UNL     1       1.066   9.576  18.963  0.00  0.00    +0.000 A 
BRANCH  13  20
ATOM     19  C   UNL     1      -0.293  11.209  21.938  0.00  0.00    +0.000 C 
ATOM     20  O   UNL     1      -0.272  10.872  20.557  0.00  0.00    +0.000 OA
ENDBRANCH  13  20
ENDBRANCH   1  16
BRANCH   3  21
ATOM     21  C1* UNL     1       5.838   4.749  18.566  0.00  0.00    +0.000 C 
ATOM     22  O4* UNL     1       6.721   5.779  19.086  0.00  0.00    +0.000 OA
ATOM     23  C4* UNL     1       7.650   6.168  18.047  0.00  0.00    +0.000 C 
ATOM     24  C3* UNL     1       7.511   5.138  16.934  0.00  0.00    +0.000 C 
ATOM     25  C2* UNL     1       6.066   4.679  17.053  0.00  0.00    +0.000 C 
BRANCH  24  26
ATOM     26  O3* UNL     1       8.357   3.992  17.161  0.00  0.00    +0.000 OA
ATOM     27  H3* UNL     1       8.067   3.538  17.975  0.00  0.00    +0.000 HD
ENDBRANCH  24  26
BRANCH  25  28
ATOM     28  O2* UNL     1       5.908   3.360  16.520  0.00  0.00    +0.000 OA
ATOM     29  H2* UNL     1       6.542   3.291  15.774  0.00  0.00    +0.000 HD
ENDBRANCH  25  28
BRANCH  23  30
ATOM     30  C5* UNL     1       7.333   7.592  17.587  0.00  0.00    +0.000 C 
BRANCH  30  31
ATOM     31  O5* UNL     1       8.274   8.502  18.150  0.00  0.00    +0.000 OA
ATOM     32  H5* UNL     1       8.756   8.892  17.395  0.00  0.00    +0.000 HD
ENDBRANCH  30  31
ENDBRANCH  23  30
ENDBRANCH   3  21
TORSDOF 7
ENDMDL
MODEL 5
REMARK VINA RESULT:      -7.3      1.482      2.726
REMARK  Name = 
REMARK  8 active torsions:
REMARK  status: ('A' for Active; 'I' for Inactive)
REMARK    1  A    between atoms: C_1  and  O_2
REMARK    2  A    between atoms: O_2  and  C_3
REMARK    3  A    between atoms: C_6  and  C_7
REMARK    4  A    between atoms: N_9  and  C1*_10
REMARK    5  A    between atoms: C4*_12  and  C5*_13
REMARK    6  A    between atoms: C5*_13  and  O5*_14
REMARK    7  A    between atoms: C3*_15  and  O3*_16
REMARK    8  A    between atoms: C2*_17  and  O2*_18
REMARK                            x       y       z     vdW  Elec       q    Type
REMARK                         _______ _______ _______ _____ _____    ______ ____
ROOT
ATOM      1  C   UNL     1       2.963   6.651  18.401  0.00  0.00    +0.000 A 
ATOM      2  N   UNL     1       3.913   7.114  17.562  0.00  0.00    +0.000 NA
ATOM      3  N   UNL     1       4.484   5.995  17.054  0.00  0.00    +0.000 N 
ATOM      4  C   UNL     1       3.893   4.840  17.487  0.00  0.00    +0.000 A 
ATOM      5  N   UNL     1       4.229   3.586  17.139  0.00  0.00    +0.000 NA
ATOM      6  C   UNL     1       3.461   2.679  17.760  0.00  0.00    +0.000 A 
ATOM      7  N   UNL     1       2.463   2.903  18.633  0.00  0.00    +0.000 NA
ATOM      8  C   UNL     1       2.158   4.177  18.953  0.00  0.00    +0.000 A 
ATOM      9  N   UNL     1       1.107   4.336  19.850  0.00  0.00    +0.000 N 
ATOM     10  C   UNL     1       2.894   5.221  18.370  0.00  0.00    +0.000 A 
ATOM     11  H   UNL     1       0.600   3.464  19.952  0.00  0.00    +0.000 HD
ATOM     12  H   UNL     1       0.536   5.156  19.695  0.00  0.00    +0.000 HD
ENDROOT
BRANCH   1  16
ATOM     13  C   UNL     1       0.651   9.414  20.725  0.00  0.00    +0.000 A 
ATOM     14  C   UNL     1       1.137   8.238  21.299  0.00  0.00    +0.000 A 
ATOM     15  C   UNL     1       1.904   7.343  20.546  0.00  0.00    +0.000 A 
ATOM     16  C   UNL     1       2.174   7.597  19.196  0.00  0.00    +0.000 A 
ATOM     17  C   UNL     1       1.639   8.756  18.618  0.00  0.00    +0.000 A 
ATOM     18  C   UNL     1       0.902   9.670  19.380  0.00  0.00    +0.000 A 
BRANCH  13  20
ATOM     19  C   UNL     1      -0.263   9.729  22.886  0.00  0.00    +0.000 C 
ATOM     20  O   UNL     1      -0.092  10.206  21.556  0.00  0.00    +0.000 OA
ENDBRANCH  13  20
ENDBRANCH   1  16
BRANCH   3  21
ATOM     21  C1* UNL     1       5.635   6.075  16.175  0.00  0.00    +0.000 C 
ATOM     22  O4* UNL     1       5.192   5.971  14.795  0.00  0.00    +0.000 OA
ATOM     23  C4* UNL     1       6.060   5.050  14.093  0.00  0.00    +0.000 C 
ATOM     24  C3* UNL     1       7.251   4.795  15.007  0.00  0.00    +0.000 C 
ATOM     25  C2* UNL     1       6.673   4.971  16.402  0.00  0.00    +0.000 C 
BRANCH  24  26
ATOM     26  O3* UNL     1       8.281   5.789  14.828  0.00  0.00    +0.000 OA
ATOM     27  H3* UNL     1       8.521   6.160  15.699  0.00  0.00    +0.000 HD
ENDBRANCH  24  26
BRANCH  25  28
ATOM     28  O2* UNL     1       7.696   5.342  17.331  0.00  0.00    +0.000 OA
ATOM     29  H2* UNL     1       8.474   5.599  16.791  0.00  0.00    +0.000 HD
ENDBRANCH  25  28
BRANCH  23  30
ATOM     30  C5* UNL     1       5.284   3.776  13.752  0.00  0.00    +0.000 C 
BRANCH  30  31
ATOM     31  O5* UNL     1       6.071   2.944  12.904  0.00  0.00    +0.000 OA
ATOM     32  H5* UNL     1       5.456   2.578  12.240  0.00  0.00    +0.000 HD
ENDBRANCH  30  31
ENDBRANCH  23  30
ENDBRANCH   3  21
TORSDOF 7
ENDMDL
MODEL 6
REMARK VINA RESULT:      -7.2      2.087      6.930
REMARK  Name = 
REMARK  8 active torsions:
REMARK  status: ('A' for Active; 'I' for Inactive)
REMARK    1  A    between atoms: C_1  and  O_2
REMARK    2  A    between atoms: O_2  and  C_3
REMARK    3  A    between atoms: C_6  and  C_7
REMARK    4  A    between atoms: N_9  and  C1*_10
REMARK    5  A    between atoms: C4*_12  and  C5*_13
REMARK    6  A    between atoms: C5*_13  and  O5*_14
REMARK    7  A    between atoms: C3*_15  and  O3*_16
REMARK    8  A    between atoms: C2*_17  and  O2*_18
REMARK                            x       y       z     vdW  Elec       q    Type
REMARK                         _______ _______ _______ _____ _____    ______ ____
ROOT
ATOM      1  C   UNL     1       3.959   5.832  18.228  0.00  0.00    +0.000 A 
ATOM      2  N   UNL     1       3.265   6.989  18.266  0.00  0.00    +0.000 NA
ATOM      3  N   UNL     1       2.358   6.801  19.255  0.00  0.00    +0.000 N 
ATOM      4  C   UNL     1       2.491   5.597  19.891  0.00  0.00    +0.000 A 
ATOM      5  N   UNL     1       1.750   5.145  20.918  0.00  0.00    +0.000 NA
ATOM      6  C   UNL     1       2.127   3.915  21.294  0.00  0.00    +0.000 A 
ATOM      7  N   UNL     1       3.106   3.156  20.770  0.00  0.00    +0.000 NA
ATOM      8  C   UNL     1       3.825   3.649  19.742  0.00  0.00    +0.000 A 
ATOM      9  N   UNL     1       4.830   2.818  19.259  0.00  0.00    +0.000 N 
ATOM     10  C   UNL     1       3.524   4.930  19.252  0.00  0.00    +0.000 A 
ATOM     11  H   UNL     1       4.995   2.057  19.907  0.00  0.00    +0.000 HD
ATOM     12  H   UNL     1       5.658   3.298  18.930  0.00  0.00    +0.000 HD
ENDROOT
BRANCH   1  16
ATOM     13  C   UNL     1       6.998   5.287  15.252  0.00  0.00    +0.000 A 
ATOM     14  C   UNL     1       7.200   6.164  16.319  0.00  0.00    +0.000 A 
ATOM     15  C   UNL     1       6.215   6.332  17.298  0.00  0.00    +0.000 A 
ATOM     16  C   UNL     1       4.999   5.644  17.211  0.00  0.00    +0.000 A 
ATOM     17  C   UNL     1       4.788   4.804  16.109  0.00  0.00    +0.000 A 
ATOM     18  C   UNL     1       5.787   4.608  15.148  0.00  0.00    +0.000 A 
BRANCH  13  20
ATOM     19  C   UNL     1       7.653   5.075  12.989  0.00  0.00    +0.000 C 
ATOM     20  O   UNL     1       8.026   5.213  14.354  0.00  0.00    +0.000 OA
ENDBRANCH  13  20
ENDBRANCH   1  16
BRANCH   3  21
ATOM     21  C1* UNL     1       1.342   7.798  19.539  0.00  0.00    +0.000 C 
ATOM     22  O4* UNL     1       1.093   8.581  18.341  0.00  0.00    +0.000 OA
ATOM     23  C4* UNL     1       1.048   9.982  18.698  0.00  0.00    +0.000 C 
ATOM     24  C3* UNL     1       0.991  10.040  20.219  0.00  0.00    +0.000 C 
ATOM     25  C2* UNL     1       1.725   8.780  20.650  0.00  0.00    +0.000 C 
BRANCH  24  26
ATOM     26  O3* UNL     1      -0.365   9.948  20.704  0.00  0.00    +0.000 OA
ATOM     27  H3* UNL     1      -0.979  10.037  19.950  0.00  0.00    +0.000 HD
ENDBRANCH  24  26
BRANCH  25  28
ATOM     28  O2* UNL     1       1.291   8.360  21.947  0.00  0.00    +0.000 OA
ATOM     29  H2* UNL     1       1.373   9.146  22.529  0.00  0.00    +0.000 HD
ENDBRANCH  25  28
BRANCH  23  30
ATOM     30  C5* UNL     1       2.271  10.695  18.118  0.00  0.00    +0.000 C 
BRANCH  30  31
ATOM     31  O5* UNL     1       1.966  12.068  17.889  0.00  0.00    +0.000 OA
ATOM     32  H5* UNL     1       2.651  12.398  17.275  0.00  0.00    +0.000 HD
ENDBRANCH  30  31
ENDBRANCH  23  30
ENDBRANCH   3  21
TORSDOF 7
ENDMDL
MODEL 7
REMARK VINA RESULT:      -7.1      1.994      6.809
REMARK  Name = 
REMARK  8 active torsions:
REMARK  status: ('A' for Active; 'I' for Inactive)
REMARK    1  A    between atoms: C_1  and  O_2
REMARK    2  A    between atoms: O_2  and  C_3
REMARK    3  A    between atoms: C_6  and  C_7
REMARK    4  A    between atoms: N_9  and  C1*_10
REMARK    5  A    between atoms: C4*_12  and  C5*_13
REMARK    6  A    between atoms: C5*_13  and  O5*_14
REMARK    7  A    between atoms: C3*_15  and  O3*_16
REMARK    8  A    between atoms: C2*_17  and  O2*_18
REMARK                            x       y       z     vdW  Elec       q    Type
REMARK                         _______ _______ _______ _____ _____    ______ ____
ROOT
ATOM      1  C   UNL     1       3.841   5.905  18.561  0.00  0.00    +0.000 A 
ATOM      2  N   UNL     1       3.186   7.074  18.719  0.00  0.00    +0.000 NA
ATOM      3  N   UNL     1       2.251   6.808  19.664  0.00  0.00    +0.000 N 
ATOM      4  C   UNL     1       2.329   5.536  20.161  0.00  0.00    +0.000 A 
ATOM      5  N   UNL     1       1.551   4.998  21.116  0.00  0.00    +0.000 NA
ATOM      6  C   UNL     1       1.878   3.720  21.356  0.00  0.00    +0.000 A 
ATOM      7  N   UNL     1       2.842   2.991  20.767  0.00  0.00    +0.000 NA
ATOM      8  C   UNL     1       3.600   3.570  19.814  0.00  0.00    +0.000 A 
ATOM      9  N   UNL     1       4.586   2.763  19.258  0.00  0.00    +0.000 N 
ATOM     10  C   UNL     1       3.353   4.909  19.468  0.00  0.00    +0.000 A 
ATOM     11  H   UNL     1       4.711   1.928  19.817  0.00  0.00    +0.000 HD
ATOM     12  H   UNL     1       5.437   3.247  19.000  0.00  0.00    +0.000 HD
ENDROOT
BRANCH   1  16
ATOM     13  C   UNL     1       6.925   5.577  15.601  0.00  0.00    +0.000 A 
ATOM     14  C   UNL     1       5.682   4.975  15.399  0.00  0.00    +0.000 A 
ATOM     15  C   UNL     1       4.670   5.094  16.357  0.00  0.00    +0.000 A 
ATOM     16  C   UNL     1       4.895   5.795  17.549  0.00  0.00    +0.000 A 
ATOM     17  C   UNL     1       6.163   6.352  17.762  0.00  0.00    +0.000 A 
ATOM     18  C   UNL     1       7.164   6.265  16.787  0.00  0.00    +0.000 A 
BRANCH  13  20
ATOM     19  C   UNL     1       7.324   4.856  13.382  0.00  0.00    +0.000 C 
ATOM     20  O   UNL     1       7.836   5.386  14.599  0.00  0.00    +0.000 OA
ENDBRANCH  13  20
ENDBRANCH   1  16
BRANCH   3  21
ATOM     21  C1* UNL     1       1.265   7.803  20.041  0.00  0.00    +0.000 C 
ATOM     22  O4* UNL     1       0.790   8.482  18.848  0.00  0.00    +0.000 OA
ATOM     23  C4* UNL     1       0.759   9.907  19.102  0.00  0.00    +0.000 C 
ATOM     24  C3* UNL     1       0.956  10.084  20.602  0.00  0.00    +0.000 C 
ATOM     25  C2* UNL     1       1.795   8.878  20.994  0.00  0.00    +0.000 C 
BRANCH  24  26
ATOM     26  O3* UNL     1      -0.295  10.002  21.316  0.00  0.00    +0.000 OA
ATOM     27  H3* UNL     1      -0.355   9.131  21.754  0.00  0.00    +0.000 HD
ENDBRANCH  24  26
BRANCH  25  28
ATOM     28  O2* UNL     1       1.600   8.553  22.374  0.00  0.00    +0.000 OA
ATOM     29  H2* UNL     1       1.823   9.364  22.879  0.00  0.00    +0.000 HD
ENDBRANCH  25  28
BRANCH  23  30
ATOM     30  C5* UNL     1       1.842  10.597  18.271  0.00  0.00    +0.000 C 
BRANCH  30  31
ATOM     31  O5* UNL     1       2.271   9.732  17.223  0.00  0.00    +0.000 OA
ATOM     32  H5* UNL     1       1.470   9.512  16.709  0.00  0.00    +0.000 HD
ENDBRANCH  30  31
ENDBRANCH  23  30
ENDBRANCH   3  21
TORSDOF 7
ENDMDL
MODEL 8
REMARK VINA RESULT:      -7.1      1.536      2.616
REMARK  Name = 
REMARK  8 active torsions:
REMARK  status: ('A' for Active; 'I' for Inactive)
REMARK    1  A    between atoms: C_1  and  O_2
REMARK    2  A    between atoms: O_2  and  C_3
REMARK    3  A    between atoms: C_6  and  C_7
REMARK    4  A    between atoms: N_9  and  C1*_10
REMARK    5  A    between atoms: C4*_12  and  C5*_13
REMARK    6  A    between atoms: C5*_13  and  O5*_14
REMARK    7  A    between atoms: C3*_15  and  O3*_16
REMARK    8  A    between atoms: C2*_17  and  O2*_18
REMARK                            x       y       z     vdW  Elec       q    Type
REMARK                         _______ _______ _______ _____ _____    ______ ____
ROOT
ATOM      1  C   UNL     1       2.971   6.683  18.317  0.00  0.00    +0.000 A 
ATOM      2  N   UNL     1       3.919   7.137  17.473  0.00  0.00    +0.000 NA
ATOM      3  N   UNL     1       4.497   6.013  16.982  0.00  0.00    +0.000 N 
ATOM      4  C   UNL     1       3.909   4.862  17.431  0.00  0.00    +0.000 A 
ATOM      5  N   UNL     1       4.251   3.604  17.102  0.00  0.00    +0.000 NA
ATOM      6  C   UNL     1       3.487   2.704  17.736  0.00  0.00    +0.000 A 
ATOM      7  N   UNL     1       2.486   2.936  18.603  0.00  0.00    +0.000 NA
ATOM      8  C   UNL     1       2.175   4.213  18.904  0.00  0.00    +0.000 A 
ATOM      9  N   UNL     1       1.122   4.381  19.796  0.00  0.00    +0.000 N 
ATOM     10  C   UNL     1       2.908   5.252  18.307  0.00  0.00    +0.000 A 
ATOM     11  H   UNL     1       0.619   3.508  19.911  0.00  0.00    +0.000 HD
ATOM     12  H   UNL     1       0.547   5.196  19.629  0.00  0.00    +0.000 HD
ENDROOT
BRANCH   1  16
ATOM     13  C   UNL     1       0.652   9.478  20.596  0.00  0.00    +0.000 A 
ATOM     14  C   UNL     1       0.921   9.714  19.248  0.00  0.00    +0.000 A 
ATOM     15  C   UNL     1       1.665   8.796  18.499  0.00  0.00    +0.000 A 
ATOM     16  C   UNL     1       2.176   7.637  19.096  0.00  0.00    +0.000 A 
ATOM     17  C   UNL     1       1.941   7.435  20.464  0.00  0.00    +0.000 A 
ATOM     18  C   UNL     1       1.166   8.336  21.204  0.00  0.00    +0.000 A 
BRANCH  13  20
ATOM     19  C   UNL     1       0.122  11.779  20.761  0.00  0.00    +0.000 C 
ATOM     20  O   UNL     1      -0.077  10.449  21.225  0.00  0.00    +0.000 OA
ENDBRANCH  13  20
ENDBRANCH   1  16
BRANCH   3  21
ATOM     21  C1* UNL     1       5.649   6.086  16.104  0.00  0.00    +0.000 C 
ATOM     22  O4* UNL     1       5.209   5.956  14.726  0.00  0.00    +0.000 OA
ATOM     23  C4* UNL     1       6.084   5.028  14.040  0.00  0.00    +0.000 C 
ATOM     24  C3* UNL     1       7.275   4.796  14.961  0.00  0.00    +0.000 C 
ATOM     25  C2* UNL     1       6.692   4.991  16.352  0.00  0.00    +0.000 C 
BRANCH  24  26
ATOM     26  O3* UNL     1       8.299   5.793  14.767  0.00  0.00    +0.000 OA
ATOM     27  H3* UNL     1       7.915   6.555  14.293  0.00  0.00    +0.000 HD
ENDBRANCH  24  26
BRANCH  25  28
ATOM     28  O2* UNL     1       7.711   5.384  17.277  0.00  0.00    +0.000 OA
ATOM     29  H2* UNL     1       7.252   5.866  17.998  0.00  0.00    +0.000 HD
ENDBRANCH  25  28
BRANCH  23  30
ATOM     30  C5* UNL     1       5.316   3.745  13.720  0.00  0.00    +0.000 C 
BRANCH  30  31
ATOM     31  O5* UNL     1       6.050   2.965  12.779  0.00  0.00    +0.000 OA
ATOM     32  H5* UNL     1       6.789   2.566  13.279  0.00  0.00    +0.000 HD
ENDBRANCH  30  31
ENDBRANCH  23  30
ENDBRANCH   3  21
TORSDOF 7
ENDMDL
MODEL 9
REMARK VINA RESULT:      -7.1      2.544      7.463
REMARK  Name = 
REMARK  8 active torsions:
REMARK  status: ('A' for Active; 'I' for Inactive)
REMARK    1  A    between atoms: C_1  and  O_2
REMARK    2  A    between atoms: O_2  and  C_3
REMARK    3  A    between atoms: C_6  and  C_7
REMARK    4  A    between atoms: N_9  and  C1*_10
REMARK    5  A    between atoms: C4*_12  and  C5*_13
REMARK    6  A    between atoms: C5*_13  and  O5*_14
REMARK    7  A    between atoms: C3*_15  and  O3*_16
REMARK    8  A    between atoms: C2*_17  and  O2*_18
REMARK                            x       y       z     vdW  Elec       q    Type
REMARK                         _______ _______ _______ _____ _____    ______ ____
ROOT
ATOM      1  C   UNL     1       2.710   7.617  18.196  0.00  0.00    +0.000 A 
ATOM      2  N   UNL     1       2.412   8.758  17.540  0.00  0.00    +0.000 NA
ATOM      3  N   UNL     1       1.541   9.396  18.359  0.00  0.00    +0.000 N 
ATOM      4  C   UNL     1       1.324   8.737  19.538  0.00  0.00    +0.000 A 
ATOM      5  N   UNL     1       0.530   9.137  20.547  0.00  0.00    +0.000 NA
ATOM      6  C   UNL     1       0.524   8.248  21.551  0.00  0.00    +0.000 A 
ATOM      7  N   UNL     1       1.193   7.084  21.626  0.00  0.00    +0.000 NA
ATOM      8  C   UNL     1       1.979   6.722  20.592  0.00  0.00    +0.000 A 
ATOM      9  N   UNL     1       2.651   5.515  20.742  0.00  0.00    +0.000 N 
ATOM     10  C   UNL     1       2.067   7.569  19.474  0.00  0.00    +0.000 A 
ATOM     11  H   UNL     1       2.603   5.205  21.706  0.00  0.00    +0.000 HD
ATOM     12  H   UNL     1       3.570   5.483  20.320  0.00  0.00    +0.000 HD
ENDROOT
BRANCH   1  16
ATOM     13  C   UNL     1       5.278   4.723  16.347  0.00  0.00    +0.000 A 
ATOM     14  C   UNL     1       5.572   6.085  16.268  0.00  0.00    +0.000 A 
ATOM     15  C   UNL     1       4.744   7.029  16.883  0.00  0.00    +0.000 A 
ATOM     16  C   UNL     1       3.589   6.627  17.566  0.00  0.00    +0.000 A 
ATOM     17  C   UNL     1       3.277   5.261  17.596  0.00  0.00    +0.000 A 
ATOM     18  C   UNL     1       4.126   4.313  17.012  0.00  0.00    +0.000 A 
BRANCH  13  20
ATOM     19  C   UNL     1       6.216   4.035  14.286  0.00  0.00    +0.000 C 
ATOM     20  O   UNL     1       6.156   3.897  15.701  0.00  0.00    +0.000 OA
ENDBRANCH  13  20
ENDBRANCH   1  16
BRANCH   3  21
ATOM     21  C1* UNL     1       0.900  10.632  17.952  0.00  0.00    +0.000 C 
ATOM     22  O4* UNL     1       1.476  11.737  18.698  0.00  0.00    +0.000 OA
ATOM     23  C4* UNL     1       0.407  12.588  19.175  0.00  0.00    +0.000 C 
ATOM     24  C3* UNL     1      -0.858  12.139  18.456  0.00  0.00    +0.000 C 
ATOM     25  C2* UNL     1      -0.612  10.661  18.196  0.00  0.00    +0.000 C 
BRANCH  24  26
ATOM     26  O3* UNL     1      -1.005  12.794  17.179  0.00  0.00    +0.000 OA
ATOM     27  H3* UNL     1      -1.930  13.087  17.077  0.00  0.00    +0.000 HD
ENDBRANCH  24  26
BRANCH  25  28
ATOM     28  O2* UNL     1      -1.373  10.212  17.069  0.00  0.00    +0.000 OA
ATOM     29  H2* UNL     1      -0.963   9.367  16.784  0.00  0.00    +0.000 HD
ENDBRANCH  25  28
BRANCH  23  30
ATOM     30  C5* UNL     1       0.303  12.472  20.697  0.00  0.00    +0.000 C 
BRANCH  30  31
ATOM     31  O5* UNL     1       1.503  11.908  21.221  0.00  0.00    +0.000 OA
ATOM     32  H5* UNL     1       1.278  11.577  22.112  0.00  0.00    +0.000 HD
ENDBRANCH  30  31
ENDBRANCH  23  30
ENDBRANCH   3  21
TORSDOF 7
ENDMDL
