MODEL 1
REMARK VINA RESULT:      -7.3      0.000      0.000
REMARK  Name = 
REMARK  10 active torsions:
REMARK  status: ('A' for Active; 'I' for Inactive)
REMARK    1  A    between atoms: C_1  and  C_2
REMARK    2  A    between atoms: C_2  and  C_3
REMARK    3  A    between atoms: C_2  and  C_4
REMARK    4  A    between atoms: C_4  and  N_5
REMARK    5  A    between atoms: C_10  and  C_11
REMARK    6  A    between atoms: N_13  and  C_14
REMARK    7  A    between atoms: C_14  and  C_15
REMARK    8  A    between atoms: C_15  and  C_16
REMARK    9  A    between atoms: C_16  and  N_17
REMARK   10  A    between atoms: C_23  and  C_24
REMARK                            x       y       z     vdW  Elec       q    Type
REMARK                         _______ _______ _______ _____ _____    ______ ____
ROOT
ATOM      1  N   UNL     1       2.793   4.185  18.826  0.00  0.00    +0.000 N 
ATOM      2  C   UNL     1       1.997   4.575  17.760  0.00  0.00    +0.000 C 
ATOM      3  O   UNL     1       1.365   3.772  17.077  0.00  0.00    +0.000 OA
ATOM      4  C   UNL     1       1.839   6.060  17.484  0.00  0.00    +0.000 C 
ATOM      5  C   UNL     1       2.923   6.977  18.025  0.00  0.00    +0.000 C 
ATOM      6  C   UNL     1       3.350   6.563  19.430  0.00  0.00    +0.000 C 
ATOM      7  C   UNL     1       3.804   5.084  19.418  0.00  0.00    +0.000 C 
ENDROOT
BRANCH   7   8
ATOM      8  C   UNL     1       5.158   4.924  18.727  0.00  0.00    +0.000 A 
ATOM      9  C   UNL     1       5.300   4.461  17.409  0.00  0.00    +0.000 A 
ATOM     10  C   UNL     1       6.557   4.352  16.827  0.00  0.00    +0.000 A 
ATOM     11  C   UNL     1       7.659   4.708  17.586  0.00  0.00    +0.000 A 
ATOM     12  N   UNL     1       7.571   5.162  18.852  0.00  0.00    +0.000 NA
ATOM     13  C   UNL     1       6.335   5.257  19.394  0.00  0.00    +0.000 A 
ENDBRANCH   7   8
BRANCH   6  14
ATOM     14  C   UNL     1       2.234   6.761  20.455  0.00  0.00    +0.000 C 
ATOM     15  O   UNL     1       1.824   5.865  21.183  0.00  0.00    +0.000 OA
ATOM     16  N   UNL     1       1.742   8.052  20.540  0.00  0.00    +0.000 N 
ATOM     17  H   UNL     1       2.232   8.812  20.085  0.00  0.00    +0.000 HD
BRANCH  16  18
ATOM     18  C   UNL     1       0.711   8.385  21.506  0.00  0.00    +0.000 C 
BRANCH  18  19
ATOM     19  C   UNL     1       0.651   9.889  21.751  0.00  0.00    +0.000 C 
BRANCH  19  20
ATOM     20  C   UNL     1      -0.343  10.555  20.795  0.00  0.00    +0.000 C 
BRANCH  20  21
ATOM     21  N   UNL     1       0.014  10.392  19.375  0.00  0.00    +0.000 NA
ATOM     22  C   UNL     1       0.952  11.428  18.881  0.00  0.00    +0.000 C 
ATOM     23  C   UNL     1       0.328  12.831  18.813  0.00  0.00    +0.000 C 
ATOM     24  O   UNL     1      -0.820  12.835  17.957  0.00  0.00    +0.000 OA
ATOM     25  C   UNL     1      -1.795  11.877  18.391  0.00  0.00    +0.000 C 
ATOM     26  C   UNL     1      -1.196  10.462  18.517  0.00  0.00    +0.000 C 
ENDBRANCH  20  21
ENDBRANCH  19  20
ENDBRANCH  18  19
ENDBRANCH  16  18
ENDBRANCH   6  14
BRANCH   1  27
ATOM     27  C   UNL     1       2.832   2.764  19.213  0.00  0.00    +0.000 C 
BRANCH  27  29
ATOM     28  C   UNL     1       2.456   2.657  21.746  0.00  0.00    +0.000 C 
ATOM     29  C   UNL     1       1.867   2.384  20.361  0.00  0.00    +0.000 C 
ATOM     30  C   UNL     1       0.553   3.166  20.233  0.00  0.00    +0.000 C 
ENDBRANCH  27  29
ENDBRANCH   1  27
TORSDOF 8
ENDMDL
MODEL 2
REMARK VINA RESULT:      -6.8      0.943      1.391
REMARK  Name = 
REMARK  10 active torsions:
REMARK  status: ('A' for Active; 'I' for Inactive)
REMARK    1  A    between atoms: C_1  and  C_2
REMARK    2  A    between atoms: C_2  and  C_3
REMARK    3  A    between atoms: C_2  and  C_4
REMARK    4  A    between atoms: C_4  and  N_5
REMARK    5  A    between atoms: C_10  and  C_11
REMARK    6  A    between atoms: N_13  and  C_14
REMARK    7  A    between atoms: C_14  and  C_15
REMARK    8  A    between atoms: C_15  and  C_16
REMARK    9  A    between atoms: C_16  and  N_17
REMARK   10  A    between atoms: C_23  and  C_24
REMARK                            x       y       z     vdW  Elec       q    Type
REMARK                         _______ _______ _______ _____ _____    ______ ____
ROOT
ATOM      1  N   UNL     1       2.807   4.218  18.826  0.00  0.00    +0.000 N 
ATOM      2  C   UNL     1       2.000   4.585  17.761  0.00  0.00    +0.000 C 
ATOM      3  O   UNL     1       1.388   3.765  17.080  0.00  0.00    +0.000 OA
ATOM      4  C   UNL     1       1.803   6.065  17.482  0.00  0.00    +0.000 C 
ATOM      5  C   UNL     1       2.863   7.011  18.020  0.00  0.00    +0.000 C 
ATOM      6  C   UNL     1       3.303   6.611  19.425  0.00  0.00    +0.000 C 
ATOM      7  C   UNL     1       3.795   5.144  19.415  0.00  0.00    +0.000 C 
ENDROOT
BRANCH   7   8
ATOM      8  C   UNL     1       5.153   5.018  18.723  0.00  0.00    +0.000 A 
ATOM      9  C   UNL     1       6.353   5.472  19.292  0.00  0.00    +0.000 A 
ATOM     10  C   UNL     1       7.560   5.315  18.621  0.00  0.00    +0.000 A 
ATOM     11  C   UNL     1       7.540   4.702  17.380  0.00  0.00    +0.000 A 
ATOM     12  N   UNL     1       6.414   4.245  16.797  0.00  0.00    +0.000 NA
ATOM     13  C   UNL     1       5.253   4.413  17.472  0.00  0.00    +0.000 A 
ENDBRANCH   7   8
BRANCH   6  14
ATOM     14  C   UNL     1       2.184   6.782  20.451  0.00  0.00    +0.000 C 
ATOM     15  O   UNL     1       1.698   5.847  21.077  0.00  0.00    +0.000 OA
ATOM     16  N   UNL     1       1.782   8.088  20.664  0.00  0.00    +0.000 N 
ATOM     17  H   UNL     1       2.332   8.854  20.297  0.00  0.00    +0.000 HD
BRANCH  16  18
ATOM     18  C   UNL     1       0.757   8.393  21.646  0.00  0.00    +0.000 C 
BRANCH  18  19
ATOM     19  C   UNL     1      -0.289   9.344  21.074  0.00  0.00    +0.000 C 
BRANCH  19  20
ATOM     20  C   UNL     1       0.266  10.090  19.857  0.00  0.00    +0.000 C 
BRANCH  20  21
ATOM     21  N   UNL     1       0.999  11.319  20.209  0.00  0.00    +0.000 NA
ATOM     22  C   UNL     1       0.292  12.163  21.201  0.00  0.00    +0.000 C 
ATOM     23  C   UNL     1      -0.995  12.799  20.650  0.00  0.00    +0.000 C 
ATOM     24  O   UNL     1      -0.709  13.613  19.506  0.00  0.00    +0.000 OA
ATOM     25  C   UNL     1      -0.051  12.855  18.482  0.00  0.00    +0.000 C 
ATOM     26  C   UNL     1       1.222  12.161  19.007  0.00  0.00    +0.000 C 
ENDBRANCH  20  21
ENDBRANCH  19  20
ENDBRANCH  18  19
ENDBRANCH  16  18
ENDBRANCH   6  14
BRANCH   1  27
ATOM     27  C   UNL     1       2.883   2.799  19.216  0.00  0.00    +0.000 C 
BRANCH  27  29
ATOM     28  C   UNL     1       2.448   2.685  21.739  0.00  0.00    +0.000 C 
ATOM     29  C   UNL     1       1.904   2.388  20.340  0.00  0.00    +0.000 C 
ATOM     30  C   UNL     1       0.567   3.123  20.177  0.00  0.00    +0.000 C 
ENDBRANCH  27  29
ENDBRANCH   1  27
TORSDOF 8
ENDMDL
MODEL 3
REMARK VINA RESULT:      -6.8      1.079      1.361
REMARK  Name = 
REMARK  10 active torsions:
REMARK  status: ('A' for Active; 'I' for Inactive)
REMARK    1  A    between atoms: C_1  and  C_2
REMARK    2  A    between atoms: C_2  and  C_3
REMARK    3  A    between atoms: C_2  and  C_4
REMARK    4  A    between atoms: C_4  and  N_5
REMARK    5  A    between atoms: C_10  and  C_11
REMARK    6  A    between atoms: N_13  and  C_14
REMARK    7  A    between atoms: C_14  and  C_15
REMARK    8  A    between atoms: C_15  and  C_16
REMARK    9  A    between atoms: C_16  and  N_17
REMARK   10  A    between atoms: C_23  and  C_24
REMARK                            x       y       z     vdW  Elec       q    Type
REMARK                         _______ _______ _______ _____ _____    ______ ____
ROOT
ATOM      1  N   UNL     1       3.084   3.811  18.674  0.00  0.00    +0.000 N 
ATOM      2  C   UNL     1       1.931   3.841  17.906  0.00  0.00    +0.000 C 
ATOM      3  O   UNL     1       1.318   2.824  17.589  0.00  0.00    +0.000 OA
ATOM      4  C   UNL     1       1.360   5.194  17.515  0.00  0.00    +0.000 C 
ATOM      5  C   UNL     1       2.319   6.373  17.531  0.00  0.00    +0.000 C 
ATOM      6  C   UNL     1       3.243   6.321  18.744  0.00  0.00    +0.000 C 
ATOM      7  C   UNL     1       3.995   4.970  18.764  0.00  0.00    +0.000 C 
ENDROOT
BRANCH   7   8
ATOM      8  C   UNL     1       5.069   4.914  17.676  0.00  0.00    +0.000 A 
ATOM      9  C   UNL     1       4.945   4.139  16.512  0.00  0.00    +0.000 A 
ATOM     10  C   UNL     1       5.947   4.142  15.549  0.00  0.00    +0.000 A 
ATOM     11  C   UNL     1       7.066   4.925  15.776  0.00  0.00    +0.000 A 
ATOM     12  N   UNL     1       7.225   5.690  16.874  0.00  0.00    +0.000 NA
ATOM     13  C   UNL     1       6.235   5.667  17.796  0.00  0.00    +0.000 A 
ENDBRANCH   7   8
BRANCH   6  14
ATOM     14  C   UNL     1       2.484   6.519  20.055  0.00  0.00    +0.000 C 
ATOM     15  O   UNL     1       2.382   5.647  20.910  0.00  0.00    +0.000 OA
ATOM     16  N   UNL     1       1.954   7.784  20.238  0.00  0.00    +0.000 N 
ATOM     17  H   UNL     1       2.226   8.541  19.623  0.00  0.00    +0.000 HD
BRANCH  16  18
ATOM     18  C   UNL     1       1.248   8.118  21.461  0.00  0.00    +0.000 C 
BRANCH  18  19
ATOM     19  C   UNL     1       0.100   9.084  21.189  0.00  0.00    +0.000 C 
BRANCH  19  20
ATOM     20  C   UNL     1       0.631  10.428  20.682  0.00  0.00    +0.000 C 
BRANCH  20  21
ATOM     21  N   UNL     1       0.839  10.461  19.224  0.00  0.00    +0.000 NA
ATOM     22  C   UNL     1       1.515  11.694  18.753  0.00  0.00    +0.000 C 
ATOM     23  C   UNL     1       0.651  12.956  18.904  0.00  0.00    +0.000 C 
ATOM     24  O   UNL     1      -0.574  12.823  18.174  0.00  0.00    +0.000 OA
ATOM     25  C   UNL     1      -1.307  11.666  18.598  0.00  0.00    +0.000 C 
ATOM     26  C   UNL     1      -0.459  10.381  18.507  0.00  0.00    +0.000 C 
ENDBRANCH  20  21
ENDBRANCH  19  20
ENDBRANCH  18  19
ENDBRANCH  16  18
ENDBRANCH   6  14
BRANCH   1  27
ATOM     27  C   UNL     1       3.564   2.522  19.201  0.00  0.00    +0.000 C 
BRANCH  27  29
ATOM     28  C   UNL     1       2.708   2.332  21.610  0.00  0.00    +0.000 C 
ATOM     29  C   UNL     1       3.925   2.536  20.705  0.00  0.00    +0.000 C 
ATOM     30  C   UNL     1       4.949   1.437  21.018  0.00  0.00    +0.000 C 
ENDBRANCH  27  29
ENDBRANCH   1  27
TORSDOF 8
ENDMDL
MODEL 4
REMARK VINA RESULT:      -6.8      0.834      1.389
REMARK  Name = 
REMARK  10 active torsions:
REMARK  status: ('A' for Active; 'I' for Inactive)
REMARK    1  A    between atoms: C_1  and  C_2
REMARK    2  A    between atoms: C_2  and  C_3
REMARK    3  A    between atoms: C_2  and  C_4
REMARK    4  A    between atoms: C_4  and  N_5
REMARK    5  A    between atoms: C_10  and  C_11
REMARK    6  A    between atoms: N_13  and  C_14
REMARK    7  A    between atoms: C_14  and  C_15
REMARK    8  A    between atoms: C_15  and  C_16
REMARK    9  A    between atoms: C_16  and  N_17
REMARK   10  A    between atoms: C_23  and  C_24
REMARK                            x       y       z     vdW  Elec       q    Type
REMARK                         _______ _______ _______ _____ _____    ______ ____
ROOT
ATOM      1  N   UNL     1       2.633   4.324  18.896  0.00  0.00    +0.000 N 
ATOM      2  C   UNL     1       1.799   4.668  17.845  0.00  0.00    +0.000 C 
ATOM      3  O   UNL     1       1.138   3.838  17.224  0.00  0.00    +0.000 OA
ATOM      4  C   UNL     1       1.635   6.140  17.506  0.00  0.00    +0.000 C 
ATOM      5  C   UNL     1       2.741   7.076  17.963  0.00  0.00    +0.000 C 
ATOM      6  C   UNL     1       3.221   6.725  19.368  0.00  0.00    +0.000 C 
ATOM      7  C   UNL     1       3.669   5.245  19.407  0.00  0.00    +0.000 C 
ENDROOT
BRANCH   7   8
ATOM      8  C   UNL     1       4.996   5.046  18.673  0.00  0.00    +0.000 A 
ATOM      9  C   UNL     1       5.080   4.629  17.334  0.00  0.00    +0.000 A 
ATOM     10  C   UNL     1       6.315   4.483  16.714  0.00  0.00    +0.000 A 
ATOM     11  C   UNL     1       7.453   4.755  17.455  0.00  0.00    +0.000 A 
ATOM     12  N   UNL     1       7.420   5.163  18.740  0.00  0.00    +0.000 NA
ATOM     13  C   UNL     1       6.205   5.296  19.318  0.00  0.00    +0.000 A 
ENDBRANCH   7   8
BRANCH   6  14
ATOM     14  C   UNL     1       2.146   6.975  20.424  0.00  0.00    +0.000 C 
ATOM     15  O   UNL     1       1.523   6.075  20.976  0.00  0.00    +0.000 OA
ATOM     16  N   UNL     1       1.952   8.304  20.756  0.00  0.00    +0.000 N 
ATOM     17  H   UNL     1       2.613   9.006  20.447  0.00  0.00    +0.000 HD
BRANCH  16  18
ATOM     18  C   UNL     1       0.991   8.676  21.779  0.00  0.00    +0.000 C 
BRANCH  18  19
ATOM     19  C   UNL     1      -0.304   9.188  21.157  0.00  0.00    +0.000 C 
BRANCH  19  20
ATOM     20  C   UNL     1      -0.014  10.278  20.121  0.00  0.00    +0.000 C 
BRANCH  20  21
ATOM     21  N   UNL     1      -0.682  11.557  20.416  0.00  0.00    +0.000 NA
ATOM     22  C   UNL     1      -1.863  11.816  19.558  0.00  0.00    +0.000 C 
ATOM     23  C   UNL     1      -1.502  12.065  18.085  0.00  0.00    +0.000 C 
ATOM     24  O   UNL     1      -0.618  13.186  17.962  0.00  0.00    +0.000 OA
ATOM     25  C   UNL     1       0.571  12.996  18.741  0.00  0.00    +0.000 C 
ATOM     26  C   UNL     1       0.251  12.695  20.219  0.00  0.00    +0.000 C 
ENDBRANCH  20  21
ENDBRANCH  19  20
ENDBRANCH  18  19
ENDBRANCH  16  18
ENDBRANCH   6  14
BRANCH   1  27
ATOM     27  C   UNL     1       2.683   2.922  19.347  0.00  0.00    +0.000 C 
BRANCH  27  29
ATOM     28  C   UNL     1       2.074   2.208  21.732  0.00  0.00    +0.000 C 
ATOM     29  C   UNL     1       3.171   2.732  20.802  0.00  0.00    +0.000 C 
ATOM     30  C   UNL     1       4.349   1.750  20.845  0.00  0.00    +0.000 C 
ENDBRANCH  27  29
ENDBRANCH   1  27
TORSDOF 8
ENDMDL
MODEL 5
REMARK VINA RESULT:      -6.8      0.786      1.415
REMARK  Name = 
REMARK  10 active torsions:
REMARK  status: ('A' for Active; 'I' for Inactive)
REMARK    1  A    between atoms: C_1  and  C_2
REMARK    2  A    between atoms: C_2  and  C_3
REMARK    3  A    between atoms: C_2  and  C_4
REMARK    4  A    between atoms: C_4  and  N_5
REMARK    5  A    between atoms: C_10  and  C_11
REMARK    6  A    between atoms: N_13  and  C_14
REMARK    7  A    between atoms: C_14  and  C_15
REMARK    8  A    between atoms: C_15  and  C_16
REMARK    9  A    between atoms: C_16  and  N_17
REMARK   10  A    between atoms: C_23  and  C_24
REMARK                            x       y       z     vdW  Elec       q    Type
REMARK                         _______ _______ _______ _____ _____    ______ ____
ROOT
ATOM      1  N   UNL     1       2.825   4.188  18.830  0.00  0.00    +0.000 N 
ATOM      2  C   UNL     1       2.025   4.549  17.758  0.00  0.00    +0.000 C 
ATOM      3  O   UNL     1       1.417   3.726  17.077  0.00  0.00    +0.000 OA
ATOM      4  C   UNL     1       1.828   6.028  17.472  0.00  0.00    +0.000 C 
ATOM      5  C   UNL     1       2.884   6.977  18.012  0.00  0.00    +0.000 C 
ATOM      6  C   UNL     1       3.316   6.583  19.422  0.00  0.00    +0.000 C 
ATOM      7  C   UNL     1       3.809   5.117  19.421  0.00  0.00    +0.000 C 
ENDROOT
BRANCH   7   8
ATOM      8  C   UNL     1       5.171   4.989  18.736  0.00  0.00    +0.000 A 
ATOM      9  C   UNL     1       6.366   5.458  19.305  0.00  0.00    +0.000 A 
ATOM     10  C   UNL     1       7.577   5.298  18.643  0.00  0.00    +0.000 A 
ATOM     11  C   UNL     1       7.566   4.669  17.410  0.00  0.00    +0.000 A 
ATOM     12  N   UNL     1       6.446   4.197  16.828  0.00  0.00    +0.000 NA
ATOM     13  C   UNL     1       5.281   4.368  17.494  0.00  0.00    +0.000 A 
ENDBRANCH   7   8
BRANCH   6  14
ATOM     14  C   UNL     1       2.190   6.758  20.440  0.00  0.00    +0.000 C 
ATOM     15  O   UNL     1       1.773   5.844  21.143  0.00  0.00    +0.000 OA
ATOM     16  N   UNL     1       1.698   8.046  20.551  0.00  0.00    +0.000 N 
ATOM     17  H   UNL     1       2.193   8.816  20.119  0.00  0.00    +0.000 HD
BRANCH  16  18
ATOM     18  C   UNL     1       0.658   8.357  21.515  0.00  0.00    +0.000 C 
BRANCH  18  19
ATOM     19  C   UNL     1       0.381   9.856  21.562  0.00  0.00    +0.000 C 
BRANCH  19  20
ATOM     20  C   UNL     1      -0.402  10.301  20.324  0.00  0.00    +0.000 C 
BRANCH  20  21
ATOM     21  N   UNL     1      -1.044  11.618  20.481  0.00  0.00    +0.000 NA
ATOM     22  C   UNL     1      -2.097  11.884  19.472  0.00  0.00    +0.000 C 
ATOM     23  C   UNL     1      -1.543  12.054  18.047  0.00  0.00    +0.000 C 
ATOM     24  O   UNL     1      -0.602  13.132  17.994  0.00  0.00    +0.000 OA
ATOM     25  C   UNL     1       0.471  12.930  18.923  0.00  0.00    +0.000 C 
ATOM     26  C   UNL     1      -0.044  12.708  20.359  0.00  0.00    +0.000 C 
ENDBRANCH  20  21
ENDBRANCH  19  20
ENDBRANCH  18  19
ENDBRANCH  16  18
ENDBRANCH   6  14
BRANCH   1  27
ATOM     27  C   UNL     1       2.900   2.770  19.225  0.00  0.00    +0.000 C 
BRANCH  27  29
ATOM     28  C   UNL     1       2.464   2.668  21.749  0.00  0.00    +0.000 C 
ATOM     29  C   UNL     1       1.921   2.365  20.351  0.00  0.00    +0.000 C 
ATOM     30  C   UNL     1       0.583   3.099  20.184  0.00  0.00    +0.000 C 
ENDBRANCH  27  29
ENDBRANCH   1  27
TORSDOF 8
ENDMDL
MODEL 6
REMARK VINA RESULT:      -6.8      1.132      1.323
REMARK  Name = 
REMARK  10 active torsions:
REMARK  status: ('A' for Active; 'I' for Inactive)
REMARK    1  A    between atoms: C_1  and  C_2
REMARK    2  A    between atoms: C_2  and  C_3
REMARK    3  A    between atoms: C_2  and  C_4
REMARK    4  A    between atoms: C_4  and  N_5
REMARK    5  A    between atoms: C_10  and  C_11
REMARK    6  A    between atoms: N_13  and  C_14
REMARK    7  A    between atoms: C_14  and  C_15
REMARK    8  A    between atoms: C_15  and  C_16
REMARK    9  A    between atoms: C_16  and  N_17
REMARK   10  A    between atoms: C_23  and  C_24
REMARK                            x       y       z     vdW  Elec       q    Type
REMARK                         _______ _______ _______ _____ _____    ______ ____
ROOT
ATOM      1  N   UNL     1       2.770   4.201  18.847  0.00  0.00    +0.000 N 
ATOM      2  C   UNL     1       1.967   4.580  17.784  0.00  0.00    +0.000 C 
ATOM      3  O   UNL     1       1.322   3.772  17.118  0.00  0.00    +0.000 OA
ATOM      4  C   UNL     1       1.815   6.062  17.488  0.00  0.00    +0.000 C 
ATOM      5  C   UNL     1       2.909   6.980  18.004  0.00  0.00    +0.000 C 
ATOM      6  C   UNL     1       3.349   6.583  19.411  0.00  0.00    +0.000 C 
ATOM      7  C   UNL     1       3.793   5.102  19.416  0.00  0.00    +0.000 C 
ENDROOT
BRANCH   7   8
ATOM      8  C   UNL     1       5.139   4.923  18.713  0.00  0.00    +0.000 A 
ATOM      9  C   UNL     1       5.263   4.464  17.392  0.00  0.00    +0.000 A 
ATOM     10  C   UNL     1       6.514   4.338  16.800  0.00  0.00    +0.000 A 
ATOM     11  C   UNL     1       7.628   4.672  17.553  0.00  0.00    +0.000 A 
ATOM     12  N   UNL     1       7.557   5.121  18.821  0.00  0.00    +0.000 NA
ATOM     13  C   UNL     1       6.327   5.233  19.373  0.00  0.00    +0.000 A 
ENDBRANCH   7   8
BRANCH   6  14
ATOM     14  C   UNL     1       2.244   6.804  20.443  0.00  0.00    +0.000 C 
ATOM     15  O   UNL     1       1.757   5.897  21.109  0.00  0.00    +0.000 OA
ATOM     16  N   UNL     1       1.859   8.121  20.614  0.00  0.00    +0.000 N 
ATOM     17  H   UNL     1       2.412   8.867  20.212  0.00  0.00    +0.000 HD
BRANCH  16  18
ATOM     18  C   UNL     1       0.850   8.472  21.597  0.00  0.00    +0.000 C 
BRANCH  18  19
ATOM     19  C   UNL     1      -0.217   9.379  20.992  0.00  0.00    +0.000 C 
BRANCH  19  20
ATOM     20  C   UNL     1      -0.524  10.552  21.926  0.00  0.00    +0.000 C 
BRANCH  20  21
ATOM     21  N   UNL     1       0.264  11.760  21.626  0.00  0.00    +0.000 NA
ATOM     22  C   UNL     1      -0.348  13.007  22.143  0.00  0.00    +0.000 C 
ATOM     23  C   UNL     1      -1.654  13.386  21.426  0.00  0.00    +0.000 C 
ATOM     24  O   UNL     1      -1.430  13.558  20.021  0.00  0.00    +0.000 OA
ATOM     25  C   UNL     1      -0.867  12.375  19.438  0.00  0.00    +0.000 C 
ATOM     26  C   UNL     1       0.421  11.933  20.159  0.00  0.00    +0.000 C 
ENDBRANCH  20  21
ENDBRANCH  19  20
ENDBRANCH  18  19
ENDBRANCH  16  18
ENDBRANCH   6  14
BRANCH   1  27
ATOM     27  C   UNL     1       2.804   2.785  19.254  0.00  0.00    +0.000 C 
BRANCH  27  29
ATOM     28  C   UNL     1       2.405   2.700  21.785  0.00  0.00    +0.000 C 
ATOM     29  C   UNL     1       1.826   2.421  20.396  0.00  0.00    +0.000 C 
ATOM     30  C   UNL     1       0.519   3.213  20.250  0.00  0.00    +0.000 C 
ENDBRANCH  27  29
ENDBRANCH   1  27
TORSDOF 8
ENDMDL
MODEL 7
REMARK VINA RESULT:      -6.7      0.991      1.448
REMARK  Name = 
REMARK  10 active torsions:
REMARK  status: ('A' for Active; 'I' for Inactive)
REMARK    1  A    between atoms: C_1  and  C_2
REMARK    2  A    between atoms: C_2  and  C_3
REMARK    3  A    between atoms: C_2  and  C_4
REMARK    4  A    between atoms: C_4  and  N_5
REMARK    5  A    between atoms: C_10  and  C_11
REMARK    6  A    between atoms: N_13  and  C_14
REMARK    7  A    between atoms: C_14  and  C_15
REMARK    8  A    between atoms: C_15  and  C_16
REMARK    9  A    between atoms: C_16  and  N_17
REMARK   10  A    between atoms: C_23  and  C_24
REMARK                            x       y       z     vdW  Elec       q    Type
REMARK                         _______ _______ _______ _____ _____    ______ ____
ROOT
ATOM      1  N   UNL     1       2.744   4.270  18.872  0.00  0.00    +0.000 N 
ATOM      2  C   UNL     1       1.908   4.588  17.814  0.00  0.00    +0.000 C 
ATOM      3  O   UNL     1       1.286   3.737  17.181  0.00  0.00    +0.000 OA
ATOM      4  C   UNL     1       1.691   6.055  17.483  0.00  0.00    +0.000 C 
ATOM      5  C   UNL     1       2.755   7.030  17.957  0.00  0.00    +0.000 C 
ATOM      6  C   UNL     1       3.233   6.688  19.365  0.00  0.00    +0.000 C 
ATOM      7  C   UNL     1       3.739   5.226  19.400  0.00  0.00    +0.000 C 
ENDROOT
BRANCH   7   8
ATOM      8  C   UNL     1       5.079   5.084  18.678  0.00  0.00    +0.000 A 
ATOM      9  C   UNL     1       6.304   5.475  19.244  0.00  0.00    +0.000 A 
ATOM     10  C   UNL     1       7.493   5.306  18.546  0.00  0.00    +0.000 A 
ATOM     11  C   UNL     1       7.432   4.747  17.281  0.00  0.00    +0.000 A 
ATOM     12  N   UNL     1       6.282   4.352  16.700  0.00  0.00    +0.000 NA
ATOM     13  C   UNL     1       5.139   4.529  17.402  0.00  0.00    +0.000 A 
ENDBRANCH   7   8
BRANCH   6  14
ATOM     14  C   UNL     1       2.138   6.890  20.411  0.00  0.00    +0.000 C 
ATOM     15  O   UNL     1       1.601   5.964  21.009  0.00  0.00    +0.000 OA
ATOM     16  N   UNL     1       1.822   8.210  20.679  0.00  0.00    +0.000 N 
ATOM     17  H   UNL     1       2.416   8.953  20.333  0.00  0.00    +0.000 HD
BRANCH  16  18
ATOM     18  C   UNL     1       0.830   8.540  21.685  0.00  0.00    +0.000 C 
BRANCH  18  19
ATOM     19  C   UNL     1      -0.250   9.454  21.115  0.00  0.00    +0.000 C 
BRANCH  19  20
ATOM     20  C   UNL     1       0.368  10.737  20.552  0.00  0.00    +0.000 C 
BRANCH  20  21
ATOM     21  N   UNL     1       0.380  10.783  19.080  0.00  0.00    +0.000 NA
ATOM     22  C   UNL     1       1.691  11.183  18.514  0.00  0.00    +0.000 C 
ATOM     23  C   UNL     1       2.056  12.648  18.804  0.00  0.00    +0.000 C 
ATOM     24  O   UNL     1       1.061  13.533  18.276  0.00  0.00    +0.000 OA
ATOM     25  C   UNL     1      -0.236  13.230  18.804  0.00  0.00    +0.000 C 
ATOM     26  C   UNL     1      -0.623  11.755  18.576  0.00  0.00    +0.000 C 
ENDBRANCH  20  21
ENDBRANCH  19  20
ENDBRANCH  18  19
ENDBRANCH  16  18
ENDBRANCH   6  14
BRANCH   1  27
ATOM     27  C   UNL     1       2.844   2.868  19.314  0.00  0.00    +0.000 C 
BRANCH  27  29
ATOM     28  C   UNL     1       2.190   2.216  21.705  0.00  0.00    +0.000 C 
ATOM     29  C   UNL     1       3.312   2.687  20.777  0.00  0.00    +0.000 C 
ATOM     30  C   UNL     1       4.457   1.668  20.848  0.00  0.00    +0.000 C 
ENDBRANCH  27  29
ENDBRANCH   1  27
TORSDOF 8
ENDMDL
MODEL 8
REMARK VINA RESULT:      -6.7      1.370      1.908
REMARK  Name = 
REMARK  10 active torsions:
REMARK  status: ('A' for Active; 'I' for Inactive)
REMARK    1  A    between atoms: C_1  and  C_2
REMARK    2  A    between atoms: C_2  and  C_3
REMARK    3  A    between atoms: C_2  and  C_4
REMARK    4  A    between atoms: C_4  and  N_5
REMARK    5  A    between atoms: C_10  and  C_11
REMARK    6  A    between atoms: N_13  and  C_14
REMARK    7  A    between atoms: C_14  and  C_15
REMARK    8  A    between atoms: C_15  and  C_16
REMARK    9  A    between atoms: C_16  and  N_17
REMARK   10  A    between atoms: C_23  and  C_24
REMARK                            x       y       z     vdW  Elec       q    Type
REMARK                         _______ _______ _______ _____ _____    ______ ____
ROOT
ATOM      1  N   UNL     1       3.373   3.665  18.634  0.00  0.00    +0.000 N 
ATOM      2  C   UNL     1       2.154   3.527  17.989  0.00  0.00    +0.000 C 
ATOM      3  O   UNL     1       1.632   2.433  17.786  0.00  0.00    +0.000 OA
ATOM      4  C   UNL     1       1.400   4.786  17.596  0.00  0.00    +0.000 C 
ATOM      5  C   UNL     1       2.217   6.059  17.456  0.00  0.00    +0.000 C 
ATOM      6  C   UNL     1       3.256   6.178  18.568  0.00  0.00    +0.000 C 
ATOM      7  C   UNL     1       4.153   4.918  18.574  0.00  0.00    +0.000 C 
ENDROOT
BRANCH   7   8
ATOM      8  C   UNL     1       5.114   4.914  17.384  0.00  0.00    +0.000 A 
ATOM      9  C   UNL     1       4.939   4.096  16.256  0.00  0.00    +0.000 A 
ATOM     10  C   UNL     1       5.837   4.149  15.196  0.00  0.00    +0.000 A 
ATOM     11  C   UNL     1       6.905   5.025  15.290  0.00  0.00    +0.000 A 
ATOM     12  N   UNL     1       7.110   5.832  16.350  0.00  0.00    +0.000 NA
ATOM     13  C   UNL     1       6.221   5.760  17.367  0.00  0.00    +0.000 A 
ENDBRANCH   7   8
BRANCH   6  14
ATOM     14  C   UNL     1       2.612   6.370  19.940  0.00  0.00    +0.000 C 
ATOM     15  O   UNL     1       2.609   5.504  20.808  0.00  0.00    +0.000 OA
ATOM     16  N   UNL     1       2.067   7.622  20.159  0.00  0.00    +0.000 N 
ATOM     17  H   UNL     1       2.263   8.380  19.517  0.00  0.00    +0.000 HD
BRANCH  16  18
ATOM     18  C   UNL     1       1.464   7.951  21.438  0.00  0.00    +0.000 C 
BRANCH  18  19
ATOM     19  C   UNL     1       0.111   8.628  21.252  0.00  0.00    +0.000 C 
BRANCH  19  20
ATOM     20  C   UNL     1       0.190   9.708  20.169  0.00  0.00    +0.000 C 
BRANCH  20  21
ATOM     21  N   UNL     1      -0.063  11.067  20.679  0.00  0.00    +0.000 NA
ATOM     22  C   UNL     1      -1.209  11.739  20.021  0.00  0.00    +0.000 C 
ATOM     23  C   UNL     1      -0.947  12.080  18.545  0.00  0.00    +0.000 C 
ATOM     24  O   UNL     1       0.196  12.935  18.417  0.00  0.00    +0.000 OA
ATOM     25  C   UNL     1       1.360  12.336  19.003  0.00  0.00    +0.000 C 
ATOM     26  C   UNL     1       1.124  11.935  20.473  0.00  0.00    +0.000 C 
ENDBRANCH  20  21
ENDBRANCH  19  20
ENDBRANCH  18  19
ENDBRANCH  16  18
ENDBRANCH   6  14
BRANCH   1  27
ATOM     27  C   UNL     1       4.044   2.467  19.168  0.00  0.00    +0.000 C 
BRANCH  27  29
ATOM     28  C   UNL     1       2.859   2.331  21.436  0.00  0.00    +0.000 C 
ATOM     29  C   UNL     1       4.198   2.450  20.707  0.00  0.00    +0.000 C 
ATOM     30  C   UNL     1       5.089   1.277  21.140  0.00  0.00    +0.000 C 
ENDBRANCH  27  29
ENDBRANCH   1  27
TORSDOF 8
ENDMDL
MODEL 9
REMARK VINA RESULT:      -6.7      1.623      2.046
REMARK  Name = 
REMARK  10 active torsions:
REMARK  status: ('A' for Active; 'I' for Inactive)
REMARK    1  A    between atoms: C_1  and  C_2
REMARK    2  A    between atoms: C_2  and  C_3
REMARK    3  A    between atoms: C_2  and  C_4
REMARK    4  A    between atoms: C_4  and  N_5
REMARK    5  A    between atoms: C_10  and  C_11
REMARK    6  A    between atoms: N_13  and  C_14
REMARK    7  A    between atoms: C_14  and  C_15
REMARK    8  A    between atoms: C_15  and  C_16
REMARK    9  A    between atoms: C_16  and  N_17
REMARK   10  A    between atoms: C_23  and  C_24
REMARK                            x       y       z     vdW  Elec       q    Type
REMARK                         _______ _______ _______ _____ _____    ______ ____
ROOT
ATOM      1  N   UNL     1       2.738   4.512  18.837  0.00  0.00    +0.000 N 
ATOM      2  C   UNL     1       1.872   4.773  17.788  0.00  0.00    +0.000 C 
ATOM      3  O   UNL     1       1.381   3.884  17.096  0.00  0.00    +0.000 OA
ATOM      4  C   UNL     1       1.450   6.212  17.542  0.00  0.00    +0.000 C 
ATOM      5  C   UNL     1       2.363   7.297  18.090  0.00  0.00    +0.000 C 
ATOM      6  C   UNL     1       2.877   6.940  19.482  0.00  0.00    +0.000 C 
ATOM      7  C   UNL     1       3.584   5.565  19.436  0.00  0.00    +0.000 C 
ENDROOT
BRANCH   7   8
ATOM      8  C   UNL     1       4.935   5.658  18.726  0.00  0.00    +0.000 A 
ATOM      9  C   UNL     1       5.114   6.301  17.490  0.00  0.00    +0.000 A 
ATOM     10  C   UNL     1       6.371   6.368  16.902  0.00  0.00    +0.000 A 
ATOM     11  C   UNL     1       7.434   5.781  17.567  0.00  0.00    +0.000 A 
ATOM     12  N   UNL     1       7.311   5.160  18.756  0.00  0.00    +0.000 NA
ATOM     13  C   UNL     1       6.076   5.108  19.306  0.00  0.00    +0.000 A 
ENDBRANCH   7   8
BRANCH   6  14
ATOM     14  C   UNL     1       1.758   6.920  20.522  0.00  0.00    +0.000 C 
ATOM     15  O   UNL     1       1.450   5.919  21.158  0.00  0.00    +0.000 OA
ATOM     16  N   UNL     1       1.137   8.138  20.735  0.00  0.00    +0.000 N 
ATOM     17  H   UNL     1       1.541   8.986  20.357  0.00  0.00    +0.000 HD
BRANCH  16  18
ATOM     18  C   UNL     1       0.088   8.267  21.730  0.00  0.00    +0.000 C 
BRANCH  18  19
ATOM     19  C   UNL     1       0.448   9.315  22.778  0.00  0.00    +0.000 C 
BRANCH  19  20
ATOM     20  C   UNL     1      -0.690  10.325  22.947  0.00  0.00    +0.000 C 
BRANCH  20  21
ATOM     21  N   UNL     1      -0.306  11.702  22.592  0.00  0.00    +0.000 NA
ATOM     22  C   UNL     1      -1.281  12.722  23.048  0.00  0.00    +0.000 C 
ATOM     23  C   UNL     1      -2.627  12.649  22.308  0.00  0.00    +0.000 C 
ATOM     24  O   UNL     1      -2.441  12.819  20.898  0.00  0.00    +0.000 OA
ATOM     25  C   UNL     1      -1.531  11.842  20.373  0.00  0.00    +0.000 C 
ATOM     26  C   UNL     1      -0.182  11.851  21.120  0.00  0.00    +0.000 C 
ENDBRANCH  20  21
ENDBRANCH  19  20
ENDBRANCH  18  19
ENDBRANCH  16  18
ENDBRANCH   6  14
BRANCH   1  27
ATOM     27  C   UNL     1       3.033   3.114  19.195  0.00  0.00    +0.000 C 
BRANCH  27  29
ATOM     28  C   UNL     1       2.250   2.512  21.561  0.00  0.00    +0.000 C 
ATOM     29  C   UNL     1       3.435   2.900  20.674  0.00  0.00    +0.000 C 
ATOM     30  C   UNL     1       4.500   1.801  20.783  0.00  0.00    +0.000 C 
ENDBRANCH  27  29
ENDBRANCH   1  27
TORSDOF 8
ENDMDL
