MODEL 1
REMARK VINA RESULT:      -8.3      0.000      0.000
REMARK  Name = 
REMARK  7 active torsions:
REMARK  status: ('A' for Active; 'I' for Inactive)
REMARK    1  A    between atoms: C_1  and  N_2
REMARK    2  A    between atoms: C_6  and  O_7
REMARK    3  A    between atoms: O_7  and  C_8
REMARK    4  A    between atoms: C_8  and  C_10
REMARK    5  A    between atoms: C_10  and  O_11
REMARK    6  A    between atoms: C_10  and  C_12
REMARK    7  A    between atoms: C_10  and  C_18
REMARK                            x       y       z     vdW  Elec       q    Type
REMARK                         _______ _______ _______ _____ _____    ______ ____
ROOT
ATOM      1  C   UNL     1       6.184   4.700  16.037  0.00  0.00    +0.000 C 
ENDROOT
BRANCH   1   2
ATOM      2  C   UNL     1       6.510   4.611  14.532  0.00  0.00    +0.000 A 
ATOM      3  C   UNL     1       5.842   3.708  13.685  0.00  0.00    +0.000 A 
ATOM      4  C   UNL     1       6.213   3.573  12.340  0.00  0.00    +0.000 A 
ATOM      5  C   UNL     1       7.270   4.315  11.820  0.00  0.00    +0.000 A 
ATOM      6  C   UNL     1       7.928   5.232  12.631  0.00  0.00    +0.000 A 
ATOM      7  C   UNL     1       7.533   5.394  13.963  0.00  0.00    +0.000 A 
ENDBRANCH   1   2
BRANCH   1   8
ATOM      8  C   UNL     1       7.341   5.331  16.882  0.00  0.00    +0.000 C 
ATOM      9  C   UNL     1       7.183   6.835  17.191  0.00  0.00    +0.000 C 
ATOM     10  C   UNL     1       8.023   7.093  18.432  0.00  0.00    +0.000 C 
ATOM     11  C   UNL     1       8.096   5.776  19.184  0.00  0.00    +0.000 C 
ATOM     12  C   UNL     1       7.483   4.710  18.279  0.00  0.00    +0.000 C 
ENDBRANCH   1   8
BRANCH   1  13
ATOM     13  C   UNL     1       4.861   5.503  16.252  0.00  0.00    +0.000 C 
ATOM     14  O   UNL     1       4.699   6.685  16.014  0.00  0.00    +0.000 OA
BRANCH  13  15
ATOM     15  O   UNL     1       3.912   4.709  16.846  0.00  0.00    +0.000 OA
BRANCH  15  21
ATOM     16  C   UNL     1       4.337   2.270  20.269  0.00  0.00    +0.000 C 
ATOM     17  N   UNL     1       3.639   2.995  19.204  0.00  0.00    +0.000 NA
ATOM     18  C   UNL     1       2.184   2.815  19.318  0.00  0.00    +0.000 C 
ATOM     19  C   UNL     1       1.445   3.536  18.190  0.00  0.00    +0.000 C 
ATOM     20  C   UNL     1       1.819   5.017  18.126  0.00  0.00    +0.000 C 
ATOM     21  C   UNL     1       3.335   5.206  18.076  0.00  0.00    +0.000 C 
ATOM     22  C   UNL     1       4.001   4.421  19.224  0.00  0.00    +0.000 C 
ENDBRANCH  15  21
ENDBRANCH  13  15
ENDBRANCH   1  13
BRANCH   1  23
ATOM     23  O   UNL     1       5.954   3.375  16.568  0.00  0.00    +0.000 OA
ATOM     24  H   UNL     1       5.322   3.481  17.304  0.00  0.00    +0.000 HD
ENDBRANCH   1  23
TORSDOF 6
ENDMDL
MODEL 2
REMARK VINA RESULT:      -8.2      0.177      1.017
REMARK  Name = 
REMARK  7 active torsions:
REMARK  status: ('A' for Active; 'I' for Inactive)
REMARK    1  A    between atoms: C_1  and  N_2
REMARK    2  A    between atoms: C_6  and  O_7
REMARK    3  A    between atoms: O_7  and  C_8
REMARK    4  A    between atoms: C_8  and  C_10
REMARK    5  A    between atoms: C_10  and  O_11
REMARK    6  A    between atoms: C_10  and  C_12
REMARK    7  A    between atoms: C_10  and  C_18
REMARK                            x       y       z     vdW  Elec       q    Type
REMARK                         _______ _______ _______ _____ _____    ______ ____
ROOT
ATOM      1  C   UNL     1       6.278   4.698  15.992  0.00  0.00    +0.000 C 
ENDROOT
BRANCH   1   2
ATOM      2  C   UNL     1       6.674   4.554  14.509  0.00  0.00    +0.000 A 
ATOM      3  C   UNL     1       7.641   5.388  13.919  0.00  0.00    +0.000 A 
ATOM      4  C   UNL     1       7.923   5.306  12.549  0.00  0.00    +0.000 A 
ATOM      5  C   UNL     1       7.232   4.412  11.736  0.00  0.00    +0.000 A 
ATOM      6  C   UNL     1       6.290   3.560  12.301  0.00  0.00    +0.000 A 
ATOM      7  C   UNL     1       6.036   3.615  13.675  0.00  0.00    +0.000 A 
ENDBRANCH   1   2
BRANCH   1   8
ATOM      8  C   UNL     1       7.404   5.339  16.871  0.00  0.00    +0.000 C 
ATOM      9  C   UNL     1       7.198   6.830  17.215  0.00  0.00    +0.000 C 
ATOM     10  C   UNL     1       8.012   7.080  18.476  0.00  0.00    +0.000 C 
ATOM     11  C   UNL     1       8.111   5.746  19.195  0.00  0.00    +0.000 C 
ATOM     12  C   UNL     1       7.543   4.687  18.255  0.00  0.00    +0.000 C 
ENDBRANCH   1   8
BRANCH   1  13
ATOM     13  C   UNL     1       4.960   5.526  16.118  0.00  0.00    +0.000 C 
ATOM     14  O   UNL     1       4.810   6.683  15.771  0.00  0.00    +0.000 OA
BRANCH  13  15
ATOM     15  O   UNL     1       3.997   4.797  16.771  0.00  0.00    +0.000 OA
BRANCH  15  21
ATOM     16  C   UNL     1       4.239   2.371  20.221  0.00  0.00    +0.000 C 
ATOM     17  N   UNL     1       3.598   3.146  19.155  0.00  0.00    +0.000 NA
ATOM     18  C   UNL     1       2.134   3.104  19.290  0.00  0.00    +0.000 C 
ATOM     19  C   UNL     1       1.450   3.878  18.162  0.00  0.00    +0.000 C 
ATOM     20  C   UNL     1       1.961   5.316  18.074  0.00  0.00    +0.000 C 
ATOM     21  C   UNL     1       3.487   5.361  18.002  0.00  0.00    +0.000 C 
ATOM     22  C   UNL     1       4.092   4.531  19.152  0.00  0.00    +0.000 C 
ENDBRANCH  15  21
ENDBRANCH  13  15
ENDBRANCH   1  13
BRANCH   1  23
ATOM     23  O   UNL     1       6.001   3.394  16.555  0.00  0.00    +0.000 OA
ATOM     24  H   UNL     1       5.107   3.447  16.941  0.00  0.00    +0.000 HD
ENDBRANCH   1  23
TORSDOF 6
ENDMDL
MODEL 3
REMARK VINA RESULT:      -7.9      0.860      1.059
REMARK  Name = 
REMARK  7 active torsions:
REMARK  status: ('A' for Active; 'I' for Inactive)
REMARK    1  A    between atoms: C_1  and  N_2
REMARK    2  A    between atoms: C_6  and  O_7
REMARK    3  A    between atoms: O_7  and  C_8
REMARK    4  A    between atoms: C_8  and  C_10
REMARK    5  A    between atoms: C_10  and  O_11
REMARK    6  A    between atoms: C_10  and  C_12
REMARK    7  A    between atoms: C_10  and  C_18
REMARK                            x       y       z     vdW  Elec       q    Type
REMARK                         _______ _______ _______ _____ _____    ______ ____
ROOT
ATOM      1  C   UNL     1       6.160   4.760  16.309  0.00  0.00    +0.000 C 
ENDROOT
BRANCH   1   2
ATOM      2  C   UNL     1       6.400   4.625  14.792  0.00  0.00    +0.000 A 
ATOM      3  C   UNL     1       5.624   3.763  13.996  0.00  0.00    +0.000 A 
ATOM      4  C   UNL     1       5.913   3.581  12.637  0.00  0.00    +0.000 A 
ATOM      5  C   UNL     1       6.995   4.234  12.050  0.00  0.00    +0.000 A 
ATOM      6  C   UNL     1       7.760   5.110  12.810  0.00  0.00    +0.000 A 
ATOM      7  C   UNL     1       7.448   5.320  14.157  0.00  0.00    +0.000 A 
ENDBRANCH   1   2
BRANCH   1   8
ATOM      8  C   UNL     1       7.361   5.420  17.066  0.00  0.00    +0.000 C 
ATOM      9  C   UNL     1       7.229   6.940  17.307  0.00  0.00    +0.000 C 
ATOM     10  C   UNL     1       8.129   7.250  18.493  0.00  0.00    +0.000 C 
ATOM     11  C   UNL     1       8.228   5.971  19.305  0.00  0.00    +0.000 C 
ATOM     12  C   UNL     1       7.564   4.868  18.485  0.00  0.00    +0.000 C 
ENDBRANCH   1   8
BRANCH   1  13
ATOM     13  C   UNL     1       4.848   5.565  16.574  0.00  0.00    +0.000 C 
ATOM     14  O   UNL     1       4.460   6.526  15.935  0.00  0.00    +0.000 OA
BRANCH  13  15
ATOM     15  O   UNL     1       4.223   5.101  17.705  0.00  0.00    +0.000 OA
BRANCH  15  21
ATOM     16  C   UNL     1       2.181   4.173  21.285  0.00  0.00    +0.000 C 
ATOM     17  N   UNL     1       2.705   3.960  19.933  0.00  0.00    +0.000 NA
ATOM     18  C   UNL     1       2.351   2.619  19.443  0.00  0.00    +0.000 C 
ATOM     19  C   UNL     1       2.924   2.369  18.047  0.00  0.00    +0.000 C 
ATOM     20  C   UNL     1       2.495   3.454  17.059  0.00  0.00    +0.000 C 
ATOM     21  C   UNL     1       2.802   4.851  17.599  0.00  0.00    +0.000 C 
ATOM     22  C   UNL     1       2.220   5.005  19.018  0.00  0.00    +0.000 C 
ENDBRANCH  15  21
ENDBRANCH  13  15
ENDBRANCH   1  13
BRANCH   1  23
ATOM     23  O   UNL     1       5.967   3.451  16.894  0.00  0.00    +0.000 OA
ATOM     24  H   UNL     1       6.680   3.336  17.549  0.00  0.00    +0.000 HD
ENDBRANCH   1  23
TORSDOF 6
ENDMDL
MODEL 4
REMARK VINA RESULT:      -7.5      1.357      1.843
REMARK  Name = 
REMARK  7 active torsions:
REMARK  status: ('A' for Active; 'I' for Inactive)
REMARK    1  A    between atoms: C_1  and  N_2
REMARK    2  A    between atoms: C_6  and  O_7
REMARK    3  A    between atoms: O_7  and  C_8
REMARK    4  A    between atoms: C_8  and  C_10
REMARK    5  A    between atoms: C_10  and  O_11
REMARK    6  A    between atoms: C_10  and  C_12
REMARK    7  A    between atoms: C_10  and  C_18
REMARK                            x       y       z     vdW  Elec       q    Type
REMARK                         _______ _______ _______ _____ _____    ______ ____
ROOT
ATOM      1  C   UNL     1       6.125   4.892  16.332  0.00  0.00    +0.000 C 
ENDROOT
BRANCH   1   2
ATOM      2  C   UNL     1       6.388   4.690  14.826  0.00  0.00    +0.000 A 
ATOM      3  C   UNL     1       5.612   3.807  14.054  0.00  0.00    +0.000 A 
ATOM      4  C   UNL     1       5.922   3.565  12.709  0.00  0.00    +0.000 A 
ATOM      5  C   UNL     1       7.023   4.177  12.114  0.00  0.00    +0.000 A 
ATOM      6  C   UNL     1       7.789   5.072  12.851  0.00  0.00    +0.000 A 
ATOM      7  C   UNL     1       7.457   5.343  14.182  0.00  0.00    +0.000 A 
ENDBRANCH   1   2
BRANCH   1   8
ATOM      8  C   UNL     1       7.353   5.487  17.098  0.00  0.00    +0.000 C 
ATOM      9  C   UNL     1       7.306   7.014  17.328  0.00  0.00    +0.000 C 
ATOM     10  C   UNL     1       8.210   7.281  18.522  0.00  0.00    +0.000 C 
ATOM     11  C   UNL     1       8.226   6.004  19.343  0.00  0.00    +0.000 C 
ATOM     12  C   UNL     1       7.510   4.935  18.523  0.00  0.00    +0.000 C 
ENDBRANCH   1   8
BRANCH   1  13
ATOM     13  C   UNL     1       4.870   5.798  16.540  0.00  0.00    +0.000 C 
ATOM     14  O   UNL     1       4.526   6.715  15.817  0.00  0.00    +0.000 OA
BRANCH  13  15
ATOM     15  O   UNL     1       4.243   5.483  17.721  0.00  0.00    +0.000 OA
BRANCH  15  21
ATOM     16  C   UNL     1       1.845   7.813  20.302  0.00  0.00    +0.000 C 
ATOM     17  N   UNL     1       2.437   6.598  19.737  0.00  0.00    +0.000 NA
ATOM     18  C   UNL     1       1.961   5.405  20.454  0.00  0.00    +0.000 C 
ATOM     19  C   UNL     1       2.602   4.132  19.899  0.00  0.00    +0.000 C 
ATOM     20  C   UNL     1       2.382   4.000  18.392  0.00  0.00    +0.000 C 
ATOM     21  C   UNL     1       2.814   5.268  17.654  0.00  0.00    +0.000 C 
ATOM     22  C   UNL     1       2.151   6.502  18.298  0.00  0.00    +0.000 C 
ENDBRANCH  15  21
ENDBRANCH  13  15
ENDBRANCH   1  13
BRANCH   1  23
ATOM     23  O   UNL     1       5.823   3.620  16.952  0.00  0.00    +0.000 OA
ATOM     24  H   UNL     1       5.438   3.825  17.825  0.00  0.00    +0.000 HD
ENDBRANCH   1  23
TORSDOF 6
ENDMDL
MODEL 5
REMARK VINA RESULT:      -7.5      1.110      1.674
REMARK  Name = 
REMARK  7 active torsions:
REMARK  status: ('A' for Active; 'I' for Inactive)
REMARK    1  A    between atoms: C_1  and  N_2
REMARK    2  A    between atoms: C_6  and  O_7
REMARK    3  A    between atoms: O_7  and  C_8
REMARK    4  A    between atoms: C_8  and  C_10
REMARK    5  A    between atoms: C_10  and  O_11
REMARK    6  A    between atoms: C_10  and  C_12
REMARK    7  A    between atoms: C_10  and  C_18
REMARK                            x       y       z     vdW  Elec       q    Type
REMARK                         _______ _______ _______ _____ _____    ______ ____
ROOT
ATOM      1  C   UNL     1       6.307   5.099  16.785  0.00  0.00    +0.000 C 
ENDROOT
BRANCH   1   2
ATOM      2  C   UNL     1       6.365   4.658  15.308  0.00  0.00    +0.000 A 
ATOM      3  C   UNL     1       7.430   5.032  14.468  0.00  0.00    +0.000 A 
ATOM      4  C   UNL     1       7.423   4.702  13.107  0.00  0.00    +0.000 A 
ATOM      5  C   UNL     1       6.346   4.016  12.550  0.00  0.00    +0.000 A 
ATOM      6  C   UNL     1       5.295   3.615  13.365  0.00  0.00    +0.000 A 
ATOM      7  C   UNL     1       5.320   3.911  14.732  0.00  0.00    +0.000 A 
ENDBRANCH   1   2
BRANCH   1   8
ATOM      8  C   UNL     1       7.437   6.110  17.172  0.00  0.00    +0.000 C 
ATOM      9  C   UNL     1       7.074   7.600  16.992  0.00  0.00    +0.000 C 
ATOM     10  C   UNL     1       8.001   8.367  17.922  0.00  0.00    +0.000 C 
ATOM     11  C   UNL     1       8.376   7.411  19.041  0.00  0.00    +0.000 C 
ATOM     12  C   UNL     1       7.843   6.035  18.651  0.00  0.00    +0.000 C 
ENDBRANCH   1   8
BRANCH   1  13
ATOM     13  C   UNL     1       4.905   5.708  17.108  0.00  0.00    +0.000 C 
ATOM     14  O   UNL     1       4.444   6.726  16.627  0.00  0.00    +0.000 OA
BRANCH  13  15
ATOM     15  O   UNL     1       4.286   4.985  18.097  0.00  0.00    +0.000 OA
BRANCH  15  21
ATOM     16  C   UNL     1       2.142   3.720  21.510  0.00  0.00    +0.000 C 
ATOM     17  N   UNL     1       2.711   3.634  20.162  0.00  0.00    +0.000 NA
ATOM     18  C   UNL     1       2.388   2.340  19.542  0.00  0.00    +0.000 C 
ATOM     19  C   UNL     1       3.008   2.223  18.149  0.00  0.00    +0.000 C 
ATOM     20  C   UNL     1       2.599   3.389  17.249  0.00  0.00    +0.000 C 
ATOM     21  C   UNL     1       2.872   4.734  17.923  0.00  0.00    +0.000 C 
ATOM     22  C   UNL     1       2.243   4.753  19.330  0.00  0.00    +0.000 C 
ENDBRANCH  15  21
ENDBRANCH  13  15
ENDBRANCH   1  13
BRANCH   1  23
ATOM     23  O   UNL     1       6.465   3.947  17.647  0.00  0.00    +0.000 OA
ATOM     24  H   UNL     1       5.589   3.522  17.698  0.00  0.00    +0.000 HD
ENDBRANCH   1  23
TORSDOF 6
ENDMDL
MODEL 6
REMARK VINA RESULT:      -7.5      1.348      2.094
REMARK  Name = 
REMARK  7 active torsions:
REMARK  status: ('A' for Active; 'I' for Inactive)
REMARK    1  A    between atoms: C_1  and  N_2
REMARK    2  A    between atoms: C_6  and  O_7
REMARK    3  A    between atoms: O_7  and  C_8
REMARK    4  A    between atoms: C_8  and  C_10
REMARK    5  A    between atoms: C_10  and  O_11
REMARK    6  A    between atoms: C_10  and  C_12
REMARK    7  A    between atoms: C_10  and  C_18
REMARK                            x       y       z     vdW  Elec       q    Type
REMARK                         _______ _______ _______ _____ _____    ______ ____
ROOT
ATOM      1  C   UNL     1       6.192   4.886  16.266  0.00  0.00    +0.000 C 
ENDROOT
BRANCH   1   2
ATOM      2  C   UNL     1       6.538   4.623  14.786  0.00  0.00    +0.000 A 
ATOM      3  C   UNL     1       7.565   5.328  14.133  0.00  0.00    +0.000 A 
ATOM      4  C   UNL     1       7.808   5.143  12.765  0.00  0.00    +0.000 A 
ATOM      5  C   UNL     1       7.018   4.273  12.017  0.00  0.00    +0.000 A 
ATOM      6  C   UNL     1       6.014   3.547  12.647  0.00  0.00    +0.000 A 
ATOM      7  C   UNL     1       5.797   3.703  14.020  0.00  0.00    +0.000 A 
ENDBRANCH   1   2
BRANCH   1   8
ATOM      8  C   UNL     1       7.396   5.453  17.090  0.00  0.00    +0.000 C 
ATOM      9  C   UNL     1       7.357   6.975  17.346  0.00  0.00    +0.000 C 
ATOM     10  C   UNL     1       8.217   7.208  18.579  0.00  0.00    +0.000 C 
ATOM     11  C   UNL     1       8.187   5.916  19.376  0.00  0.00    +0.000 C 
ATOM     12  C   UNL     1       7.491   4.871  18.508  0.00  0.00    +0.000 C 
ENDBRANCH   1   8
BRANCH   1  13
ATOM     13  C   UNL     1       4.969   5.854  16.365  0.00  0.00    +0.000 C 
ATOM     14  O   UNL     1       4.655   6.692  15.541  0.00  0.00    +0.000 OA
BRANCH  13  15
ATOM     15  O   UNL     1       4.335   5.700  17.574  0.00  0.00    +0.000 OA
BRANCH  15  21
ATOM     16  C   UNL     1       1.868   7.798  20.286  0.00  0.00    +0.000 C 
ATOM     17  N   UNL     1       2.514   6.638  19.665  0.00  0.00    +0.000 NA
ATOM     18  C   UNL     1       2.118   5.395  20.344  0.00  0.00    +0.000 C 
ATOM     19  C   UNL     1       2.815   4.181  19.729  0.00  0.00    +0.000 C 
ATOM     20  C   UNL     1       2.572   4.093  18.222  0.00  0.00    +0.000 C 
ATOM     21  C   UNL     1       2.919   5.409  17.526  0.00  0.00    +0.000 C 
ATOM     22  C   UNL     1       2.204   6.580  18.228  0.00  0.00    +0.000 C 
ENDBRANCH  15  21
ENDBRANCH  13  15
ENDBRANCH   1  13
BRANCH   1  23
ATOM     23  O   UNL     1       5.793   3.651  16.904  0.00  0.00    +0.000 OA
ATOM     24  H   UNL     1       6.449   2.980  16.635  0.00  0.00    +0.000 HD
ENDBRANCH   1  23
TORSDOF 6
ENDMDL
MODEL 7
REMARK VINA RESULT:      -7.4      2.571      6.369
REMARK  Name = 
REMARK  7 active torsions:
REMARK  status: ('A' for Active; 'I' for Inactive)
REMARK    1  A    between atoms: C_1  and  N_2
REMARK    2  A    between atoms: C_6  and  O_7
REMARK    3  A    between atoms: O_7  and  C_8
REMARK    4  A    between atoms: C_8  and  C_10
REMARK    5  A    between atoms: C_10  and  O_11
REMARK    6  A    between atoms: C_10  and  C_12
REMARK    7  A    between atoms: C_10  and  C_18
REMARK                            x       y       z     vdW  Elec       q    Type
REMARK                         _______ _______ _______ _____ _____    ______ ____
ROOT
ATOM      1  C   UNL     1       3.801   4.871  18.542  0.00  0.00    +0.000 C 
ENDROOT
BRANCH   1   2
ATOM      2  C   UNL     1       2.626   4.099  19.176  0.00  0.00    +0.000 A 
ATOM      3  C   UNL     1       2.471   4.007  20.571  0.00  0.00    +0.000 A 
ATOM      4  C   UNL     1       1.452   3.226  21.133  0.00  0.00    +0.000 A 
ATOM      5  C   UNL     1       0.584   2.503  20.318  0.00  0.00    +0.000 A 
ATOM      6  C   UNL     1       0.703   2.598  18.937  0.00  0.00    +0.000 A 
ATOM      7  C   UNL     1       1.695   3.408  18.376  0.00  0.00    +0.000 A 
ENDBRANCH   1   2
BRANCH   1   8
ATOM      8  C   UNL     1       3.662   6.424  18.677  0.00  0.00    +0.000 C 
ATOM      9  C   UNL     1       3.552   7.192  17.341  0.00  0.00    +0.000 C 
ATOM     10  C   UNL     1       2.865   8.507  17.675  0.00  0.00    +0.000 C 
ATOM     11  C   UNL     1       2.030   8.253  18.917  0.00  0.00    +0.000 C 
ATOM     12  C   UNL     1       2.394   6.861  19.425  0.00  0.00    +0.000 C 
ENDBRANCH   1   8
BRANCH   1  13
ATOM     13  C   UNL     1       5.153   4.396  19.164  0.00  0.00    +0.000 C 
ATOM     14  O   UNL     1       5.396   3.273  19.566  0.00  0.00    +0.000 OA
BRANCH  13  15
ATOM     15  O   UNL     1       6.019   5.454  19.290  0.00  0.00    +0.000 OA
BRANCH  15  21
ATOM     16  C   UNL     1       8.094   8.873  17.931  0.00  0.00    +0.000 C 
ATOM     17  N   UNL     1       7.454   7.557  17.846  0.00  0.00    +0.000 NA
ATOM     18  C   UNL     1       7.533   7.027  16.477  0.00  0.00    +0.000 C 
ATOM     19  C   UNL     1       6.835   5.671  16.366  0.00  0.00    +0.000 C 
ATOM     20  C   UNL     1       7.383   4.669  17.383  0.00  0.00    +0.000 C 
ATOM     21  C   UNL     1       7.364   5.247  18.798  0.00  0.00    +0.000 C 
ATOM     22  C   UNL     1       8.055   6.625  18.812  0.00  0.00    +0.000 C 
ENDBRANCH  15  21
ENDBRANCH  13  15
ENDBRANCH   1  13
BRANCH   1  23
ATOM     23  O   UNL     1       3.872   4.580  17.127  0.00  0.00    +0.000 OA
ATOM     24  H   UNL     1       3.240   3.854  16.965  0.00  0.00    +0.000 HD
ENDBRANCH   1  23
TORSDOF 6
ENDMDL
MODEL 8
REMARK VINA RESULT:      -7.4      2.641      6.650
REMARK  Name = 
REMARK  7 active torsions:
REMARK  status: ('A' for Active; 'I' for Inactive)
REMARK    1  A    between atoms: C_1  and  N_2
REMARK    2  A    between atoms: C_6  and  O_7
REMARK    3  A    between atoms: O_7  and  C_8
REMARK    4  A    between atoms: C_8  and  C_10
REMARK    5  A    between atoms: C_10  and  O_11
REMARK    6  A    between atoms: C_10  and  C_12
REMARK    7  A    between atoms: C_10  and  C_18
REMARK                            x       y       z     vdW  Elec       q    Type
REMARK                         _______ _______ _______ _____ _____    ______ ____
ROOT
ATOM      1  C   UNL     1       2.763   5.774  19.478  0.00  0.00    +0.000 C 
ENDROOT
BRANCH   1   2
ATOM      2  C   UNL     1       2.253   7.226  19.371  0.00  0.00    +0.000 A 
ATOM      3  C   UNL     1       1.598   7.859  20.443  0.00  0.00    +0.000 A 
ATOM      4  C   UNL     1       1.060   9.145  20.300  0.00  0.00    +0.000 A 
ATOM      5  C   UNL     1       1.141   9.815  19.082  0.00  0.00    +0.000 A 
ATOM      6  C   UNL     1       1.806   9.219  18.016  0.00  0.00    +0.000 A 
ATOM      7  C   UNL     1       2.377   7.952  18.170  0.00  0.00    +0.000 A 
ENDBRANCH   1   2
BRANCH   1   8
ATOM      8  C   UNL     1       1.802   4.842  20.290  0.00  0.00    +0.000 C 
ATOM      9  C   UNL     1       1.200   3.665  19.492  0.00  0.00    +0.000 C 
ATOM     10  C   UNL     1       0.817   2.617  20.526  0.00  0.00    +0.000 C 
ATOM     11  C   UNL     1       1.729   2.838  21.721  0.00  0.00    +0.000 C 
ATOM     12  C   UNL     1       2.489   4.138  21.469  0.00  0.00    +0.000 C 
ENDBRANCH   1   8
BRANCH   1  13
ATOM     13  C   UNL     1       3.005   5.185  18.052  0.00  0.00    +0.000 C 
ATOM     14  O   UNL     1       2.142   4.878  17.251  0.00  0.00    +0.000 OA
BRANCH  13  15
ATOM     15  O   UNL     1       4.345   4.962  17.848  0.00  0.00    +0.000 OA
BRANCH  15  21
ATOM     16  C   UNL     1       6.147   3.912  14.175  0.00  0.00    +0.000 C 
ATOM     17  N   UNL     1       6.080   4.357  15.570  0.00  0.00    +0.000 NA
ATOM     18  C   UNL     1       7.428   4.619  16.098  0.00  0.00    +0.000 C 
ATOM     19  C   UNL     1       7.375   5.048  17.565  0.00  0.00    +0.000 C 
ATOM     20  C   UNL     1       6.454   6.251  17.768  0.00  0.00    +0.000 C 
ATOM     21  C   UNL     1       5.074   6.004  17.158  0.00  0.00    +0.000 C 
ATOM     22  C   UNL     1       5.221   5.544  15.694  0.00  0.00    +0.000 C 
ENDBRANCH  15  21
ENDBRANCH  13  15
ENDBRANCH   1  13
BRANCH   1  23
ATOM     23  O   UNL     1       4.039   5.751  20.157  0.00  0.00    +0.000 OA
ATOM     24  H   UNL     1       4.284   6.683  20.312  0.00  0.00    +0.000 HD
ENDBRANCH   1  23
TORSDOF 6
ENDMDL
MODEL 9
REMARK VINA RESULT:      -7.4      2.560      6.323
REMARK  Name = 
REMARK  7 active torsions:
REMARK  status: ('A' for Active; 'I' for Inactive)
REMARK    1  A    between atoms: C_1  and  N_2
REMARK    2  A    between atoms: C_6  and  O_7
REMARK    3  A    between atoms: O_7  and  C_8
REMARK    4  A    between atoms: C_8  and  C_10
REMARK    5  A    between atoms: C_10  and  O_11
REMARK    6  A    between atoms: C_10  and  C_12
REMARK    7  A    between atoms: C_10  and  C_18
REMARK                            x       y       z     vdW  Elec       q    Type
REMARK                         _______ _______ _______ _____ _____    ______ ____
ROOT
ATOM      1  C   UNL     1       3.830   4.825  18.512  0.00  0.00    +0.000 C 
ENDROOT
BRANCH   1   2
ATOM      2  C   UNL     1       2.664   4.018  19.118  0.00  0.00    +0.000 A 
ATOM      3  C   UNL     1       1.688   3.410  18.308  0.00  0.00    +0.000 A 
ATOM      4  C   UNL     1       0.585   2.759  18.876  0.00  0.00    +0.000 A 
ATOM      5  C   UNL     1       0.419   2.722  20.259  0.00  0.00    +0.000 A 
ATOM      6  C   UNL     1       1.384   3.294  21.079  0.00  0.00    +0.000 A 
ATOM      7  C   UNL     1       2.505   3.910  20.514  0.00  0.00    +0.000 A 
ENDBRANCH   1   2
BRANCH   1   8
ATOM      8  C   UNL     1       3.658   6.372  18.673  0.00  0.00    +0.000 C 
ATOM      9  C   UNL     1       3.531   7.159  17.350  0.00  0.00    +0.000 C 
ATOM     10  C   UNL     1       2.817   8.454  17.707  0.00  0.00    +0.000 C 
ATOM     11  C   UNL     1       1.987   8.162  18.944  0.00  0.00    +0.000 C 
ATOM     12  C   UNL     1       2.381   6.769  19.428  0.00  0.00    +0.000 C 
ENDBRANCH   1   8
BRANCH   1  13
ATOM     13  C   UNL     1       5.184   4.366  19.141  0.00  0.00    +0.000 C 
ATOM     14  O   UNL     1       5.440   3.245  19.540  0.00  0.00    +0.000 OA
BRANCH  13  15
ATOM     15  O   UNL     1       6.035   5.435  19.278  0.00  0.00    +0.000 OA
BRANCH  15  21
ATOM     16  C   UNL     1       8.050   8.883  17.901  0.00  0.00    +0.000 C 
ATOM     17  N   UNL     1       7.435   7.555  17.824  0.00  0.00    +0.000 NA
ATOM     18  C   UNL     1       7.529   7.017  16.458  0.00  0.00    +0.000 C 
ATOM     19  C   UNL     1       6.857   5.647  16.355  0.00  0.00    +0.000 C 
ATOM     20  C   UNL     1       7.420   4.663  17.381  0.00  0.00    +0.000 C 
ATOM     21  C   UNL     1       7.385   5.251  18.791  0.00  0.00    +0.000 C 
ATOM     22  C   UNL     1       8.050   6.641  18.798  0.00  0.00    +0.000 C 
ENDBRANCH  15  21
ENDBRANCH  13  15
ENDBRANCH   1  13
BRANCH   1  23
ATOM     23  O   UNL     1       3.923   4.561  17.093  0.00  0.00    +0.000 OA
ATOM     24  H   UNL     1       3.287   3.845  16.905  0.00  0.00    +0.000 HD
ENDBRANCH   1  23
TORSDOF 6
ENDMDL
