MODEL 1
REMARK VINA RESULT:      -8.7      0.000      0.000
REMARK  Name = 
REMARK  12 active torsions:
REMARK  status: ('A' for Active; 'I' for Inactive)
REMARK    1  A    between atoms: C_1  and  O_2
REMARK    2  A    between atoms: O_2  and  C_3
REMARK    3  A    between atoms: C_6  and  C_7
REMARK    4  A    between atoms: C_12  and  O_13
REMARK    5  A    between atoms: O_13  and  C_14
REMARK    6  A    between atoms: C_14  and  C_15
REMARK    7  A    between atoms: C_18  and  O_19
REMARK    8  A    between atoms: O_19  and  C_20
REMARK    9  A    between atoms: C_20  and  C_21
REMARK   10  A    between atoms: C_27  and  O_28
REMARK   11  A    between atoms: O_28  and  C_29
REMARK   12  A    between atoms: C_29  and  C_30
REMARK                            x       y       z     vdW  Elec       q    Type
REMARK                         _______ _______ _______ _____ _____    ______ ____
ROOT
ATOM      1  C   UNL     1       2.006   7.887  18.586  0.00  0.00    +0.000 C 
ATOM      2  C   UNL     1       2.309   7.077  19.844  0.00  0.00    +0.000 C 
ATOM      3  C   UNL     1       2.326   5.670  19.330  0.00  0.00    +0.000 C 
ATOM      4  O   UNL     1       1.980   4.702  19.999  0.00  0.00    +0.000 OA
ATOM      5  C   UNL     1       2.985   5.515  18.018  0.00  0.00    +0.000 A 
ATOM      6  C   UNL     1       3.117   4.278  17.411  0.00  0.00    +0.000 A 
ATOM      7  C   UNL     1       4.291   4.012  16.727  0.00  0.00    +0.000 A 
ATOM      8  C   UNL     1       5.217   5.048  16.539  0.00  0.00    +0.000 A 
ATOM      9  C   UNL     1       4.900   6.379  16.862  0.00  0.00    +0.000 A 
ATOM     10  C   UNL     1       3.718   6.621  17.571  0.00  0.00    +0.000 A 
ATOM     11  O   UNL     1       3.284   7.920  17.858  0.00  0.00    +0.000 OA
ENDROOT
BRANCH   1  15
ATOM     12  C   UNL     1      -0.154  11.539  19.631  0.00  0.00    +0.000 A 
ATOM     13  C   UNL     1      -0.011  11.148  18.289  0.00  0.00    +0.000 A 
ATOM     14  C   UNL     1       0.696   9.991  17.923  0.00  0.00    +0.000 A 
ATOM     15  C   UNL     1       1.311   9.211  18.897  0.00  0.00    +0.000 A 
ATOM     16  C   UNL     1       1.129   9.585  20.258  0.00  0.00    +0.000 A 
ATOM     17  C   UNL     1       0.427  10.750  20.622  0.00  0.00    +0.000 A 
BRANCH  12  19
ATOM     18  C   UNL     1      -2.259  12.653  19.948  0.00  0.00    +0.000 C 
ATOM     19  O   UNL     1      -0.849  12.710  19.781  0.00  0.00    +0.000 OA
ENDBRANCH  12  19
BRANCH  17  20
ATOM     20  O   UNL     1       0.287  11.141  21.985  0.00  0.00    +0.000 OA
BRANCH  20  21
ATOM     21  C   UNL     1      -0.662  10.730  22.933  0.00  0.00    +0.000 C 
ATOM     22  C   UNL     1      -0.260   9.404  23.500  0.00  0.00    +0.000 C 
ATOM     23  O   UNL     1      -1.691  11.318  23.242  0.00  0.00    +0.000 OA
ENDBRANCH  20  21
ENDBRANCH  17  20
ENDBRANCH   1  15
BRANCH   6  24
ATOM     24  O   UNL     1       2.085   3.325  17.327  0.00  0.00    +0.000 OA
BRANCH  24  25
ATOM     25  C   UNL     1       2.238   2.195  18.145  0.00  0.00    +0.000 C 
ATOM     26  C   UNL     1       0.963   1.906  18.882  0.00  0.00    +0.000 C 
ATOM     27  O   UNL     1       3.278   1.580  18.360  0.00  0.00    +0.000 OA
ENDBRANCH  24  25
ENDBRANCH   6  24
BRANCH   8  28
ATOM     28  O   UNL     1       6.438   4.589  15.974  0.00  0.00    +0.000 OA
BRANCH  28  29
ATOM     29  C   UNL     1       6.941   4.803  14.689  0.00  0.00    +0.000 C 
ATOM     30  C   UNL     1       6.206   3.905  13.726  0.00  0.00    +0.000 C 
ATOM     31  O   UNL     1       7.829   5.581  14.379  0.00  0.00    +0.000 OA
ENDBRANCH  28  29
ENDBRANCH   8  28
TORSDOF 8
ENDMDL
MODEL 2
REMARK VINA RESULT:      -8.4      1.996      2.732
REMARK  Name = 
REMARK  12 active torsions:
REMARK  status: ('A' for Active; 'I' for Inactive)
REMARK    1  A    between atoms: C_1  and  O_2
REMARK    2  A    between atoms: O_2  and  C_3
REMARK    3  A    between atoms: C_6  and  C_7
REMARK    4  A    between atoms: C_12  and  O_13
REMARK    5  A    between atoms: O_13  and  C_14
REMARK    6  A    between atoms: C_14  and  C_15
REMARK    7  A    between atoms: C_18  and  O_19
REMARK    8  A    between atoms: O_19  and  C_20
REMARK    9  A    between atoms: C_20  and  C_21
REMARK   10  A    between atoms: C_27  and  O_28
REMARK   11  A    between atoms: O_28  and  C_29
REMARK   12  A    between atoms: C_29  and  C_30
REMARK                            x       y       z     vdW  Elec       q    Type
REMARK                         _______ _______ _______ _____ _____    ______ ____
ROOT
ATOM      1  C   UNL     1       1.704   8.611  18.590  0.00  0.00    +0.000 C 
ATOM      2  C   UNL     1       1.998   8.051  19.980  0.00  0.00    +0.000 C 
ATOM      3  C   UNL     1       1.945   6.571  19.753  0.00  0.00    +0.000 C 
ATOM      4  O   UNL     1       1.572   5.771  20.605  0.00  0.00    +0.000 OA
ATOM      5  C   UNL     1       2.569   6.131  18.490  0.00  0.00    +0.000 A 
ATOM      6  C   UNL     1       2.636   4.794  18.137  0.00  0.00    +0.000 A 
ATOM      7  C   UNL     1       3.783   4.345  17.506  0.00  0.00    +0.000 A 
ATOM      8  C   UNL     1       4.748   5.280  17.105  0.00  0.00    +0.000 A 
ATOM      9  C   UNL     1       4.494   6.662  17.163  0.00  0.00    +0.000 A 
ATOM     10  C   UNL     1       3.339   7.093  17.824  0.00  0.00    +0.000 A 
ATOM     11  O   UNL     1       2.967   8.441  17.855  0.00  0.00    +0.000 OA
ENDROOT
BRANCH   1  15
ATOM     12  C   UNL     1      -0.192  12.547  18.492  0.00  0.00    +0.000 A 
ATOM     13  C   UNL     1       1.189  12.420  18.719  0.00  0.00    +0.000 A 
ATOM     14  C   UNL     1       1.820  11.167  18.778  0.00  0.00    +0.000 A 
ATOM     15  C   UNL     1       1.073  10.001  18.643  0.00  0.00    +0.000 A 
ATOM     16  C   UNL     1      -0.317  10.133  18.369  0.00  0.00    +0.000 A 
ATOM     17  C   UNL     1      -0.950  11.390  18.320  0.00  0.00    +0.000 A 
BRANCH  12  19
ATOM     18  C   UNL     1      -0.675  14.542  19.740  0.00  0.00    +0.000 C 
ATOM     19  O   UNL     1      -0.623  13.847  18.502  0.00  0.00    +0.000 OA
ENDBRANCH  12  19
BRANCH  17  20
ATOM     20  O   UNL     1      -2.351  11.510  18.090  0.00  0.00    +0.000 OA
BRANCH  20  21
ATOM     21  C   UNL     1      -3.082  11.257  16.920  0.00  0.00    +0.000 C 
ATOM     22  C   UNL     1      -4.547  11.282  17.233  0.00  0.00    +0.000 C 
ATOM     23  O   UNL     1      -2.628  11.010  15.810  0.00  0.00    +0.000 OA
ENDBRANCH  20  21
ENDBRANCH  17  20
ENDBRANCH   1  15
BRANCH   6  24
ATOM     24  O   UNL     1       1.563   3.892  18.255  0.00  0.00    +0.000 OA
BRANCH  24  25
ATOM     25  C   UNL     1       1.885   2.638  18.797  0.00  0.00    +0.000 C 
ATOM     26  C   UNL     1       1.463   2.566  20.236  0.00  0.00    +0.000 C 
ATOM     27  O   UNL     1       2.533   1.748  18.255  0.00  0.00    +0.000 OA
ENDBRANCH  24  25
ENDBRANCH   6  24
BRANCH   8  28
ATOM     28  O   UNL     1       5.936   4.664  16.627  0.00  0.00    +0.000 OA
BRANCH  28  29
ATOM     29  C   UNL     1       6.642   4.922  15.450  0.00  0.00    +0.000 C 
ATOM     30  C   UNL     1       6.070   4.067  14.347  0.00  0.00    +0.000 C 
ATOM     31  O   UNL     1       7.570   5.703  15.318  0.00  0.00    +0.000 OA
ENDBRANCH  28  29
ENDBRANCH   8  28
TORSDOF 8
ENDMDL
MODEL 3
REMARK VINA RESULT:      -8.4      1.053      1.273
REMARK  Name = 
REMARK  12 active torsions:
REMARK  status: ('A' for Active; 'I' for Inactive)
REMARK    1  A    between atoms: C_1  and  O_2
REMARK    2  A    between atoms: O_2  and  C_3
REMARK    3  A    between atoms: C_6  and  C_7
REMARK    4  A    between atoms: C_12  and  O_13
REMARK    5  A    between atoms: O_13  and  C_14
REMARK    6  A    between atoms: C_14  and  C_15
REMARK    7  A    between atoms: C_18  and  O_19
REMARK    8  A    between atoms: O_19  and  C_20
REMARK    9  A    between atoms: C_20  and  C_21
REMARK   10  A    between atoms: C_27  and  O_28
REMARK   11  A    between atoms: O_28  and  C_29
REMARK   12  A    between atoms: C_29  and  C_30
REMARK                            x       y       z     vdW  Elec       q    Type
REMARK                         _______ _______ _______ _____ _____    ______ ____
ROOT
ATOM      1  C   UNL     1       2.478   7.484  18.570  0.00  0.00    +0.000 C 
ATOM      2  C   UNL     1       3.181   6.922  19.804  0.00  0.00    +0.000 C 
ATOM      3  C   UNL     1       3.224   5.453  19.513  0.00  0.00    +0.000 C 
ATOM      4  O   UNL     1       3.171   4.591  20.384  0.00  0.00    +0.000 OA
ATOM      5  C   UNL     1       3.540   5.125  18.109  0.00  0.00    +0.000 A 
ATOM      6  C   UNL     1       3.652   3.816  17.674  0.00  0.00    +0.000 A 
ATOM      7  C   UNL     1       4.636   3.521  16.746  0.00  0.00    +0.000 A 
ATOM      8  C   UNL     1       5.361   4.573  16.167  0.00  0.00    +0.000 A 
ATOM      9  C   UNL     1       4.988   5.914  16.367  0.00  0.00    +0.000 A 
ATOM     10  C   UNL     1       4.006   6.189  17.326  0.00  0.00    +0.000 A 
ATOM     11  O   UNL     1       3.516   7.484  17.528  0.00  0.00    +0.000 OA
ENDROOT
BRANCH   1  15
ATOM     12  C   UNL     1       0.140  11.082  19.402  0.00  0.00    +0.000 A 
ATOM     13  C   UNL     1       0.978  11.013  18.276  0.00  0.00    +0.000 A 
ATOM     14  C   UNL     1       1.756   9.878  17.997  0.00  0.00    +0.000 A 
ATOM     15  C   UNL     1       1.741   8.790  18.863  0.00  0.00    +0.000 A 
ATOM     16  C   UNL     1       0.859   8.843  19.979  0.00  0.00    +0.000 A 
ATOM     17  C   UNL     1       0.086   9.986  20.262  0.00  0.00    +0.000 A 
BRANCH  12  19
ATOM     18  C   UNL     1      -0.406  13.223  18.461  0.00  0.00    +0.000 C 
ATOM     19  O   UNL     1      -0.512  12.281  19.518  0.00  0.00    +0.000 OA
ENDBRANCH  12  19
BRANCH  17  20
ATOM     20  O   UNL     1      -0.760  10.048  21.407  0.00  0.00    +0.000 OA
BRANCH  20  21
ATOM     21  C   UNL     1      -0.458  10.471  22.710  0.00  0.00    +0.000 C 
ATOM     22  C   UNL     1      -1.176  11.754  22.996  0.00  0.00    +0.000 C 
ATOM     23  O   UNL     1       0.300   9.924  23.502  0.00  0.00    +0.000 OA
ENDBRANCH  20  21
ENDBRANCH  17  20
ENDBRANCH   1  15
BRANCH   6  24
ATOM     24  O   UNL     1       2.747   2.793  18.009  0.00  0.00    +0.000 OA
BRANCH  24  25
ATOM     25  C   UNL     1       1.393   3.164  18.025  0.00  0.00    +0.000 C 
ATOM     26  C   UNL     1       0.621   2.288  18.968  0.00  0.00    +0.000 C 
ATOM     27  O   UNL     1       0.850   3.987  17.295  0.00  0.00    +0.000 OA
ENDBRANCH  24  25
ENDBRANCH   6  24
BRANCH   8  28
ATOM     28  O   UNL     1       6.441   4.113  15.366  0.00  0.00    +0.000 OA
BRANCH  28  29
ATOM     29  C   UNL     1       6.910   4.624  14.154  0.00  0.00    +0.000 C 
ATOM     30  C   UNL     1       6.379   3.768  13.032  0.00  0.00    +0.000 C 
ATOM     31  O   UNL     1       7.632   5.597  14.010  0.00  0.00    +0.000 OA
ENDBRANCH  28  29
ENDBRANCH   8  28
TORSDOF 8
ENDMDL
MODEL 4
REMARK VINA RESULT:      -8.2      1.858      3.068
REMARK  Name = 
REMARK  12 active torsions:
REMARK  status: ('A' for Active; 'I' for Inactive)
REMARK    1  A    between atoms: C_1  and  O_2
REMARK    2  A    between atoms: O_2  and  C_3
REMARK    3  A    between atoms: C_6  and  C_7
REMARK    4  A    between atoms: C_12  and  O_13
REMARK    5  A    between atoms: O_13  and  C_14
REMARK    6  A    between atoms: C_14  and  C_15
REMARK    7  A    between atoms: C_18  and  O_19
REMARK    8  A    between atoms: O_19  and  C_20
REMARK    9  A    between atoms: C_20  and  C_21
REMARK   10  A    between atoms: C_27  and  O_28
REMARK   11  A    between atoms: O_28  and  C_29
REMARK   12  A    between atoms: C_29  and  C_30
REMARK                            x       y       z     vdW  Elec       q    Type
REMARK                         _______ _______ _______ _____ _____    ______ ____
ROOT
ATOM      1  C   UNL     1       1.271   8.637  19.084  0.00  0.00    +0.000 C 
ATOM      2  C   UNL     1       1.824   8.048  20.381  0.00  0.00    +0.000 C 
ATOM      3  C   UNL     1       2.036   6.609  20.020  0.00  0.00    +0.000 C 
ATOM      4  O   UNL     1       1.925   5.689  20.824  0.00  0.00    +0.000 OA
ATOM      5  C   UNL     1       2.588   6.400  18.667  0.00  0.00    +0.000 A 
ATOM      6  C   UNL     1       2.874   5.135  18.184  0.00  0.00    +0.000 A 
ATOM      7  C   UNL     1       4.009   4.978  17.407  0.00  0.00    +0.000 A 
ATOM      8  C   UNL     1       4.721   6.117  17.006  0.00  0.00    +0.000 A 
ATOM      9  C   UNL     1       4.210   7.410  17.219  0.00  0.00    +0.000 A 
ATOM     10  C   UNL     1       3.075   7.546  18.026  0.00  0.00    +0.000 A 
ATOM     11  O   UNL     1       2.453   8.784  18.219  0.00  0.00    +0.000 OA
ENDROOT
BRANCH   1  15
ATOM     12  C   UNL     1      -1.152  12.243  19.555  0.00  0.00    +0.000 A 
ATOM     13  C   UNL     1      -0.229  11.862  20.545  0.00  0.00    +0.000 A 
ATOM     14  C   UNL     1       0.546  10.697  20.429  0.00  0.00    +0.000 A 
ATOM     15  C   UNL     1       0.391   9.861  19.329  0.00  0.00    +0.000 A 
ATOM     16  C   UNL     1      -0.511  10.270  18.307  0.00  0.00    +0.000 A 
ATOM     17  C   UNL     1      -1.294  11.434  18.428  0.00  0.00    +0.000 A 
BRANCH  12  19
ATOM     18  C   UNL     1      -1.095  14.568  20.157  0.00  0.00    +0.000 C 
ATOM     19  O   UNL     1      -1.833  13.390  19.864  0.00  0.00    +0.000 OA
ENDBRANCH  12  19
BRANCH  17  20
ATOM     20  O   UNL     1      -2.228  11.812  17.421  0.00  0.00    +0.000 OA
BRANCH  20  21
ATOM     21  C   UNL     1      -3.260  11.059  16.841  0.00  0.00    +0.000 C 
ATOM     22  C   UNL     1      -2.917  10.763  15.413  0.00  0.00    +0.000 C 
ATOM     23  O   UNL     1      -4.307  10.716  17.374  0.00  0.00    +0.000 OA
ENDBRANCH  20  21
ENDBRANCH  17  20
ENDBRANCH   1  15
BRANCH   6  24
ATOM     24  O   UNL     1       2.019   4.027  18.318  0.00  0.00    +0.000 OA
BRANCH  24  25
ATOM     25  C   UNL     1       2.605   2.873  18.862  0.00  0.00    +0.000 C 
ATOM     26  C   UNL     1       2.608   1.762  17.853  0.00  0.00    +0.000 C 
ATOM     27  O   UNL     1       2.956   2.708  20.026  0.00  0.00    +0.000 OA
ENDBRANCH  24  25
ENDBRANCH   6  24
BRANCH   8  28
ATOM     28  O   UNL     1       5.945   5.794  16.361  0.00  0.00    +0.000 OA
BRANCH  28  29
ATOM     29  C   UNL     1       7.172   5.450  16.934  0.00  0.00    +0.000 C 
ATOM     30  C   UNL     1       7.545   6.504  17.946  0.00  0.00    +0.000 C 
ATOM     31  O   UNL     1       7.844   4.467  16.669  0.00  0.00    +0.000 OA
ENDBRANCH  28  29
ENDBRANCH   8  28
TORSDOF 8
ENDMDL
MODEL 5
REMARK VINA RESULT:      -8.2      1.565      1.881
REMARK  Name = 
REMARK  12 active torsions:
REMARK  status: ('A' for Active; 'I' for Inactive)
REMARK    1  A    between atoms: C_1  and  O_2
REMARK    2  A    between atoms: O_2  and  C_3
REMARK    3  A    between atoms: C_6  and  C_7
REMARK    4  A    between atoms: C_12  and  O_13
REMARK    5  A    between atoms: O_13  and  C_14
REMARK    6  A    between atoms: C_14  and  C_15
REMARK    7  A    between atoms: C_18  and  O_19
REMARK    8  A    between atoms: O_19  and  C_20
REMARK    9  A    between atoms: C_20  and  C_21
REMARK   10  A    between atoms: C_27  and  O_28
REMARK   11  A    between atoms: O_28  and  C_29
REMARK   12  A    between atoms: C_29  and  C_30
REMARK                            x       y       z     vdW  Elec       q    Type
REMARK                         _______ _______ _______ _____ _____    ______ ____
ROOT
ATOM      1  C   UNL     1       1.272   8.640  18.916  0.00  0.00    +0.000 C 
ATOM      2  C   UNL     1       1.792   8.109  20.250  0.00  0.00    +0.000 C 
ATOM      3  C   UNL     1       2.044   6.664  19.950  0.00  0.00    +0.000 C 
ATOM      4  O   UNL     1       1.924   5.771  20.783  0.00  0.00    +0.000 OA
ATOM      5  C   UNL     1       2.646   6.418  18.625  0.00  0.00    +0.000 A 
ATOM      6  C   UNL     1       2.974   5.143  18.198  0.00  0.00    +0.000 A 
ATOM      7  C   UNL     1       4.136   4.982  17.465  0.00  0.00    +0.000 A 
ATOM      8  C   UNL     1       4.840   6.121  17.047  0.00  0.00    +0.000 A 
ATOM      9  C   UNL     1       4.296   7.410  17.195  0.00  0.00    +0.000 A 
ATOM     10  C   UNL     1       3.131   7.550  17.958  0.00  0.00    +0.000 A 
ATOM     11  O   UNL     1       2.478   8.781  18.085  0.00  0.00    +0.000 OA
ENDROOT
BRANCH   1  15
ATOM     12  C   UNL     1      -1.436  11.996  19.625  0.00  0.00    +0.000 A 
ATOM     13  C   UNL     1      -1.493  11.267  18.424  0.00  0.00    +0.000 A 
ATOM     14  C   UNL     1      -0.621  10.199  18.162  0.00  0.00    +0.000 A 
ATOM     15  C   UNL     1       0.359   9.853  19.086  0.00  0.00    +0.000 A 
ATOM     16  C   UNL     1       0.388  10.563  20.319  0.00  0.00    +0.000 A 
ATOM     17  C   UNL     1      -0.482  11.640  20.577  0.00  0.00    +0.000 A 
BRANCH  12  19
ATOM     18  C   UNL     1      -3.654  12.746  20.164  0.00  0.00    +0.000 C 
ATOM     19  O   UNL     1      -2.346  13.018  19.680  0.00  0.00    +0.000 OA
ENDBRANCH  12  19
BRANCH  17  20
ATOM     20  O   UNL     1      -0.416  12.375  21.796  0.00  0.00    +0.000 OA
BRANCH  20  21
ATOM     21  C   UNL     1      -1.243  12.293  22.926  0.00  0.00    +0.000 C 
ATOM     22  C   UNL     1      -1.445  13.663  23.497  0.00  0.00    +0.000 C 
ATOM     23  O   UNL     1      -1.711  11.275  23.421  0.00  0.00    +0.000 OA
ENDBRANCH  20  21
ENDBRANCH  17  20
ENDBRANCH   1  15
BRANCH   6  24
ATOM     24  O   UNL     1       2.136   4.022  18.344  0.00  0.00    +0.000 OA
BRANCH  24  25
ATOM     25  C   UNL     1       2.731   2.896  18.935  0.00  0.00    +0.000 C 
ATOM     26  C   UNL     1       2.746   1.745  17.971  0.00  0.00    +0.000 C 
ATOM     27  O   UNL     1       3.082   2.780  20.105  0.00  0.00    +0.000 OA
ENDBRANCH  24  25
ENDBRANCH   6  24
BRANCH   8  28
ATOM     28  O   UNL     1       6.091   5.801  16.454  0.00  0.00    +0.000 OA
BRANCH  28  29
ATOM     29  C   UNL     1       7.275   5.400  17.076  0.00  0.00    +0.000 C 
ATOM     30  C   UNL     1       7.627   6.408  18.141  0.00  0.00    +0.000 C 
ATOM     31  O   UNL     1       7.930   4.405  16.812  0.00  0.00    +0.000 OA
ENDBRANCH  28  29
ENDBRANCH   8  28
TORSDOF 8
ENDMDL
MODEL 6
REMARK VINA RESULT:      -8.2      1.945      9.180
REMARK  Name = 
REMARK  12 active torsions:
REMARK  status: ('A' for Active; 'I' for Inactive)
REMARK    1  A    between atoms: C_1  and  O_2
REMARK    2  A    between atoms: O_2  and  C_3
REMARK    3  A    between atoms: C_6  and  C_7
REMARK    4  A    between atoms: C_12  and  O_13
REMARK    5  A    between atoms: O_13  and  C_14
REMARK    6  A    between atoms: C_14  and  C_15
REMARK    7  A    between atoms: C_18  and  O_19
REMARK    8  A    between atoms: O_19  and  C_20
REMARK    9  A    between atoms: C_20  and  C_21
REMARK   10  A    between atoms: C_27  and  O_28
REMARK   11  A    between atoms: O_28  and  C_29
REMARK   12  A    between atoms: C_29  and  C_30
REMARK                            x       y       z     vdW  Elec       q    Type
REMARK                         _______ _______ _______ _____ _____    ______ ____
ROOT
ATOM      1  C   UNL     1       1.978   7.336  18.915  0.00  0.00    +0.000 C 
ATOM      2  C   UNL     1       2.850   8.468  18.376  0.00  0.00    +0.000 C 
ATOM      3  C   UNL     1       1.860   9.575  18.179  0.00  0.00    +0.000 C 
ATOM      4  O   UNL     1       1.961  10.421  17.296  0.00  0.00    +0.000 OA
ATOM      5  C   UNL     1       0.858   9.688  19.256  0.00  0.00    +0.000 A 
ATOM      6  C   UNL     1      -0.112  10.676  19.249  0.00  0.00    +0.000 A 
ATOM      7  C   UNL     1      -0.455  11.260  20.456  0.00  0.00    +0.000 A 
ATOM      8  C   UNL     1       0.065  10.721  21.643  0.00  0.00    +0.000 A 
ATOM      9  C   UNL     1       0.767   9.503  21.645  0.00  0.00    +0.000 A 
ATOM     10  C   UNL     1       1.121   8.943  20.413  0.00  0.00    +0.000 A 
ATOM     11  O   UNL     1       1.745   7.694  20.323  0.00  0.00    +0.000 OA
ENDROOT
BRANCH   1  15
ATOM     12  C   UNL     1       3.804   3.509  17.856  0.00  0.00    +0.000 A 
ATOM     13  C   UNL     1       2.438   3.742  17.625  0.00  0.00    +0.000 A 
ATOM     14  C   UNL     1       1.821   4.954  17.975  0.00  0.00    +0.000 A 
ATOM     15  C   UNL     1       2.555   5.956  18.601  0.00  0.00    +0.000 A 
ATOM     16  C   UNL     1       3.947   5.736  18.795  0.00  0.00    +0.000 A 
ATOM     17  C   UNL     1       4.562   4.517  18.451  0.00  0.00    +0.000 A 
BRANCH  12  19
ATOM     18  C   UNL     1       3.860   1.147  18.288  0.00  0.00    +0.000 C 
ATOM     19  O   UNL     1       4.211   2.258  17.475  0.00  0.00    +0.000 OA
ENDBRANCH  12  19
BRANCH  17  20
ATOM     20  O   UNL     1       5.948   4.288  18.690  0.00  0.00    +0.000 OA
BRANCH  20  21
ATOM     21  C   UNL     1       7.062   4.822  18.026  0.00  0.00    +0.000 C 
ATOM     22  C   UNL     1       7.639   5.939  18.839  0.00  0.00    +0.000 C 
ATOM     23  O   UNL     1       7.498   4.482  16.933  0.00  0.00    +0.000 OA
ENDBRANCH  20  21
ENDBRANCH  17  20
ENDBRANCH   1  15
BRANCH   6  24
ATOM     24  O   UNL     1      -0.868  11.032  18.117  0.00  0.00    +0.000 OA
BRANCH  24  25
ATOM     25  C   UNL     1      -2.196  10.575  18.109  0.00  0.00    +0.000 C 
ATOM     26  C   UNL     1      -3.142  11.713  18.358  0.00  0.00    +0.000 C 
ATOM     27  O   UNL     1      -2.570   9.409  18.045  0.00  0.00    +0.000 OA
ENDBRANCH  24  25
ENDBRANCH   6  24
BRANCH   8  28
ATOM     28  O   UNL     1      -0.236  11.520  22.779  0.00  0.00    +0.000 OA
BRANCH  28  29
ATOM     29  C   UNL     1      -1.430  12.168  23.101  0.00  0.00    +0.000 C 
ATOM     30  C   UNL     1      -1.178  13.654  23.137  0.00  0.00    +0.000 C 
ATOM     31  O   UNL     1      -2.506  11.636  23.322  0.00  0.00    +0.000 OA
ENDBRANCH  28  29
ENDBRANCH   8  28
TORSDOF 8
ENDMDL
MODEL 7
REMARK VINA RESULT:      -8.1      1.556      2.477
REMARK  Name = 
REMARK  12 active torsions:
REMARK  status: ('A' for Active; 'I' for Inactive)
REMARK    1  A    between atoms: C_1  and  O_2
REMARK    2  A    between atoms: O_2  and  C_3
REMARK    3  A    between atoms: C_6  and  C_7
REMARK    4  A    between atoms: C_12  and  O_13
REMARK    5  A    between atoms: O_13  and  C_14
REMARK    6  A    between atoms: C_14  and  C_15
REMARK    7  A    between atoms: C_18  and  O_19
REMARK    8  A    between atoms: O_19  and  C_20
REMARK    9  A    between atoms: C_20  and  C_21
REMARK   10  A    between atoms: C_27  and  O_28
REMARK   11  A    between atoms: O_28  and  C_29
REMARK   12  A    between atoms: C_29  and  C_30
REMARK                            x       y       z     vdW  Elec       q    Type
REMARK                         _______ _______ _______ _____ _____    ______ ____
ROOT
ATOM      1  C   UNL     1       1.985   8.154  18.511  0.00  0.00    +0.000 C 
ATOM      2  C   UNL     1       2.224   7.376  19.804  0.00  0.00    +0.000 C 
ATOM      3  C   UNL     1       2.192   5.953  19.338  0.00  0.00    +0.000 C 
ATOM      4  O   UNL     1       1.789   5.025  20.032  0.00  0.00    +0.000 OA
ATOM      5  C   UNL     1       2.872   5.723  18.049  0.00  0.00    +0.000 A 
ATOM      6  C   UNL     1       2.964   4.462  17.487  0.00  0.00    +0.000 A 
ATOM      7  C   UNL     1       4.140   4.121  16.842  0.00  0.00    +0.000 A 
ATOM      8  C   UNL     1       5.115   5.109  16.640  0.00  0.00    +0.000 A 
ATOM      9  C   UNL     1       4.848   6.464  16.909  0.00  0.00    +0.000 A 
ATOM     10  C   UNL     1       3.662   6.781  17.581  0.00  0.00    +0.000 A 
ATOM     11  O   UNL     1       3.279   8.106  17.813  0.00  0.00    +0.000 OA
ENDROOT
BRANCH   1  15
ATOM     12  C   UNL     1       0.376  12.132  19.337  0.00  0.00    +0.000 A 
ATOM     13  C   UNL     1      -0.248  10.983  19.853  0.00  0.00    +0.000 A 
ATOM     14  C   UNL     1       0.235   9.692  19.585  0.00  0.00    +0.000 A 
ATOM     15  C   UNL     1       1.342   9.517  18.761  0.00  0.00    +0.000 A 
ATOM     16  C   UNL     1       1.998  10.682  18.276  0.00  0.00    +0.000 A 
ATOM     17  C   UNL     1       1.508  11.976  18.538  0.00  0.00    +0.000 A 
BRANCH  12  19
ATOM     18  C   UNL     1      -1.545  13.218  20.287  0.00  0.00    +0.000 C 
ATOM     19  O   UNL     1      -0.261  13.294  19.683  0.00  0.00    +0.000 OA
ENDBRANCH  12  19
BRANCH  17  20
ATOM     20  O   UNL     1       2.145  13.136  18.011  0.00  0.00    +0.000 OA
BRANCH  20  21
ATOM     21  C   UNL     1       2.416  14.361  18.638  0.00  0.00    +0.000 C 
ATOM     22  C   UNL     1       3.411  14.149  19.737  0.00  0.00    +0.000 C 
ATOM     23  O   UNL     1       1.907  15.445  18.382  0.00  0.00    +0.000 OA
ENDBRANCH  20  21
ENDBRANCH  17  20
ENDBRANCH   1  15
BRANCH   6  24
ATOM     24  O   UNL     1       1.894   3.552  17.411  0.00  0.00    +0.000 OA
BRANCH  24  25
ATOM     25  C   UNL     1       2.030   2.392  18.191  0.00  0.00    +0.000 C 
ATOM     26  C   UNL     1       0.745   2.088  18.906  0.00  0.00    +0.000 C 
ATOM     27  O   UNL     1       3.063   1.762  18.395  0.00  0.00    +0.000 OA
ENDBRANCH  24  25
ENDBRANCH   6  24
BRANCH   8  28
ATOM     28  O   UNL     1       6.326   4.580  16.120  0.00  0.00    +0.000 OA
BRANCH  28  29
ATOM     29  C   UNL     1       6.903   4.785  14.864  0.00  0.00    +0.000 C 
ATOM     30  C   UNL     1       6.227   3.877  13.868  0.00  0.00    +0.000 C 
ATOM     31  O   UNL     1       7.805   5.563  14.601  0.00  0.00    +0.000 OA
ENDBRANCH  28  29
ENDBRANCH   8  28
TORSDOF 8
ENDMDL
MODEL 8
REMARK VINA RESULT:      -8.1      0.983      1.259
REMARK  Name = 
REMARK  12 active torsions:
REMARK  status: ('A' for Active; 'I' for Inactive)
REMARK    1  A    between atoms: C_1  and  O_2
REMARK    2  A    between atoms: O_2  and  C_3
REMARK    3  A    between atoms: C_6  and  C_7
REMARK    4  A    between atoms: C_12  and  O_13
REMARK    5  A    between atoms: O_13  and  C_14
REMARK    6  A    between atoms: C_14  and  C_15
REMARK    7  A    between atoms: C_18  and  O_19
REMARK    8  A    between atoms: O_19  and  C_20
REMARK    9  A    between atoms: C_20  and  C_21
REMARK   10  A    between atoms: C_27  and  O_28
REMARK   11  A    between atoms: O_28  and  C_29
REMARK   12  A    between atoms: C_29  and  C_30
REMARK                            x       y       z     vdW  Elec       q    Type
REMARK                         _______ _______ _______ _____ _____    ______ ____
ROOT
ATOM      1  C   UNL     1       2.122   7.764  18.547  0.00  0.00    +0.000 C 
ATOM      2  C   UNL     1       2.836   7.251  19.796  0.00  0.00    +0.000 C 
ATOM      3  C   UNL     1       3.070   5.808  19.469  0.00  0.00    +0.000 C 
ATOM      4  O   UNL     1       3.086   4.919  20.313  0.00  0.00    +0.000 OA
ATOM      5  C   UNL     1       3.482   5.565  18.072  0.00  0.00    +0.000 A 
ATOM      6  C   UNL     1       3.770   4.293  17.609  0.00  0.00    +0.000 A 
ATOM      7  C   UNL     1       4.820   4.148  16.718  0.00  0.00    +0.000 A 
ATOM      8  C   UNL     1       5.435   5.297  16.200  0.00  0.00    +0.000 A 
ATOM      9  C   UNL     1       4.894   6.577  16.419  0.00  0.00    +0.000 A 
ATOM     10  C   UNL     1       3.847   6.701  17.339  0.00  0.00    +0.000 A 
ATOM     11  O   UNL     1       3.196   7.921  17.553  0.00  0.00    +0.000 OA
ENDROOT
BRANCH   1  15
ATOM     12  C   UNL     1      -0.574  11.045  19.579  0.00  0.00    +0.000 A 
ATOM     13  C   UNL     1      -0.551  10.516  18.277  0.00  0.00    +0.000 A 
ATOM     14  C   UNL     1       0.321   9.477  17.913  0.00  0.00    +0.000 A 
ATOM     15  C   UNL     1       1.220   8.962  18.840  0.00  0.00    +0.000 A 
ATOM     16  C   UNL     1       1.166   9.468  20.169  0.00  0.00    +0.000 A 
ATOM     17  C   UNL     1       0.298  10.516  20.530  0.00  0.00    +0.000 A 
BRANCH  12  19
ATOM     18  C   UNL     1      -2.701  12.015  19.026  0.00  0.00    +0.000 C 
ATOM     19  O   UNL     1      -1.467  12.072  19.728  0.00  0.00    +0.000 OA
ENDBRANCH  12  19
BRANCH  17  20
ATOM     20  O   UNL     1       0.281  11.048  21.851  0.00  0.00    +0.000 OA
BRANCH  20  21
ATOM     21  C   UNL     1      -0.355  10.552  22.999  0.00  0.00    +0.000 C 
ATOM     22  C   UNL     1      -1.678  11.232  23.170  0.00  0.00    +0.000 C 
ATOM     23  O   UNL     1       0.090   9.723  23.784  0.00  0.00    +0.000 OA
ENDBRANCH  20  21
ENDBRANCH  17  20
ENDBRANCH   1  15
BRANCH   6  24
ATOM     24  O   UNL     1       2.983   3.158  17.876  0.00  0.00    +0.000 OA
BRANCH  24  25
ATOM     25  C   UNL     1       1.595   3.372  17.880  0.00  0.00    +0.000 C 
ATOM     26  C   UNL     1       0.924   2.433  18.839  0.00  0.00    +0.000 C 
ATOM     27  O   UNL     1       0.965   4.113  17.133  0.00  0.00    +0.000 OA
ENDBRANCH  24  25
ENDBRANCH   6  24
BRANCH   8  28
ATOM     28  O   UNL     1       6.595   4.996  15.438  0.00  0.00    +0.000 OA
BRANCH  28  29
ATOM     29  C   UNL     1       6.681   4.518  14.128  0.00  0.00    +0.000 C 
ATOM     30  C   UNL     1       7.766   5.276  13.407  0.00  0.00    +0.000 C 
ATOM     31  O   UNL     1       5.998   3.635  13.634  0.00  0.00    +0.000 OA
ENDBRANCH  28  29
ENDBRANCH   8  28
TORSDOF 8
ENDMDL
MODEL 9
REMARK VINA RESULT:      -8.1      1.161      1.253
REMARK  Name = 
REMARK  12 active torsions:
REMARK  status: ('A' for Active; 'I' for Inactive)
REMARK    1  A    between atoms: C_1  and  O_2
REMARK    2  A    between atoms: O_2  and  C_3
REMARK    3  A    between atoms: C_6  and  C_7
REMARK    4  A    between atoms: C_12  and  O_13
REMARK    5  A    between atoms: O_13  and  C_14
REMARK    6  A    between atoms: C_14  and  C_15
REMARK    7  A    between atoms: C_18  and  O_19
REMARK    8  A    between atoms: O_19  and  C_20
REMARK    9  A    between atoms: C_20  and  C_21
REMARK   10  A    between atoms: C_27  and  O_28
REMARK   11  A    between atoms: O_28  and  C_29
REMARK   12  A    between atoms: C_29  and  C_30
REMARK                            x       y       z     vdW  Elec       q    Type
REMARK                         _______ _______ _______ _____ _____    ______ ____
ROOT
ATOM      1  C   UNL     1       1.524   8.361  19.018  0.00  0.00    +0.000 C 
ATOM      2  C   UNL     1       1.928   7.772  20.368  0.00  0.00    +0.000 C 
ATOM      3  C   UNL     1       1.932   6.300  20.094  0.00  0.00    +0.000 C 
ATOM      4  O   UNL     1       1.649   5.455  20.937  0.00  0.00    +0.000 OA
ATOM      5  C   UNL     1       2.500   5.932  18.782  0.00  0.00    +0.000 A 
ATOM      6  C   UNL     1       2.610   4.612  18.380  0.00  0.00    +0.000 A 
ATOM      7  C   UNL     1       3.738   4.241  17.668  0.00  0.00    +0.000 A 
ATOM      8  C   UNL     1       4.631   5.235  17.245  0.00  0.00    +0.000 A 
ATOM      9  C   UNL     1       4.315   6.600  17.365  0.00  0.00    +0.000 A 
ATOM     10  C   UNL     1       3.182   6.952  18.107  0.00  0.00    +0.000 A 
ATOM     11  O   UNL     1       2.748   8.278  18.205  0.00  0.00    +0.000 OA
ENDROOT
BRANCH   1  15
ATOM     12  C   UNL     1      -0.601  12.133  19.612  0.00  0.00    +0.000 A 
ATOM     13  C   UNL     1      -0.639  11.474  18.372  0.00  0.00    +0.000 A 
ATOM     14  C   UNL     1       0.052  10.272  18.147  0.00  0.00    +0.000 A 
ATOM     15  C   UNL     1       0.831   9.716  19.155  0.00  0.00    +0.000 A 
ATOM     16  C   UNL     1       0.834  10.360  20.423  0.00  0.00    +0.000 A 
ATOM     17  C   UNL     1       0.148  11.570  20.645  0.00  0.00    +0.000 A 
BRANCH  12  19
ATOM     18  C   UNL     1      -0.618  14.528  19.423  0.00  0.00    +0.000 C 
ATOM     19  O   UNL     1      -1.311  13.304  19.624  0.00  0.00    +0.000 OA
ENDBRANCH  12  19
BRANCH  17  20
ATOM     20  O   UNL     1       0.193  12.232  21.905  0.00  0.00    +0.000 OA
BRANCH  20  21
ATOM     21  C   UNL     1      -0.850  12.498  22.805  0.00  0.00    +0.000 C 
ATOM     22  C   UNL     1      -1.553  11.220  23.143  0.00  0.00    +0.000 C 
ATOM     23  O   UNL     1      -1.186  13.594  23.235  0.00  0.00    +0.000 OA
ENDBRANCH  20  21
ENDBRANCH  17  20
ENDBRANCH   1  15
BRANCH   6  24
ATOM     24  O   UNL     1       1.591   3.654  18.529  0.00  0.00    +0.000 OA
BRANCH  24  25
ATOM     25  C   UNL     1       1.983   2.440  19.116  0.00  0.00    +0.000 C 
ATOM     26  C   UNL     1       1.617   2.420  20.571  0.00  0.00    +0.000 C 
ATOM     27  O   UNL     1       2.647   1.552  18.590  0.00  0.00    +0.000 OA
ENDBRANCH  24  25
ENDBRANCH   6  24
BRANCH   8  28
ATOM     28  O   UNL     1       5.817   4.695  16.677  0.00  0.00    +0.000 OA
BRANCH  28  29
ATOM     29  C   UNL     1       6.646   5.245  15.698  0.00  0.00    +0.000 C 
ATOM     30  C   UNL     1       6.293   4.632  14.366  0.00  0.00    +0.000 C 
ATOM     31  O   UNL     1       7.518   6.081  15.873  0.00  0.00    +0.000 OA
ENDBRANCH  28  29
ENDBRANCH   8  28
TORSDOF 8
ENDMDL
