MODEL 1
REMARK VINA RESULT:      -7.7      0.000      0.000
REMARK  Name = 
REMARK  12 active torsions:
REMARK  status: ('A' for Active; 'I' for Inactive)
REMARK    1  A    between atoms: C_1  and  C_2
REMARK    2  A    between atoms: C_4  and  N_5
REMARK    3  A    between atoms: N_6  and  C_7
REMARK    4  A    between atoms: C_10  and  S_11
REMARK    5  A    between atoms: S_11  and  O_14
REMARK    6  A    between atoms: C_17  and  C_18
REMARK    7  A    between atoms: C_18  and  C_19
REMARK    8  A    between atoms: C_19  and  C_20
REMARK    9  A    between atoms: C_20  and  O_22
REMARK   10  A    between atoms: C_23  and  C_24
REMARK   11  A    between atoms: C_24  and  O_26
REMARK   12  A    between atoms: C_27  and  O_28
REMARK                            x       y       z     vdW  Elec       q    Type
REMARK                         _______ _______ _______ _____ _____    ______ ____
ROOT
ATOM      1  C   UNL     1       5.737   6.617  16.863  0.00  0.00    +0.000 C 
ATOM      2  C   UNL     1       4.903   5.854  17.848  0.00  0.00    +0.000 A 
ATOM      3  N   UNL     1       3.887   6.526  18.414  0.00  0.00    +0.000 NA
ATOM      4  C   UNL     1       3.120   5.910  19.352  0.00  0.00    +0.000 A 
ATOM      5  C   UNL     1       3.343   4.588  19.793  0.00  0.00    +0.000 A 
ATOM      6  C   UNL     1       4.356   3.870  19.110  0.00  0.00    +0.000 A 
ATOM      7  C   UNL     1       5.161   4.526  18.155  0.00  0.00    +0.000 A 
ENDROOT
BRANCH   4   8
ATOM      8  N   UNL     1       2.081   6.710  19.886  0.00  0.00    +0.000 NA
ATOM      9  N   UNL     1       2.165   7.902  19.504  0.00  0.00    +0.000 NA
BRANCH   9  10
ATOM     10  C   UNL     1       1.294   8.778  20.192  0.00  0.00    +0.000 A 
ATOM     11  C   UNL     1       0.857   8.572  21.512  0.00  0.00    +0.000 A 
ATOM     12  C   UNL     1       0.052   9.507  22.163  0.00  0.00    +0.000 A 
ATOM     13  C   UNL     1      -0.321  10.677  21.496  0.00  0.00    +0.000 A 
ATOM     14  C   UNL     1       0.097  10.913  20.186  0.00  0.00    +0.000 A 
ATOM     15  C   UNL     1       0.902   9.962  19.542  0.00  0.00    +0.000 A 
BRANCH  13  16
ATOM     16  S   UNL     1      -1.265  11.895  22.367  0.00  0.00    +0.000 S 
ATOM     17  O   UNL     1      -1.989  11.224  23.425  0.00  0.00    +0.000 OA
ATOM     18  O   UNL     1      -0.401  13.025  22.616  0.00  0.00    +0.000 OA
BRANCH  16  19
ATOM     19  O   UNL     1      -2.399  12.344  21.308  0.00  0.00    +0.000 OA
ATOM     20  H   UNL     1      -2.310  11.773  20.516  0.00  0.00    +0.000 HD
ENDBRANCH  16  19
ENDBRANCH  13  16
ENDBRANCH   9  10
ENDBRANCH   4   8
BRANCH   6  21
ATOM     21  C   UNL     1       4.602   2.418  19.343  0.00  0.00    +0.000 C 
ATOM     22  O   UNL     1       5.111   1.947  20.341  0.00  0.00    +0.000 OA
BRANCH  21  23
ATOM     23  O   UNL     1       4.279   1.632  18.291  0.00  0.00    +0.000 OA
ATOM     24  H   UNL     1       5.040   1.286  17.778  0.00  0.00    +0.000 HD
ENDBRANCH  21  23
ENDBRANCH   6  21
BRANCH   7  25
ATOM     25  O   UNL     1       6.192   3.912  17.490  0.00  0.00    +0.000 OA
ATOM     26  H   UNL     1       5.876   3.537  16.643  0.00  0.00    +0.000 HD
ENDBRANCH   7  25
BRANCH   5  27
ATOM     27  C   UNL     1       2.430   4.014  20.869  0.00  0.00    +0.000 C 
BRANCH  27  28
ATOM     28  C   UNL     1       1.077   3.377  20.524  0.00  0.00    +0.000 C 
BRANCH  28  29
ATOM     29  C   UNL     1       0.993   2.723  19.173  0.00  0.00    +0.000 C 
ATOM     30  O   UNL     1       0.629   3.261  18.145  0.00  0.00    +0.000 OA
BRANCH  29  31
ATOM     31  O   UNL     1       1.404   1.431  19.212  0.00  0.00    +0.000 OA
ATOM     32  H   UNL     1       1.448   1.052  20.112  0.00  0.00    +0.000 HD
ENDBRANCH  29  31
ENDBRANCH  28  29
ENDBRANCH  27  28
ENDBRANCH   5  27
TORSDOF 11
ENDMDL
MODEL 2
REMARK VINA RESULT:      -7.7      0.936      1.550
REMARK  Name = 
REMARK  12 active torsions:
REMARK  status: ('A' for Active; 'I' for Inactive)
REMARK    1  A    between atoms: C_1  and  C_2
REMARK    2  A    between atoms: C_4  and  N_5
REMARK    3  A    between atoms: N_6  and  C_7
REMARK    4  A    between atoms: C_10  and  S_11
REMARK    5  A    between atoms: S_11  and  O_14
REMARK    6  A    between atoms: C_17  and  C_18
REMARK    7  A    between atoms: C_18  and  C_19
REMARK    8  A    between atoms: C_19  and  C_20
REMARK    9  A    between atoms: C_20  and  O_22
REMARK   10  A    between atoms: C_23  and  C_24
REMARK   11  A    between atoms: C_24  and  O_26
REMARK   12  A    between atoms: C_27  and  O_28
REMARK                            x       y       z     vdW  Elec       q    Type
REMARK                         _______ _______ _______ _____ _____    ______ ____
ROOT
ATOM      1  C   UNL     1       6.466   6.555  17.267  0.00  0.00    +0.000 C 
ATOM      2  C   UNL     1       5.399   5.891  18.086  0.00  0.00    +0.000 A 
ATOM      3  N   UNL     1       4.357   6.661  18.441  0.00  0.00    +0.000 NA
ATOM      4  C   UNL     1       3.377   6.137  19.224  0.00  0.00    +0.000 A 
ATOM      5  C   UNL     1       3.399   4.815  19.716  0.00  0.00    +0.000 A 
ATOM      6  C   UNL     1       4.455   3.996  19.246  0.00  0.00    +0.000 A 
ATOM      7  C   UNL     1       5.479   4.556  18.453  0.00  0.00    +0.000 A 
ENDROOT
BRANCH   4   8
ATOM      8  N   UNL     1       2.330   7.035  19.542  0.00  0.00    +0.000 NA
ATOM      9  N   UNL     1       2.243   7.968  18.707  0.00  0.00    +0.000 NA
BRANCH   9  10
ATOM     10  C   UNL     1       1.372   9.007  19.109  0.00  0.00    +0.000 A 
ATOM     11  C   UNL     1       0.875   9.994  18.240  0.00  0.00    +0.000 A 
ATOM     12  C   UNL     1      -0.035  10.954  18.681  0.00  0.00    +0.000 A 
ATOM     13  C   UNL     1      -0.471  10.931  20.008  0.00  0.00    +0.000 A 
ATOM     14  C   UNL     1       0.001   9.965  20.896  0.00  0.00    +0.000 A 
ATOM     15  C   UNL     1       0.920   9.009  20.441  0.00  0.00    +0.000 A 
BRANCH  13  16
ATOM     16  S   UNL     1      -1.697  12.100  20.527  0.00  0.00    +0.000 S 
ATOM     17  O   UNL     1      -2.788  12.051  19.577  0.00  0.00    +0.000 OA
ATOM     18  O   UNL     1      -1.897  11.924  21.946  0.00  0.00    +0.000 OA
BRANCH  16  19
ATOM     19  O   UNL     1      -0.998  13.535  20.284  0.00  0.00    +0.000 OA
ATOM     20  H   UNL     1      -0.412  13.715  21.049  0.00  0.00    +0.000 HD
ENDBRANCH  16  19
ENDBRANCH  13  16
ENDBRANCH   9  10
ENDBRANCH   4   8
BRANCH   6  21
ATOM     21  C   UNL     1       4.526   2.536  19.539  0.00  0.00    +0.000 C 
ATOM     22  O   UNL     1       4.898   2.052  20.590  0.00  0.00    +0.000 OA
BRANCH  21  23
ATOM     23  O   UNL     1       4.211   1.750  18.484  0.00  0.00    +0.000 OA
ATOM     24  H   UNL     1       3.686   0.951  18.699  0.00  0.00    +0.000 HD
ENDBRANCH  21  23
ENDBRANCH   6  21
BRANCH   7  25
ATOM     25  O   UNL     1       6.559   3.840  18.002  0.00  0.00    +0.000 OA
ATOM     26  H   UNL     1       6.505   3.714  17.033  0.00  0.00    +0.000 HD
ENDBRANCH   7  25
BRANCH   5  27
ATOM     27  C   UNL     1       2.254   4.349  20.607  0.00  0.00    +0.000 C 
BRANCH  27  28
ATOM     28  C   UNL     1       0.954   3.782  20.019  0.00  0.00    +0.000 C 
BRANCH  28  29
ATOM     29  C   UNL     1       1.071   3.172  18.651  0.00  0.00    +0.000 C 
ATOM     30  O   UNL     1       1.092   3.784  17.600  0.00  0.00    +0.000 OA
BRANCH  29  31
ATOM     31  O   UNL     1       1.183   1.822  18.708  0.00  0.00    +0.000 OA
ATOM     32  H   UNL     1       1.561   1.487  19.546  0.00  0.00    +0.000 HD
ENDBRANCH  29  31
ENDBRANCH  28  29
ENDBRANCH  27  28
ENDBRANCH   5  27
TORSDOF 11
ENDMDL
MODEL 3
REMARK VINA RESULT:      -7.6      1.498      2.020
REMARK  Name = 
REMARK  12 active torsions:
REMARK  status: ('A' for Active; 'I' for Inactive)
REMARK    1  A    between atoms: C_1  and  C_2
REMARK    2  A    between atoms: C_4  and  N_5
REMARK    3  A    between atoms: N_6  and  C_7
REMARK    4  A    between atoms: C_10  and  S_11
REMARK    5  A    between atoms: S_11  and  O_14
REMARK    6  A    between atoms: C_17  and  C_18
REMARK    7  A    between atoms: C_18  and  C_19
REMARK    8  A    between atoms: C_19  and  C_20
REMARK    9  A    between atoms: C_20  and  O_22
REMARK   10  A    between atoms: C_23  and  C_24
REMARK   11  A    between atoms: C_24  and  O_26
REMARK   12  A    between atoms: C_27  and  O_28
REMARK                            x       y       z     vdW  Elec       q    Type
REMARK                         _______ _______ _______ _____ _____    ______ ____
ROOT
ATOM      1  C   UNL     1       6.187   5.982  16.164  0.00  0.00    +0.000 C 
ATOM      2  C   UNL     1       4.936   5.517  16.847  0.00  0.00    +0.000 A 
ATOM      3  N   UNL     1       4.129   6.476  17.329  0.00  0.00    +0.000 NA
ATOM      4  C   UNL     1       3.002   6.125  18.002  0.00  0.00    +0.000 A 
ATOM      5  C   UNL     1       2.630   4.786  18.251  0.00  0.00    +0.000 A 
ATOM      6  C   UNL     1       3.444   3.796  17.647  0.00  0.00    +0.000 A 
ATOM      7  C   UNL     1       4.624   4.171  16.971  0.00  0.00    +0.000 A 
ENDROOT
BRANCH   4   8
ATOM      8  N   UNL     1       2.228   7.214  18.471  0.00  0.00    +0.000 NA
ATOM      9  N   UNL     1       2.450   7.458  19.681  0.00  0.00    +0.000 NA
BRANCH   9  10
ATOM     10  C   UNL     1       1.536   8.377  20.248  0.00  0.00    +0.000 A 
ATOM     11  C   UNL     1       1.096   8.324  21.582  0.00  0.00    +0.000 A 
ATOM     12  C   UNL     1       0.245   9.299  22.103  0.00  0.00    +0.000 A 
ATOM     13  C   UNL     1      -0.171  10.356  21.289  0.00  0.00    +0.000 A 
ATOM     14  C   UNL     1       0.249  10.439  19.962  0.00  0.00    +0.000 A 
ATOM     15  C   UNL     1       1.099   9.449  19.449  0.00  0.00    +0.000 A 
BRANCH  13  16
ATOM     16  S   UNL     1      -1.175  11.634  21.992  0.00  0.00    +0.000 S 
ATOM     17  O   UNL     1      -2.048  12.136  20.953  0.00  0.00    +0.000 OA
ATOM     18  O   UNL     1      -1.675  11.153  23.258  0.00  0.00    +0.000 OA
BRANCH  16  19
ATOM     19  O   UNL     1      -0.135  12.837  22.278  0.00  0.00    +0.000 OA
ATOM     20  H   UNL     1       0.762  12.446  22.343  0.00  0.00    +0.000 HD
ENDBRANCH  16  19
ENDBRANCH  13  16
ENDBRANCH   9  10
ENDBRANCH   4   8
BRANCH   6  21
ATOM     21  C   UNL     1       3.093   2.346  17.675  0.00  0.00    +0.000 C 
ATOM     22  O   UNL     1       2.074   1.866  17.219  0.00  0.00    +0.000 OA
BRANCH  21  23
ATOM     23  O   UNL     1       3.985   1.580  18.343  0.00  0.00    +0.000 OA
ATOM     24  H   UNL     1       4.849   2.006  18.525  0.00  0.00    +0.000 HD
ENDBRANCH  21  23
ENDBRANCH   6  21
BRANCH   7  25
ATOM     25  O   UNL     1       5.487   3.267  16.404  0.00  0.00    +0.000 OA
ATOM     26  H   UNL     1       5.019   2.434  16.194  0.00  0.00    +0.000 HD
ENDBRANCH   7  25
BRANCH   5  27
ATOM     27  C   UNL     1       1.355   4.518  19.039  0.00  0.00    +0.000 C 
BRANCH  27  28
ATOM     28  C   UNL     1       1.310   3.481  20.171  0.00  0.00    +0.000 C 
BRANCH  28  29
ATOM     29  C   UNL     1       2.106   3.823  21.398  0.00  0.00    +0.000 C 
ATOM     30  O   UNL     1       2.355   3.066  22.317  0.00  0.00    +0.000 OA
BRANCH  29  31
ATOM     31  O   UNL     1       2.560   5.101  21.365  0.00  0.00    +0.000 OA
ATOM     32  H   UNL     1       3.197   5.318  22.075  0.00  0.00    +0.000 HD
ENDBRANCH  29  31
ENDBRANCH  28  29
ENDBRANCH  27  28
ENDBRANCH   5  27
TORSDOF 11
ENDMDL
MODEL 4
REMARK VINA RESULT:      -7.5      1.611      2.068
REMARK  Name = 
REMARK  12 active torsions:
REMARK  status: ('A' for Active; 'I' for Inactive)
REMARK    1  A    between atoms: C_1  and  C_2
REMARK    2  A    between atoms: C_4  and  N_5
REMARK    3  A    between atoms: N_6  and  C_7
REMARK    4  A    between atoms: C_10  and  S_11
REMARK    5  A    between atoms: S_11  and  O_14
REMARK    6  A    between atoms: C_17  and  C_18
REMARK    7  A    between atoms: C_18  and  C_19
REMARK    8  A    between atoms: C_19  and  C_20
REMARK    9  A    between atoms: C_20  and  O_22
REMARK   10  A    between atoms: C_23  and  C_24
REMARK   11  A    between atoms: C_24  and  O_26
REMARK   12  A    between atoms: C_27  and  O_28
REMARK                            x       y       z     vdW  Elec       q    Type
REMARK                         _______ _______ _______ _____ _____    ______ ____
ROOT
ATOM      1  C   UNL     1       7.003   6.705  17.346  0.00  0.00    +0.000 C 
ATOM      2  C   UNL     1       5.701   6.097  17.776  0.00  0.00    +0.000 A 
ATOM      3  N   UNL     1       4.632   6.910  17.762  0.00  0.00    +0.000 NA
ATOM      4  C   UNL     1       3.430   6.438  18.186  0.00  0.00    +0.000 A 
ATOM      5  C   UNL     1       3.237   5.127  18.672  0.00  0.00    +0.000 A 
ATOM      6  C   UNL     1       4.356   4.263  18.583  0.00  0.00    +0.000 A 
ATOM      7  C   UNL     1       5.604   4.769  18.164  0.00  0.00    +0.000 A 
ENDROOT
BRANCH   4   8
ATOM      8  N   UNL     1       2.373   7.379  18.134  0.00  0.00    +0.000 NA
ATOM      9  N   UNL     1       2.470   8.241  19.040  0.00  0.00    +0.000 NA
BRANCH   9  10
ATOM     10  C   UNL     1       1.320   9.055  19.170  0.00  0.00    +0.000 A 
ATOM     11  C   UNL     1       0.786   9.467  20.403  0.00  0.00    +0.000 A 
ATOM     12  C   UNL     1      -0.312  10.326  20.467  0.00  0.00    +0.000 A 
ATOM     13  C   UNL     1      -0.888  10.794  19.283  0.00  0.00    +0.000 A 
ATOM     14  C   UNL     1      -0.382  10.405  18.043  0.00  0.00    +0.000 A 
ATOM     15  C   UNL     1       0.718   9.538  17.993  0.00  0.00    +0.000 A 
BRANCH  13  16
ATOM     16  S   UNL     1      -2.221  11.955  19.381  0.00  0.00    +0.000 S 
ATOM     17  O   UNL     1      -3.264  11.513  18.479  0.00  0.00    +0.000 OA
ATOM     18  O   UNL     1      -2.469  12.222  20.779  0.00  0.00    +0.000 OA
BRANCH  16  19
ATOM     19  O   UNL     1      -1.626  13.295  18.704  0.00  0.00    +0.000 OA
ATOM     20  H   UNL     1      -2.373  13.914  18.561  0.00  0.00    +0.000 HD
ENDBRANCH  16  19
ENDBRANCH  13  16
ENDBRANCH   9  10
ENDBRANCH   4   8
BRANCH   6  21
ATOM     21  C   UNL     1       4.269   2.808  18.898  0.00  0.00    +0.000 C 
ATOM     22  O   UNL     1       4.770   2.272  19.867  0.00  0.00    +0.000 OA
BRANCH  21  23
ATOM     23  O   UNL     1       3.635   2.079  17.951  0.00  0.00    +0.000 OA
ATOM     24  H   UNL     1       4.149   1.920  17.132  0.00  0.00    +0.000 HD
ENDBRANCH  21  23
ENDBRANCH   6  21
BRANCH   7  25
ATOM     25  O   UNL     1       6.743   4.006  18.099  0.00  0.00    +0.000 OA
ATOM     26  H   UNL     1       7.487   4.533  17.744  0.00  0.00    +0.000 HD
ENDBRANCH   7  25
BRANCH   5  27
ATOM     27  C   UNL     1       1.846   4.722  19.143  0.00  0.00    +0.000 C 
BRANCH  27  28
ATOM     28  C   UNL     1       1.502   4.604  20.635  0.00  0.00    +0.000 C 
BRANCH  28  29
ATOM     29  C   UNL     1       1.667   3.237  21.234  0.00  0.00    +0.000 C 
ATOM     30  O   UNL     1       1.301   2.191  20.731  0.00  0.00    +0.000 OA
BRANCH  29  31
ATOM     31  O   UNL     1       2.315   3.283  22.425  0.00  0.00    +0.000 OA
ATOM     32  H   UNL     1       2.770   4.131  22.600  0.00  0.00    +0.000 HD
ENDBRANCH  29  31
ENDBRANCH  28  29
ENDBRANCH  27  28
ENDBRANCH   5  27
TORSDOF 11
ENDMDL
MODEL 5
REMARK VINA RESULT:      -7.4      2.016      2.350
REMARK  Name = 
REMARK  12 active torsions:
REMARK  status: ('A' for Active; 'I' for Inactive)
REMARK    1  A    between atoms: C_1  and  C_2
REMARK    2  A    between atoms: C_4  and  N_5
REMARK    3  A    between atoms: N_6  and  C_7
REMARK    4  A    between atoms: C_10  and  S_11
REMARK    5  A    between atoms: S_11  and  O_14
REMARK    6  A    between atoms: C_17  and  C_18
REMARK    7  A    between atoms: C_18  and  C_19
REMARK    8  A    between atoms: C_19  and  C_20
REMARK    9  A    between atoms: C_20  and  O_22
REMARK   10  A    between atoms: C_23  and  C_24
REMARK   11  A    between atoms: C_24  and  O_26
REMARK   12  A    between atoms: C_27  and  O_28
REMARK                            x       y       z     vdW  Elec       q    Type
REMARK                         _______ _______ _______ _____ _____    ______ ____
ROOT
ATOM      1  C   UNL     1       7.079   6.712  17.329  0.00  0.00    +0.000 C 
ATOM      2  C   UNL     1       5.785   6.085  17.756  0.00  0.00    +0.000 A 
ATOM      3  N   UNL     1       4.703   6.881  17.736  0.00  0.00    +0.000 NA
ATOM      4  C   UNL     1       3.507   6.392  18.158  0.00  0.00    +0.000 A 
ATOM      5  C   UNL     1       3.333   5.079  18.646  0.00  0.00    +0.000 A 
ATOM      6  C   UNL     1       4.465   4.231  18.562  0.00  0.00    +0.000 A 
ATOM      7  C   UNL     1       5.707   4.756  18.146  0.00  0.00    +0.000 A 
ENDROOT
BRANCH   4   8
ATOM      8  N   UNL     1       2.436   7.315  18.100  0.00  0.00    +0.000 NA
ATOM      9  N   UNL     1       2.838   8.484  17.885  0.00  0.00    +0.000 NA
BRANCH   9  10
ATOM     10  C   UNL     1       1.833   9.466  18.051  0.00  0.00    +0.000 A 
ATOM     11  C   UNL     1       0.455   9.195  17.995  0.00  0.00    +0.000 A 
ATOM     12  C   UNL     1      -0.490  10.193  18.234  0.00  0.00    +0.000 A 
ATOM     13  C   UNL     1      -0.061  11.486  18.546  0.00  0.00    +0.000 A 
ATOM     14  C   UNL     1       1.299  11.788  18.612  0.00  0.00    +0.000 A 
ATOM     15  C   UNL     1       2.238  10.776  18.364  0.00  0.00    +0.000 A 
BRANCH  13  16
ATOM     16  S   UNL     1      -1.271  12.718  18.938  0.00  0.00    +0.000 S 
ATOM     17  O   UNL     1      -1.813  12.410  20.244  0.00  0.00    +0.000 OA
ATOM     18  O   UNL     1      -0.704  14.007  18.619  0.00  0.00    +0.000 OA
BRANCH  16  19
ATOM     19  O   UNL     1      -2.479  12.423  17.907  0.00  0.00    +0.000 OA
ATOM     20  H   UNL     1      -3.199  13.060  18.101  0.00  0.00    +0.000 HD
ENDBRANCH  16  19
ENDBRANCH  13  16
ENDBRANCH   9  10
ENDBRANCH   4   8
BRANCH   6  21
ATOM     21  C   UNL     1       4.399   2.776  18.881  0.00  0.00    +0.000 C 
ATOM     22  O   UNL     1       4.864   2.258  19.877  0.00  0.00    +0.000 OA
BRANCH  21  23
ATOM     23  O   UNL     1       3.835   2.028  17.906  0.00  0.00    +0.000 OA
ATOM     24  H   UNL     1       2.919   1.727  18.086  0.00  0.00    +0.000 HD
ENDBRANCH  21  23
ENDBRANCH   6  21
BRANCH   7  25
ATOM     25  O   UNL     1       6.858   4.010  18.087  0.00  0.00    +0.000 OA
ATOM     26  H   UNL     1       7.298   4.131  17.221  0.00  0.00    +0.000 HD
ENDBRANCH   7  25
BRANCH   5  27
ATOM     27  C   UNL     1       1.947   4.653  19.113  0.00  0.00    +0.000 C 
BRANCH  27  28
ATOM     28  C   UNL     1       1.595   4.550  20.604  0.00  0.00    +0.000 C 
BRANCH  28  29
ATOM     29  C   UNL     1       1.767   3.190  21.219  0.00  0.00    +0.000 C 
ATOM     30  O   UNL     1       1.998   2.965  22.392  0.00  0.00    +0.000 OA
BRANCH  29  31
ATOM     31  O   UNL     1       1.605   2.199  20.307  0.00  0.00    +0.000 OA
ATOM     32  H   UNL     1       1.900   2.435  19.404  0.00  0.00    +0.000 HD
ENDBRANCH  29  31
ENDBRANCH  28  29
ENDBRANCH  27  28
ENDBRANCH   5  27
TORSDOF 11
ENDMDL
MODEL 6
REMARK VINA RESULT:      -7.4      0.752      1.244
REMARK  Name = 
REMARK  12 active torsions:
REMARK  status: ('A' for Active; 'I' for Inactive)
REMARK    1  A    between atoms: C_1  and  C_2
REMARK    2  A    between atoms: C_4  and  N_5
REMARK    3  A    between atoms: N_6  and  C_7
REMARK    4  A    between atoms: C_10  and  S_11
REMARK    5  A    between atoms: S_11  and  O_14
REMARK    6  A    between atoms: C_17  and  C_18
REMARK    7  A    between atoms: C_18  and  C_19
REMARK    8  A    between atoms: C_19  and  C_20
REMARK    9  A    between atoms: C_20  and  O_22
REMARK   10  A    between atoms: C_23  and  C_24
REMARK   11  A    between atoms: C_24  and  O_26
REMARK   12  A    between atoms: C_27  and  O_28
REMARK                            x       y       z     vdW  Elec       q    Type
REMARK                         _______ _______ _______ _____ _____    ______ ____
ROOT
ATOM      1  C   UNL     1       6.209   6.582  16.963  0.00  0.00    +0.000 C 
ATOM      2  C   UNL     1       5.225   5.906  17.870  0.00  0.00    +0.000 A 
ATOM      3  N   UNL     1       4.226   6.670  18.339  0.00  0.00    +0.000 NA
ATOM      4  C   UNL     1       3.326   6.134  19.205  0.00  0.00    +0.000 A 
ATOM      5  C   UNL     1       3.391   4.803  19.669  0.00  0.00    +0.000 A 
ATOM      6  C   UNL     1       4.394   3.991  19.083  0.00  0.00    +0.000 A 
ATOM      7  C   UNL     1       5.337   4.564  18.203  0.00  0.00    +0.000 A 
ENDROOT
BRANCH   4   8
ATOM      8  N   UNL     1       2.318   7.028  19.641  0.00  0.00    +0.000 NA
ATOM      9  N   UNL     1       2.184   7.999  18.857  0.00  0.00    +0.000 NA
BRANCH   9  10
ATOM     10  C   UNL     1       1.359   9.028  19.370  0.00  0.00    +0.000 A 
ATOM     11  C   UNL     1       0.652   8.936  20.581  0.00  0.00    +0.000 A 
ATOM     12  C   UNL     1      -0.092  10.010  21.069  0.00  0.00    +0.000 A 
ATOM     13  C   UNL     1      -0.129  11.206  20.347  0.00  0.00    +0.000 A 
ATOM     14  C   UNL     1       0.563  11.331  19.142  0.00  0.00    +0.000 A 
ATOM     15  C   UNL     1       1.302  10.241  18.660  0.00  0.00    +0.000 A 
BRANCH  13  16
ATOM     16  S   UNL     1      -1.001  12.589  21.025  0.00  0.00    +0.000 S 
ATOM     17  O   UNL     1      -0.885  13.690  20.092  0.00  0.00    +0.000 OA
ATOM     18  O   UNL     1      -2.277  12.112  21.504  0.00  0.00    +0.000 OA
BRANCH  16  19
ATOM     19  O   UNL     1      -0.110  13.029  22.298  0.00  0.00    +0.000 OA
ATOM     20  H   UNL     1      -0.206  13.999  22.409  0.00  0.00    +0.000 HD
ENDBRANCH  16  19
ENDBRANCH  13  16
ENDBRANCH   9  10
ENDBRANCH   4   8
BRANCH   6  21
ATOM     21  C   UNL     1       4.488   2.526  19.341  0.00  0.00    +0.000 C 
ATOM     22  O   UNL     1       4.891   2.023  20.372  0.00  0.00    +0.000 OA
BRANCH  21  23
ATOM     23  O   UNL     1       4.156   1.760  18.277  0.00  0.00    +0.000 OA
ATOM     24  H   UNL     1       3.200   1.740  18.058  0.00  0.00    +0.000 HD
ENDBRANCH  21  23
ENDBRANCH   6  21
BRANCH   7  25
ATOM     25  O   UNL     1       6.365   3.854  17.636  0.00  0.00    +0.000 OA
ATOM     26  H   UNL     1       6.688   3.168  18.255  0.00  0.00    +0.000 HD
ENDBRANCH   7  25
BRANCH   5  27
ATOM     27  C   UNL     1       2.337   4.323  20.659  0.00  0.00    +0.000 C 
BRANCH  27  28
ATOM     28  C   UNL     1       1.000   3.733  20.191  0.00  0.00    +0.000 C 
BRANCH  28  29
ATOM     29  C   UNL     1       1.008   3.106  18.826  0.00  0.00    +0.000 C 
ATOM     30  O   UNL     1       0.955   3.704  17.768  0.00  0.00    +0.000 OA
BRANCH  29  31
ATOM     31  O   UNL     1       1.113   1.755  18.892  0.00  0.00    +0.000 OA
ATOM     32  H   UNL     1       0.342   1.275  18.527  0.00  0.00    +0.000 HD
ENDBRANCH  29  31
ENDBRANCH  28  29
ENDBRANCH  27  28
ENDBRANCH   5  27
TORSDOF 11
ENDMDL
MODEL 7
REMARK VINA RESULT:      -7.4      1.776      2.269
REMARK  Name = 
REMARK  12 active torsions:
REMARK  status: ('A' for Active; 'I' for Inactive)
REMARK    1  A    between atoms: C_1  and  C_2
REMARK    2  A    between atoms: C_4  and  N_5
REMARK    3  A    between atoms: N_6  and  C_7
REMARK    4  A    between atoms: C_10  and  S_11
REMARK    5  A    between atoms: S_11  and  O_14
REMARK    6  A    between atoms: C_17  and  C_18
REMARK    7  A    between atoms: C_18  and  C_19
REMARK    8  A    between atoms: C_19  and  C_20
REMARK    9  A    between atoms: C_20  and  O_22
REMARK   10  A    between atoms: C_23  and  C_24
REMARK   11  A    between atoms: C_24  and  O_26
REMARK   12  A    between atoms: C_27  and  O_28
REMARK                            x       y       z     vdW  Elec       q    Type
REMARK                         _______ _______ _______ _____ _____    ______ ____
ROOT
ATOM      1  C   UNL     1       6.166   5.685  15.987  0.00  0.00    +0.000 C 
ATOM      2  C   UNL     1       5.033   5.297  16.889  0.00  0.00    +0.000 A 
ATOM      3  N   UNL     1       4.387   6.304  17.501  0.00  0.00    +0.000 NA
ATOM      4  C   UNL     1       3.382   6.021  18.370  0.00  0.00    +0.000 A 
ATOM      5  C   UNL     1       2.980   4.708  18.694  0.00  0.00    +0.000 A 
ATOM      6  C   UNL     1       3.608   3.670  17.962  0.00  0.00    +0.000 A 
ATOM      7  C   UNL     1       4.666   3.972  17.080  0.00  0.00    +0.000 A 
ENDROOT
BRANCH   4   8
ATOM      8  N   UNL     1       2.774   7.155  18.961  0.00  0.00    +0.000 NA
ATOM      9  N   UNL     1       2.105   7.814  18.129  0.00  0.00    +0.000 NA
BRANCH   9  10
ATOM     10  C   UNL     1       1.676   9.071  18.617  0.00  0.00    +0.000 A 
ATOM     11  C   UNL     1       0.884   9.237  19.765  0.00  0.00    +0.000 A 
ATOM     12  C   UNL     1       0.549  10.506  20.237  0.00  0.00    +0.000 A 
ATOM     13  C   UNL     1       1.018  11.637  19.562  0.00  0.00    +0.000 A 
ATOM     14  C   UNL     1       1.808  11.507  18.420  0.00  0.00    +0.000 A 
ATOM     15  C   UNL     1       2.132  10.225  17.954  0.00  0.00    +0.000 A 
BRANCH  13  16
ATOM     16  S   UNL     1       0.661  13.239  20.226  0.00  0.00    +0.000 S 
ATOM     17  O   UNL     1       0.797  13.165  21.666  0.00  0.00    +0.000 OA
ATOM     18  O   UNL     1       1.373  14.212  19.431  0.00  0.00    +0.000 OA
BRANCH  16  19
ATOM     19  O   UNL     1      -0.921  13.428  19.967  0.00  0.00    +0.000 OA
ATOM     20  H   UNL     1      -1.267  12.586  19.602  0.00  0.00    +0.000 HD
ENDBRANCH  16  19
ENDBRANCH  13  16
ENDBRANCH   9  10
ENDBRANCH   4   8
BRANCH   6  21
ATOM     21  C   UNL     1       3.179   2.245  18.067  0.00  0.00    +0.000 C 
ATOM     22  O   UNL     1       3.771   1.382  18.684  0.00  0.00    +0.000 OA
BRANCH  21  23
ATOM     23  O   UNL     1       2.083   1.948  17.333  0.00  0.00    +0.000 OA
ATOM     24  H   UNL     1       2.154   2.148  16.375  0.00  0.00    +0.000 HD
ENDBRANCH  21  23
ENDBRANCH   6  21
BRANCH   7  25
ATOM     25  O   UNL     1       5.355   3.018  16.375  0.00  0.00    +0.000 OA
ATOM     26  H   UNL     1       5.905   3.436  15.681  0.00  0.00    +0.000 HD
ENDBRANCH   7  25
BRANCH   5  27
ATOM     27  C   UNL     1       1.854   4.518  19.703  0.00  0.00    +0.000 C 
BRANCH  27  28
ATOM     28  C   UNL     1       2.135   4.350  21.203  0.00  0.00    +0.000 C 
BRANCH  28  29
ATOM     29  C   UNL     1       2.241   2.933  21.690  0.00  0.00    +0.000 C 
ATOM     30  O   UNL     1       1.347   2.291  22.210  0.00  0.00    +0.000 OA
BRANCH  29  31
ATOM     31  O   UNL     1       3.471   2.410  21.458  0.00  0.00    +0.000 OA
ATOM     32  H   UNL     1       4.108   3.043  21.070  0.00  0.00    +0.000 HD
ENDBRANCH  29  31
ENDBRANCH  28  29
ENDBRANCH  27  28
ENDBRANCH   5  27
TORSDOF 11
ENDMDL
MODEL 8
REMARK VINA RESULT:      -7.4      1.293      1.569
REMARK  Name = 
REMARK  12 active torsions:
REMARK  status: ('A' for Active; 'I' for Inactive)
REMARK    1  A    between atoms: C_1  and  C_2
REMARK    2  A    between atoms: C_4  and  N_5
REMARK    3  A    between atoms: N_6  and  C_7
REMARK    4  A    between atoms: C_10  and  S_11
REMARK    5  A    between atoms: S_11  and  O_14
REMARK    6  A    between atoms: C_17  and  C_18
REMARK    7  A    between atoms: C_18  and  C_19
REMARK    8  A    between atoms: C_19  and  C_20
REMARK    9  A    between atoms: C_20  and  O_22
REMARK   10  A    between atoms: C_23  and  C_24
REMARK   11  A    between atoms: C_24  and  O_26
REMARK   12  A    between atoms: C_27  and  O_28
REMARK                            x       y       z     vdW  Elec       q    Type
REMARK                         _______ _______ _______ _____ _____    ______ ____
ROOT
ATOM      1  C   UNL     1       6.037   5.722  15.866  0.00  0.00    +0.000 C 
ATOM      2  C   UNL     1       4.861   5.338  16.713  0.00  0.00    +0.000 A 
ATOM      3  N   UNL     1       4.115   6.348  17.189  0.00  0.00    +0.000 NA
ATOM      4  C   UNL     1       3.062   6.074  18.004  0.00  0.00    +0.000 A 
ATOM      5  C   UNL     1       2.710   4.768  18.407  0.00  0.00    +0.000 A 
ATOM      6  C   UNL     1       3.450   3.716  17.812  0.00  0.00    +0.000 A 
ATOM      7  C   UNL     1       4.555   4.012  16.987  0.00  0.00    +0.000 A 
ENDROOT
BRANCH   4   8
ATOM      8  N   UNL     1       2.348   7.211  18.452  0.00  0.00    +0.000 NA
ATOM      9  N   UNL     1       2.533   7.427  19.675  0.00  0.00    +0.000 NA
BRANCH   9  10
ATOM     10  C   UNL     1       1.663   8.404  20.213  0.00  0.00    +0.000 A 
ATOM     11  C   UNL     1       1.276   8.451  21.563  0.00  0.00    +0.000 A 
ATOM     12  C   UNL     1       0.469   9.480  22.050  0.00  0.00    +0.000 A 
ATOM     13  C   UNL     1       0.044  10.490  21.182  0.00  0.00    +0.000 A 
ATOM     14  C   UNL     1       0.411  10.474  19.837  0.00  0.00    +0.000 A 
ATOM     15  C   UNL     1       1.218   9.431  19.360  0.00  0.00    +0.000 A 
BRANCH  13  16
ATOM     16  S   UNL     1      -0.903  11.837  21.835  0.00  0.00    +0.000 S 
ATOM     17  O   UNL     1      -1.744  11.318  22.894  0.00  0.00    +0.000 OA
ATOM     18  O   UNL     1      -0.003  12.948  22.036  0.00  0.00    +0.000 OA
BRANCH  16  19
ATOM     19  O   UNL     1      -1.923  12.215  20.642  0.00  0.00    +0.000 OA
ATOM     20  H   UNL     1      -2.120  11.392  20.146  0.00  0.00    +0.000 HD
ENDBRANCH  16  19
ENDBRANCH  13  16
ENDBRANCH   9  10
ENDBRANCH   4   8
BRANCH   6  21
ATOM     21  C   UNL     1       3.094   2.281  18.004  0.00  0.00    +0.000 C 
ATOM     22  O   UNL     1       3.820   1.443  18.502  0.00  0.00    +0.000 OA
BRANCH  21  23
ATOM     23  O   UNL     1       1.889   1.942  17.492  0.00  0.00    +0.000 OA
ATOM     24  H   UNL     1       1.905   1.223  16.826  0.00  0.00    +0.000 HD
ENDBRANCH  21  23
ENDBRANCH   6  21
BRANCH   7  25
ATOM     25  O   UNL     1       5.349   3.050  16.415  0.00  0.00    +0.000 OA
ATOM     26  H   UNL     1       5.789   3.401  15.615  0.00  0.00    +0.000 HD
ENDBRANCH   7  25
BRANCH   5  27
ATOM     27  C   UNL     1       1.523   4.589  19.344  0.00  0.00    +0.000 C 
BRANCH  27  28
ATOM     28  C   UNL     1       1.710   4.227  20.824  0.00  0.00    +0.000 C 
BRANCH  28  29
ATOM     29  C   UNL     1       1.306   2.832  21.208  0.00  0.00    +0.000 C 
ATOM     30  O   UNL     1       1.615   2.261  22.237  0.00  0.00    +0.000 OA
BRANCH  29  31
ATOM     31  O   UNL     1       0.509   2.261  20.271  0.00  0.00    +0.000 OA
ATOM     32  H   UNL     1       0.971   1.628  19.685  0.00  0.00    +0.000 HD
ENDBRANCH  29  31
ENDBRANCH  28  29
ENDBRANCH  27  28
ENDBRANCH   5  27
TORSDOF 11
ENDMDL
MODEL 9
REMARK VINA RESULT:      -7.3      1.452      1.903
REMARK  Name = 
REMARK  12 active torsions:
REMARK  status: ('A' for Active; 'I' for Inactive)
REMARK    1  A    between atoms: C_1  and  C_2
REMARK    2  A    between atoms: C_4  and  N_5
REMARK    3  A    between atoms: N_6  and  C_7
REMARK    4  A    between atoms: C_10  and  S_11
REMARK    5  A    between atoms: S_11  and  O_14
REMARK    6  A    between atoms: C_17  and  C_18
REMARK    7  A    between atoms: C_18  and  C_19
REMARK    8  A    between atoms: C_19  and  C_20
REMARK    9  A    between atoms: C_20  and  O_22
REMARK   10  A    between atoms: C_23  and  C_24
REMARK   11  A    between atoms: C_24  and  O_26
REMARK   12  A    between atoms: C_27  and  O_28
REMARK                            x       y       z     vdW  Elec       q    Type
REMARK                         _______ _______ _______ _____ _____    ______ ____
ROOT
ATOM      1  C   UNL     1       5.354   6.027  15.554  0.00  0.00    +0.000 C 
ATOM      2  C   UNL     1       4.688   5.620  16.834  0.00  0.00    +0.000 A 
ATOM      3  N   UNL     1       3.912   6.545  17.422  0.00  0.00    +0.000 NA
ATOM      4  C   UNL     1       3.317   6.261  18.610  0.00  0.00    +0.000 A 
ATOM      5  C   UNL     1       3.486   5.035  19.290  0.00  0.00    +0.000 A 
ATOM      6  C   UNL     1       4.227   4.042  18.603  0.00  0.00    +0.000 A 
ATOM      7  C   UNL     1       4.860   4.356  17.381  0.00  0.00    +0.000 A 
ENDROOT
BRANCH   4   8
ATOM      8  N   UNL     1       2.527   7.307  19.143  0.00  0.00    +0.000 NA
ATOM      9  N   UNL     1       2.206   8.144  18.264  0.00  0.00    +0.000 NA
BRANCH   9  10
ATOM     10  C   UNL     1       1.619   9.318  18.791  0.00  0.00    +0.000 A 
ATOM     11  C   UNL     1       0.828   9.346  19.953  0.00  0.00    +0.000 A 
ATOM     12  C   UNL     1       0.332  10.546  20.462  0.00  0.00    +0.000 A 
ATOM     13  C   UNL     1       0.634  11.746  19.814  0.00  0.00    +0.000 A 
ATOM     14  C   UNL     1       1.418  11.754  18.660  0.00  0.00    +0.000 A 
ATOM     15  C   UNL     1       1.905  10.540  18.156  0.00  0.00    +0.000 A 
BRANCH  13  16
ATOM     16  S   UNL     1       0.074  13.268  20.525  0.00  0.00    +0.000 S 
ATOM     17  O   UNL     1      -1.269  13.516  20.046  0.00  0.00    +0.000 OA
ATOM     18  O   UNL     1       0.402  13.242  21.931  0.00  0.00    +0.000 OA
BRANCH  16  19
ATOM     19  O   UNL     1       0.984  14.394  19.809  0.00  0.00    +0.000 OA
ATOM     20  H   UNL     1       1.908  14.066  19.796  0.00  0.00    +0.000 HD
ENDBRANCH  16  19
ENDBRANCH  13  16
ENDBRANCH   9  10
ENDBRANCH   4   8
BRANCH   6  21
ATOM     21  C   UNL     1       4.354   2.646  19.110  0.00  0.00    +0.000 C 
ATOM     22  O   UNL     1       4.961   2.319  20.111  0.00  0.00    +0.000 OA
BRANCH  21  23
ATOM     23  O   UNL     1       3.793   1.717  18.302  0.00  0.00    +0.000 OA
ATOM     24  H   UNL     1       4.291   0.876  18.222  0.00  0.00    +0.000 HD
ENDBRANCH  21  23
ENDBRANCH   6  21
BRANCH   7  25
ATOM     25  O   UNL     1       5.633   3.464  16.682  0.00  0.00    +0.000 OA
ATOM     26  H   UNL     1       5.074   2.909  16.103  0.00  0.00    +0.000 HD
ENDBRANCH   7  25
BRANCH   5  27
ATOM     27  C   UNL     1       2.787   4.843  20.630  0.00  0.00    +0.000 C 
BRANCH  27  28
ATOM     28  C   UNL     1       1.386   4.223  20.726  0.00  0.00    +0.000 C 
BRANCH  28  29
ATOM     29  C   UNL     1       1.343   2.768  21.100  0.00  0.00    +0.000 C 
ATOM     30  O   UNL     1       1.371   2.324  22.232  0.00  0.00    +0.000 OA
BRANCH  29  31
ATOM     31  O   UNL     1       1.238   1.970  20.007  0.00  0.00    +0.000 OA
ATOM     32  H   UNL     1       1.479   2.409  19.167  0.00  0.00    +0.000 HD
ENDBRANCH  29  31
ENDBRANCH  28  29
ENDBRANCH  27  28
ENDBRANCH   5  27
TORSDOF 11
ENDMDL
