MODEL 1
REMARK VINA RESULT:      -8.6      0.000      0.000
REMARK  Name = 
REMARK  5 active torsions:
REMARK  status: ('A' for Active; 'I' for Inactive)
REMARK    1  A    between atoms: C_1  and  C_2
REMARK    2  A    between atoms: N_12  and  C_13
REMARK    3  A    between atoms: C_16  and  O_17
REMARK    4  A    between atoms: O_17  and  C_18
REMARK    5  A    between atoms: N_22  and  C_23
REMARK                            x       y       z     vdW  Elec       q    Type
REMARK                         _______ _______ _______ _____ _____    ______ ____
ROOT
ATOM      1  C   UNL     1       1.065  10.432  19.726  0.00  0.00    +0.000 A 
ATOM      2  C   UNL     1       1.690   9.753  18.677  0.00  0.00    +0.000 A 
ATOM      3  C   UNL     1       2.036   8.412  18.826  0.00  0.00    +0.000 A 
ATOM      4  C   UNL     1       1.754   7.739  20.016  0.00  0.00    +0.000 A 
ATOM      5  C   UNL     1       1.119   8.411  21.059  0.00  0.00    +0.000 A 
ATOM      6  C   UNL     1       0.786   9.760  20.921  0.00  0.00    +0.000 A 
ENDROOT
BRANCH   1  18
ATOM      7  C   UNL     1      -1.323  10.938  18.194  0.00  0.00    +0.000 C 
ATOM      8  C   UNL     1      -0.490  12.067  18.764  0.00  0.00    +0.000 A 
ATOM      9  N   UNL     1      -0.894  13.279  18.526  0.00  0.00    +0.000 NA
ATOM     10  C   UNL     1      -0.160  14.346  19.055  0.00  0.00    +0.000 A 
ATOM     11  C   UNL     1      -0.557  15.651  18.760  0.00  0.00    +0.000 A 
ATOM     12  C   UNL     1       0.182  16.744  19.226  0.00  0.00    +0.000 A 
ATOM     13  C   UNL     1       1.322  16.539  20.001  0.00  0.00    +0.000 A 
ATOM     14  C   UNL     1       1.712  15.242  20.326  0.00  0.00    +0.000 A 
ATOM     15  C   UNL     1       0.965  14.156  19.855  0.00  0.00    +0.000 A 
ATOM     16  C   UNL     1       1.363  12.776  20.164  0.00  0.00    +0.000 A 
ATOM     17  O   UNL     1       2.321  12.597  20.913  0.00  0.00    +0.000 OA
ATOM     18  N   UNL     1       0.619  11.770  19.537  0.00  0.00    +0.000 N 
ENDBRANCH   1  18
BRANCH   4  19
ATOM     19  O   UNL     1       2.084   6.416  20.019  0.00  0.00    +0.000 OA
BRANCH  19  20
ATOM     20  C   UNL     1       2.611   5.850  18.805  0.00  0.00    +0.000 C 
ATOM     21  C   UNL     1       1.863   4.524  18.652  0.00  0.00    +0.000 C 
ATOM     22  C   UNL     1       2.256   3.669  17.461  0.00  0.00    +0.000 C 
ATOM     23  C   UNL     1       3.744   3.329  17.381  0.00  0.00    +0.000 C 
ATOM     24  N   UNL     1       4.471   4.436  16.753  0.00  0.00    +0.000 NA
ATOM     25  C   UNL     1       4.904   5.484  17.691  0.00  0.00    +0.000 C 
ATOM     26  C   UNL     1       4.119   5.677  18.994  0.00  0.00    +0.000 C 
BRANCH  24  27
ATOM     27  C   UNL     1       5.641   3.917  16.017  0.00  0.00    +0.000 C 
ATOM     28  C   UNL     1       5.569   4.338  14.521  0.00  0.00    +0.000 C 
ATOM     29  C   UNL     1       7.071   4.664  14.621  0.00  0.00    +0.000 C 
ATOM     30  C   UNL     1       6.834   4.906  16.128  0.00  0.00    +0.000 C 
ENDBRANCH  24  27
ENDBRANCH  19  20
ENDBRANCH   4  19
TORSDOF 4
ENDMDL
MODEL 2
REMARK VINA RESULT:      -8.5      0.847      1.221
REMARK  Name = 
REMARK  5 active torsions:
REMARK  status: ('A' for Active; 'I' for Inactive)
REMARK    1  A    between atoms: C_1  and  C_2
REMARK    2  A    between atoms: N_12  and  C_13
REMARK    3  A    between atoms: C_16  and  O_17
REMARK    4  A    between atoms: O_17  and  C_18
REMARK    5  A    between atoms: N_22  and  C_23
REMARK                            x       y       z     vdW  Elec       q    Type
REMARK                         _______ _______ _______ _____ _____    ______ ____
ROOT
ATOM      1  C   UNL     1       0.892  10.797  19.144  0.00  0.00    +0.000 A 
ATOM      2  C   UNL     1       0.892  10.134  20.374  0.00  0.00    +0.000 A 
ATOM      3  C   UNL     1       1.332   8.813  20.450  0.00  0.00    +0.000 A 
ATOM      4  C   UNL     1       1.781   8.151  19.307  0.00  0.00    +0.000 A 
ATOM      5  C   UNL     1       1.795   8.816  18.082  0.00  0.00    +0.000 A 
ATOM      6  C   UNL     1       1.338  10.133  17.996  0.00  0.00    +0.000 A 
ENDROOT
BRANCH   1  18
ATOM      7  C   UNL     1      -1.884  11.567  19.163  0.00  0.00    +0.000 C 
ATOM      8  C   UNL     1      -0.777  12.592  19.033  0.00  0.00    +0.000 A 
ATOM      9  N   UNL     1      -1.131  13.837  18.923  0.00  0.00    +0.000 NA
ATOM     10  C   UNL     1      -0.133  14.811  18.822  0.00  0.00    +0.000 A 
ATOM     11  C   UNL     1      -0.506  16.145  18.650  0.00  0.00    +0.000 A 
ATOM     12  C   UNL     1       0.463  17.142  18.492  0.00  0.00    +0.000 A 
ATOM     13  C   UNL     1       1.816  16.812  18.515  0.00  0.00    +0.000 A 
ATOM     14  C   UNL     1       2.202  15.488  18.714  0.00  0.00    +0.000 A 
ATOM     15  C   UNL     1       1.224  14.500  18.872  0.00  0.00    +0.000 A 
ATOM     16  C   UNL     1       1.599  13.092  19.064  0.00  0.00    +0.000 A 
ATOM     17  O   UNL     1       2.791  12.813  19.164  0.00  0.00    +0.000 OA
ATOM     18  N   UNL     1       0.543  12.174  19.083  0.00  0.00    +0.000 N 
ENDBRANCH   1  18
BRANCH   4  19
ATOM     19  O   UNL     1       2.242   6.887  19.520  0.00  0.00    +0.000 OA
BRANCH  19  20
ATOM     20  C   UNL     1       2.725   6.145  18.384  0.00  0.00    +0.000 C 
ATOM     21  C   UNL     1       2.092   4.761  18.541  0.00  0.00    +0.000 C 
ATOM     22  C   UNL     1       2.471   3.731  17.493  0.00  0.00    +0.000 C 
ATOM     23  C   UNL     1       3.973   3.496  17.339  0.00  0.00    +0.000 C 
ATOM     24  N   UNL     1       4.544   4.519  16.457  0.00  0.00    +0.000 NA
ATOM     25  C   UNL     1       4.950   5.754  17.147  0.00  0.00    +0.000 C 
ATOM     26  C   UNL     1       4.253   6.127  18.460  0.00  0.00    +0.000 C 
BRANCH  24  27
ATOM     27  C   UNL     1       5.698   3.963  15.722  0.00  0.00    +0.000 C 
ATOM     28  C   UNL     1       5.559   4.251  14.200  0.00  0.00    +0.000 C 
ATOM     29  C   UNL     1       7.055   4.615  14.211  0.00  0.00    +0.000 C 
ATOM     30  C   UNL     1       6.870   4.982  15.700  0.00  0.00    +0.000 C 
ENDBRANCH  24  27
ENDBRANCH  19  20
ENDBRANCH   4  19
TORSDOF 4
ENDMDL
MODEL 3
REMARK VINA RESULT:      -8.4      5.785     10.101
REMARK  Name = 
REMARK  5 active torsions:
REMARK  status: ('A' for Active; 'I' for Inactive)
REMARK    1  A    between atoms: C_1  and  C_2
REMARK    2  A    between atoms: N_12  and  C_13
REMARK    3  A    between atoms: C_16  and  O_17
REMARK    4  A    between atoms: O_17  and  C_18
REMARK    5  A    between atoms: N_22  and  C_23
REMARK                            x       y       z     vdW  Elec       q    Type
REMARK                         _______ _______ _______ _____ _____    ______ ____
ROOT
ATOM      1  C   UNL     1       5.937   6.102  18.054  0.00  0.00    +0.000 A 
ATOM      2  C   UNL     1       5.685   7.263  17.318  0.00  0.00    +0.000 A 
ATOM      3  C   UNL     1       6.649   8.268  17.256  0.00  0.00    +0.000 A 
ATOM      4  C   UNL     1       7.868   8.119  17.919  0.00  0.00    +0.000 A 
ATOM      5  C   UNL     1       8.126   6.956  18.642  0.00  0.00    +0.000 A 
ATOM      6  C   UNL     1       7.158   5.953  18.722  0.00  0.00    +0.000 A 
ENDROOT
BRANCH   1  18
ATOM      7  C   UNL     1       6.182   4.026  16.071  0.00  0.00    +0.000 C 
ATOM      8  C   UNL     1       5.042   4.043  17.066  0.00  0.00    +0.000 A 
ATOM      9  N   UNL     1       4.170   3.082  16.985  0.00  0.00    +0.000 NA
ATOM     10  C   UNL     1       3.115   3.055  17.903  0.00  0.00    +0.000 A 
ATOM     11  C   UNL     1       2.146   2.058  17.789  0.00  0.00    +0.000 A 
ATOM     12  C   UNL     1       1.048   2.028  18.654  0.00  0.00    +0.000 A 
ATOM     13  C   UNL     1       0.914   2.994  19.650  0.00  0.00    +0.000 A 
ATOM     14  C   UNL     1       1.890   3.978  19.792  0.00  0.00    +0.000 A 
ATOM     15  C   UNL     1       2.985   3.998  18.921  0.00  0.00    +0.000 A 
ATOM     16  C   UNL     1       4.020   5.035  19.033  0.00  0.00    +0.000 A 
ATOM     17  O   UNL     1       3.945   5.838  19.960  0.00  0.00    +0.000 OA
ATOM     18  N   UNL     1       4.999   5.033  18.033  0.00  0.00    +0.000 N 
ENDBRANCH   1  18
BRANCH   4  19
ATOM     19  O   UNL     1       8.751   9.141  17.732  0.00  0.00    +0.000 OA
BRANCH  19  20
ATOM     20  C   UNL     1       8.594  10.323  18.540  0.00  0.00    +0.000 C 
ATOM     21  C   UNL     1       8.812  11.479  17.562  0.00  0.00    +0.000 C 
ATOM     22  C   UNL     1       8.755  12.875  18.155  0.00  0.00    +0.000 C 
ATOM     23  C   UNL     1       9.716  13.116  19.318  0.00  0.00    +0.000 C 
ATOM     24  N   UNL     1       9.116  12.625  20.563  0.00  0.00    +0.000 NA
ATOM     25  C   UNL     1       9.367  11.200  20.834  0.00  0.00    +0.000 C 
ATOM     26  C   UNL     1       9.641  10.263  19.653  0.00  0.00    +0.000 C 
BRANCH  24  27
ATOM     27  C   UNL     1       9.589  13.436  21.703  0.00  0.00    +0.000 C 
ATOM     28  C   UNL     1      10.552  14.553  21.210  0.00  0.00    +0.000 C 
ATOM     29  C   UNL     1       9.813  15.506  22.168  0.00  0.00    +0.000 C 
ATOM     30  C   UNL     1       8.584  14.582  22.008  0.00  0.00    +0.000 C 
ENDBRANCH  24  27
ENDBRANCH  19  20
ENDBRANCH   4  19
TORSDOF 4
ENDMDL
MODEL 4
REMARK VINA RESULT:      -8.3      2.110      2.324
REMARK  Name = 
REMARK  5 active torsions:
REMARK  status: ('A' for Active; 'I' for Inactive)
REMARK    1  A    between atoms: C_1  and  C_2
REMARK    2  A    between atoms: N_12  and  C_13
REMARK    3  A    between atoms: C_16  and  O_17
REMARK    4  A    between atoms: O_17  and  C_18
REMARK    5  A    between atoms: N_22  and  C_23
REMARK                            x       y       z     vdW  Elec       q    Type
REMARK                         _______ _______ _______ _____ _____    ______ ____
ROOT
ATOM      1  C   UNL     1      -0.025   9.733  20.510  0.00  0.00    +0.000 A 
ATOM      2  C   UNL     1      -0.183   8.630  21.352  0.00  0.00    +0.000 A 
ATOM      3  C   UNL     1       0.654   7.525  21.212  0.00  0.00    +0.000 A 
ATOM      4  C   UNL     1       1.656   7.517  20.241  0.00  0.00    +0.000 A 
ATOM      5  C   UNL     1       1.824   8.623  19.409  0.00  0.00    +0.000 A 
ATOM      6  C   UNL     1       0.976   9.725  19.533  0.00  0.00    +0.000 A 
ENDROOT
BRANCH   1  18
ATOM      7  C   UNL     1      -1.832  10.627  18.451  0.00  0.00    +0.000 C 
ATOM      8  C   UNL     1      -1.651  11.402  19.740  0.00  0.00    +0.000 A 
ATOM      9  N   UNL     1      -2.341  12.494  19.876  0.00  0.00    +0.000 NA
ATOM     10  C   UNL     1      -2.213  13.223  21.063  0.00  0.00    +0.000 A 
ATOM     11  C   UNL     1      -2.910  14.425  21.196  0.00  0.00    +0.000 A 
ATOM     12  C   UNL     1      -2.767  15.209  22.346  0.00  0.00    +0.000 A 
ATOM     13  C   UNL     1      -1.930  14.791  23.379  0.00  0.00    +0.000 A 
ATOM     14  C   UNL     1      -1.251  13.579  23.270  0.00  0.00    +0.000 A 
ATOM     15  C   UNL     1      -1.403  12.802  22.116  0.00  0.00    +0.000 A 
ATOM     16  C   UNL     1      -0.684  11.529  21.964  0.00  0.00    +0.000 A 
ATOM     17  O   UNL     1      -0.010  11.122  22.906  0.00  0.00    +0.000 OA
ATOM     18  N   UNL     1      -0.810  10.901  20.719  0.00  0.00    +0.000 N 
ENDBRANCH   1  18
BRANCH   4  19
ATOM     19  O   UNL     1       2.449   6.408  20.243  0.00  0.00    +0.000 OA
BRANCH  19  20
ATOM     20  C   UNL     1       2.886   5.889  18.973  0.00  0.00    +0.000 C 
ATOM     21  C   UNL     1       2.023   4.643  18.758  0.00  0.00    +0.000 C 
ATOM     22  C   UNL     1       2.304   3.847  17.497  0.00  0.00    +0.000 C 
ATOM     23  C   UNL     1       3.754   3.393  17.336  0.00  0.00    +0.000 C 
ATOM     24  N   UNL     1       4.550   4.479  16.756  0.00  0.00    +0.000 NA
ATOM     25  C   UNL     1       5.101   5.419  17.747  0.00  0.00    +0.000 C 
ATOM     26  C   UNL     1       4.380   5.581  19.089  0.00  0.00    +0.000 C 
BRANCH  24  27
ATOM     27  C   UNL     1       5.647   3.921  15.941  0.00  0.00    +0.000 C 
ATOM     28  C   UNL     1       5.515   4.389  14.464  0.00  0.00    +0.000 C 
ATOM     29  C   UNL     1       7.036   4.631  14.486  0.00  0.00    +0.000 C 
ATOM     30  C   UNL     1       6.897   4.841  16.011  0.00  0.00    +0.000 C 
ENDBRANCH  24  27
ENDBRANCH  19  20
ENDBRANCH   4  19
TORSDOF 4
ENDMDL
MODEL 5
REMARK VINA RESULT:      -7.8      2.425      3.520
REMARK  Name = 
REMARK  5 active torsions:
REMARK  status: ('A' for Active; 'I' for Inactive)
REMARK    1  A    between atoms: C_1  and  C_2
REMARK    2  A    between atoms: N_12  and  C_13
REMARK    3  A    between atoms: C_16  and  O_17
REMARK    4  A    between atoms: O_17  and  C_18
REMARK    5  A    between atoms: N_22  and  C_23
REMARK                            x       y       z     vdW  Elec       q    Type
REMARK                         _______ _______ _______ _____ _____    ______ ____
ROOT
ATOM      1  C   UNL     1       0.157   9.662  19.175  0.00  0.00    +0.000 A 
ATOM      2  C   UNL     1       0.520   8.827  20.235  0.00  0.00    +0.000 A 
ATOM      3  C   UNL     1       1.625   7.987  20.110  0.00  0.00    +0.000 A 
ATOM      4  C   UNL     1       2.377   7.980  18.934  0.00  0.00    +0.000 A 
ATOM      5  C   UNL     1       2.024   8.822  17.881  0.00  0.00    +0.000 A 
ATOM      6  C   UNL     1       0.907   9.652  17.993  0.00  0.00    +0.000 A 
ENDROOT
BRANCH   1  18
ATOM      7  C   UNL     1       0.399  11.777  21.116  0.00  0.00    +0.000 C 
ATOM      8  C   UNL     1      -0.860  11.592  20.296  0.00  0.00    +0.000 A 
ATOM      9  N   UNL     1      -1.834  12.426  20.509  0.00  0.00    +0.000 NA
ATOM     10  C   UNL     1      -3.004  12.297  19.754  0.00  0.00    +0.000 A 
ATOM     11  C   UNL     1      -4.074  13.154  20.015  0.00  0.00    +0.000 A 
ATOM     12  C   UNL     1      -5.280  13.022  19.318  0.00  0.00    +0.000 A 
ATOM     13  C   UNL     1      -5.422  12.034  18.345  0.00  0.00    +0.000 A 
ATOM     14  C   UNL     1      -4.351  11.190  18.056  0.00  0.00    +0.000 A 
ATOM     15  C   UNL     1      -3.149  11.332  18.759  0.00  0.00    +0.000 A 
ATOM     16  C   UNL     1      -2.010  10.444  18.491  0.00  0.00    +0.000 A 
ATOM     17  O   UNL     1      -2.107   9.627  17.579  0.00  0.00    +0.000 OA
ATOM     18  N   UNL     1      -0.906  10.593  19.339  0.00  0.00    +0.000 N 
ENDBRANCH   1  18
BRANCH   4  19
ATOM     19  O   UNL     1       3.468   7.163  18.955  0.00  0.00    +0.000 OA
BRANCH  19  20
ATOM     20  C   UNL     1       3.705   6.325  17.809  0.00  0.00    +0.000 C 
ATOM     21  C   UNL     1       3.098   4.974  18.197  0.00  0.00    +0.000 C 
ATOM     22  C   UNL     1       3.246   3.859  17.179  0.00  0.00    +0.000 C 
ATOM     23  C   UNL     1       4.684   3.570  16.751  0.00  0.00    +0.000 C 
ATOM     24  N   UNL     1       5.081   4.507  15.695  0.00  0.00    +0.000 NA
ATOM     25  C   UNL     1       5.633   5.779  16.191  0.00  0.00    +0.000 C 
ATOM     26  C   UNL     1       5.216   6.269  17.582  0.00  0.00    +0.000 C 
BRANCH  24  27
ATOM     27  C   UNL     1       6.058   3.865  14.792  0.00  0.00    +0.000 C 
ATOM     28  C   UNL     1       5.451   3.698  13.370  0.00  0.00    +0.000 C 
ATOM     29  C   UNL     1       6.808   4.175  12.820  0.00  0.00    +0.000 C 
ATOM     30  C   UNL     1       6.991   4.931  14.155  0.00  0.00    +0.000 C 
ENDBRANCH  24  27
ENDBRANCH  19  20
ENDBRANCH   4  19
TORSDOF 4
ENDMDL
MODEL 6
REMARK VINA RESULT:      -7.8      6.735      8.040
REMARK  Name = 
REMARK  5 active torsions:
REMARK  status: ('A' for Active; 'I' for Inactive)
REMARK    1  A    between atoms: C_1  and  C_2
REMARK    2  A    between atoms: N_12  and  C_13
REMARK    3  A    between atoms: C_16  and  O_17
REMARK    4  A    between atoms: O_17  and  C_18
REMARK    5  A    between atoms: N_22  and  C_23
REMARK                            x       y       z     vdW  Elec       q    Type
REMARK                         _______ _______ _______ _____ _____    ______ ____
ROOT
ATOM      1  C   UNL     1       9.283  11.857  18.914  0.00  0.00    +0.000 A 
ATOM      2  C   UNL     1       9.674  10.610  19.409  0.00  0.00    +0.000 A 
ATOM      3  C   UNL     1       9.158   9.445  18.843  0.00  0.00    +0.000 A 
ATOM      4  C   UNL     1       8.258   9.517  17.779  0.00  0.00    +0.000 A 
ATOM      5  C   UNL     1       7.877  10.759  17.275  0.00  0.00    +0.000 A 
ATOM      6  C   UNL     1       8.377  11.930  17.850  0.00  0.00    +0.000 A 
ENDROOT
BRANCH   1  18
ATOM      7  C   UNL     1      11.378  13.145  17.413  0.00  0.00    +0.000 C 
ATOM      8  C   UNL     1      10.934  13.665  18.764  0.00  0.00    +0.000 A 
ATOM      9  N   UNL     1      11.545  14.715  19.224  0.00  0.00    +0.000 NA
ATOM     10  C   UNL     1      11.146  15.234  20.460  0.00  0.00    +0.000 A 
ATOM     11  C   UNL     1      11.831  16.330  20.985  0.00  0.00    +0.000 A 
ATOM     12  C   UNL     1      11.497  16.845  22.243  0.00  0.00    +0.000 A 
ATOM     13  C   UNL     1      10.465  16.271  22.982  0.00  0.00    +0.000 A 
ATOM     14  C   UNL     1       9.753  15.195  22.456  0.00  0.00    +0.000 A 
ATOM     15  C   UNL     1      10.096  14.689  21.197  0.00  0.00    +0.000 A 
ATOM     16  C   UNL     1       9.378  13.541  20.624  0.00  0.00    +0.000 A 
ATOM     17  O   UNL     1       8.417  13.087  21.239  0.00  0.00    +0.000 OA
ATOM     18  N   UNL     1       9.887  13.041  19.420  0.00  0.00    +0.000 N 
ENDBRANCH   1  18
BRANCH   4  19
ATOM     19  O   UNL     1       7.872   8.311  17.272  0.00  0.00    +0.000 OA
BRANCH  19  20
ATOM     20  C   UNL     1       6.959   7.514  18.049  0.00  0.00    +0.000 C 
ATOM     21  C   UNL     1       7.830   6.390  18.615  0.00  0.00    +0.000 C 
ATOM     22  C   UNL     1       7.112   5.347  19.452  0.00  0.00    +0.000 C 
ATOM     23  C   UNL     1       5.937   4.664  18.753  0.00  0.00    +0.000 C 
ATOM     24  N   UNL     1       4.738   5.500  18.872  0.00  0.00    +0.000 NA
ATOM     25  C   UNL     1       4.599   6.512  17.811  0.00  0.00    +0.000 C 
ATOM     26  C   UNL     1       5.863   7.017  17.106  0.00  0.00    +0.000 C 
BRANCH  24  27
ATOM     27  C   UNL     1       3.532   4.650  18.904  0.00  0.00    +0.000 C 
ATOM     28  C   UNL     1       2.454   5.203  17.927  0.00  0.00    +0.000 C 
ATOM     29  C   UNL     1       2.214   3.746  17.490  0.00  0.00    +0.000 C 
ATOM     30  C   UNL     1       3.675   3.466  17.907  0.00  0.00    +0.000 C 
ENDBRANCH  24  27
ENDBRANCH  19  20
ENDBRANCH   4  19
TORSDOF 4
ENDMDL
MODEL 7
REMARK VINA RESULT:      -7.7      1.398      2.013
REMARK  Name = 
REMARK  5 active torsions:
REMARK  status: ('A' for Active; 'I' for Inactive)
REMARK    1  A    between atoms: C_1  and  C_2
REMARK    2  A    between atoms: N_12  and  C_13
REMARK    3  A    between atoms: C_16  and  O_17
REMARK    4  A    between atoms: O_17  and  C_18
REMARK    5  A    between atoms: N_22  and  C_23
REMARK                            x       y       z     vdW  Elec       q    Type
REMARK                         _______ _______ _______ _____ _____    ______ ____
ROOT
ATOM      1  C   UNL     1       0.746  10.851  19.529  0.00  0.00    +0.000 A 
ATOM      2  C   UNL     1       0.826  10.195  20.760  0.00  0.00    +0.000 A 
ATOM      3  C   UNL     1       1.289   8.882  20.818  0.00  0.00    +0.000 A 
ATOM      4  C   UNL     1       1.682   8.220  19.654  0.00  0.00    +0.000 A 
ATOM      5  C   UNL     1       1.616   8.878  18.427  0.00  0.00    +0.000 A 
ATOM      6  C   UNL     1       1.135  10.188  18.361  0.00  0.00    +0.000 A 
ENDROOT
BRANCH   1  18
ATOM      7  C   UNL     1       2.517  12.772  18.314  0.00  0.00    +0.000 C 
ATOM      8  C   UNL     1       1.212  13.191  18.958  0.00  0.00    +0.000 A 
ATOM      9  N   UNL     1       0.926  14.459  18.947  0.00  0.00    +0.000 NA
ATOM     10  C   UNL     1      -0.281  14.878  19.515  0.00  0.00    +0.000 A 
ATOM     11  C   UNL     1      -0.571  16.242  19.554  0.00  0.00    +0.000 A 
ATOM     12  C   UNL     1      -1.743  16.705  20.162  0.00  0.00    +0.000 A 
ATOM     13  C   UNL     1      -2.642  15.803  20.727  0.00  0.00    +0.000 A 
ATOM     14  C   UNL     1      -2.378  14.436  20.669  0.00  0.00    +0.000 A 
ATOM     15  C   UNL     1      -1.202  13.985  20.059  0.00  0.00    +0.000 A 
ATOM     16  C   UNL     1      -0.886  12.551  20.000  0.00  0.00    +0.000 A 
ATOM     17  O   UNL     1      -1.715  11.751  20.426  0.00  0.00    +0.000 OA
ATOM     18  N   UNL     1       0.372  12.223  19.481  0.00  0.00    +0.000 N 
ENDBRANCH   1  18
BRANCH   4  19
ATOM     19  O   UNL     1       2.175   6.964  19.846  0.00  0.00    +0.000 OA
BRANCH  19  20
ATOM     20  C   UNL     1       2.596   6.220  18.687  0.00  0.00    +0.000 C 
ATOM     21  C   UNL     1       1.879   4.875  18.822  0.00  0.00    +0.000 C 
ATOM     22  C   UNL     1       2.179   3.848  17.745  0.00  0.00    +0.000 C 
ATOM     23  C   UNL     1       3.661   3.523  17.566  0.00  0.00    +0.000 C 
ATOM     24  N   UNL     1       4.285   4.528  16.700  0.00  0.00    +0.000 NA
ATOM     25  C   UNL     1       4.777   5.719  17.412  0.00  0.00    +0.000 C 
ATOM     26  C   UNL     1       4.120   6.104  18.743  0.00  0.00    +0.000 C 
BRANCH  24  27
ATOM     27  C   UNL     1       5.392   3.918  15.937  0.00  0.00    +0.000 C 
ATOM     28  C   UNL     1       5.558   4.628  14.563  0.00  0.00    +0.000 C 
ATOM     29  C   UNL     1       7.077   4.589  14.813  0.00  0.00    +0.000 C 
ATOM     30  C   UNL     1       6.745   4.578  16.322  0.00  0.00    +0.000 C 
ENDBRANCH  24  27
ENDBRANCH  19  20
ENDBRANCH   4  19
TORSDOF 4
ENDMDL
MODEL 8
REMARK VINA RESULT:      -7.7      2.397      3.486
REMARK  Name = 
REMARK  5 active torsions:
REMARK  status: ('A' for Active; 'I' for Inactive)
REMARK    1  A    between atoms: C_1  and  C_2
REMARK    2  A    between atoms: N_12  and  C_13
REMARK    3  A    between atoms: C_16  and  O_17
REMARK    4  A    between atoms: O_17  and  C_18
REMARK    5  A    between atoms: N_22  and  C_23
REMARK                            x       y       z     vdW  Elec       q    Type
REMARK                         _______ _______ _______ _____ _____    ______ ____
ROOT
ATOM      1  C   UNL     1      -0.351   9.928  19.819  0.00  0.00    +0.000 A 
ATOM      2  C   UNL     1       0.611   9.821  18.812  0.00  0.00    +0.000 A 
ATOM      3  C   UNL     1       1.650   8.900  18.939  0.00  0.00    +0.000 A 
ATOM      4  C   UNL     1       1.729   8.077  20.064  0.00  0.00    +0.000 A 
ATOM      5  C   UNL     1       0.763   8.174  21.063  0.00  0.00    +0.000 A 
ATOM      6  C   UNL     1      -0.270   9.107  20.949  0.00  0.00    +0.000 A 
ENDROOT
BRANCH   1  18
ATOM      7  C   UNL     1      -0.699  12.186  21.576  0.00  0.00    +0.000 C 
ATOM      8  C   UNL     1      -1.708  11.857  20.495  0.00  0.00    +0.000 A 
ATOM      9  N   UNL     1      -2.744  12.635  20.396  0.00  0.00    +0.000 NA
ATOM     10  C   UNL     1      -3.684  12.373  19.394  0.00  0.00    +0.000 A 
ATOM     11  C   UNL     1      -4.827  13.170  19.315  0.00  0.00    +0.000 A 
ATOM     12  C   UNL     1      -5.816  12.907  18.362  0.00  0.00    +0.000 A 
ATOM     13  C   UNL     1      -5.665  11.847  17.471  0.00  0.00    +0.000 A 
ATOM     14  C   UNL     1      -4.516  11.061  17.521  0.00  0.00    +0.000 A 
ATOM     15  C   UNL     1      -3.532  11.334  18.479  0.00  0.00    +0.000 A 
ATOM     16  C   UNL     1      -2.319  10.510  18.569  0.00  0.00    +0.000 A 
ATOM     17  O   UNL     1      -2.148   9.626  17.733  0.00  0.00    +0.000 OA
ATOM     18  N   UNL     1      -1.467  10.793  19.643  0.00  0.00    +0.000 N 
ENDBRANCH   1  18
BRANCH   4  19
ATOM     19  O   UNL     1       2.752   7.176  20.045  0.00  0.00    +0.000 OA
BRANCH  19  20
ATOM     20  C   UNL     1       3.014   6.479  18.812  0.00  0.00    +0.000 C 
ATOM     21  C   UNL     1       2.105   5.249  18.875  0.00  0.00    +0.000 C 
ATOM     22  C   UNL     1       2.207   4.284  17.708  0.00  0.00    +0.000 C 
ATOM     23  C   UNL     1       3.615   3.759  17.432  0.00  0.00    +0.000 C 
ATOM     24  N   UNL     1       4.353   4.730  16.618  0.00  0.00    +0.000 NA
ATOM     25  C   UNL     1       5.045   5.770  17.398  0.00  0.00    +0.000 C 
ATOM     26  C   UNL     1       4.503   6.134  18.784  0.00  0.00    +0.000 C 
BRANCH  24  27
ATOM     27  C   UNL     1       5.326   4.029  15.757  0.00  0.00    +0.000 C 
ATOM     28  C   UNL     1       5.549   4.821  14.437  0.00  0.00    +0.000 C 
ATOM     29  C   UNL     1       7.052   4.535  14.610  0.00  0.00    +0.000 C 
ATOM     30  C   UNL     1       6.777   4.445  16.127  0.00  0.00    +0.000 C 
ENDBRANCH  24  27
ENDBRANCH  19  20
ENDBRANCH   4  19
TORSDOF 4
ENDMDL
MODEL 9
REMARK VINA RESULT:      -7.5      6.614      7.917
REMARK  Name = 
REMARK  5 active torsions:
REMARK  status: ('A' for Active; 'I' for Inactive)
REMARK    1  A    between atoms: C_1  and  C_2
REMARK    2  A    between atoms: N_12  and  C_13
REMARK    3  A    between atoms: C_16  and  O_17
REMARK    4  A    between atoms: O_17  and  C_18
REMARK    5  A    between atoms: N_22  and  C_23
REMARK                            x       y       z     vdW  Elec       q    Type
REMARK                         _______ _______ _______ _____ _____    ______ ____
ROOT
ATOM      1  C   UNL     1       9.383  11.884  19.156  0.00  0.00    +0.000 A 
ATOM      2  C   UNL     1       8.564  12.001  18.030  0.00  0.00    +0.000 A 
ATOM      3  C   UNL     1       8.076  10.855  17.405  0.00  0.00    +0.000 A 
ATOM      4  C   UNL     1       8.393   9.590  17.903  0.00  0.00    +0.000 A 
ATOM      5  C   UNL     1       9.198   9.473  19.034  0.00  0.00    +0.000 A 
ATOM      6  C   UNL     1       9.705  10.617  19.654  0.00  0.00    +0.000 A 
ENDROOT
BRANCH   1  18
ATOM      7  C   UNL     1      11.498  13.519  18.081  0.00  0.00    +0.000 C 
ATOM      8  C   UNL     1      10.844  13.839  19.408  0.00  0.00    +0.000 A 
ATOM      9  N   UNL     1      11.282  14.881  20.048  0.00  0.00    +0.000 NA
ATOM     10  C   UNL     1      10.686  15.218  21.268  0.00  0.00    +0.000 A 
ATOM     11  C   UNL     1      11.186  16.304  21.987  0.00  0.00    +0.000 A 
ATOM     12  C   UNL     1      10.652  16.640  23.235  0.00  0.00    +0.000 A 
ATOM     13  C   UNL     1       9.603  15.896  23.771  0.00  0.00    +0.000 A 
ATOM     14  C   UNL     1       9.076  14.826  23.050  0.00  0.00    +0.000 A 
ATOM     15  C   UNL     1       9.618  14.500  21.802  0.00  0.00    +0.000 A 
ATOM     16  C   UNL     1       9.097  13.365  21.026  0.00  0.00    +0.000 A 
ATOM     17  O   UNL     1       8.121  12.759  21.461  0.00  0.00    +0.000 OA
ATOM     18  N   UNL     1       9.796  13.053  19.855  0.00  0.00    +0.000 N 
ENDBRANCH   1  18
BRANCH   4  19
ATOM     19  O   UNL     1       7.806   8.551  17.244  0.00  0.00    +0.000 OA
BRANCH  19  20
ATOM     20  C   UNL     1       6.939   7.681  17.994  0.00  0.00    +0.000 C 
ATOM     21  C   UNL     1       7.863   6.570  18.499  0.00  0.00    +0.000 C 
ATOM     22  C   UNL     1       7.201   5.461  19.295  0.00  0.00    +0.000 C 
ATOM     23  C   UNL     1       6.047   4.761  18.579  0.00  0.00    +0.000 C 
ATOM     24  N   UNL     1       4.815   5.539  18.750  0.00  0.00    +0.000 NA
ATOM     25  C   UNL     1       4.620   6.590  17.738  0.00  0.00    +0.000 C 
ATOM     26  C   UNL     1       5.851   7.181  17.042  0.00  0.00    +0.000 C 
BRANCH  24  27
ATOM     27  C   UNL     1       3.647   4.637  18.756  0.00  0.00    +0.000 C 
ATOM     28  C   UNL     1       2.366   5.409  18.329  0.00  0.00    +0.000 C 
ATOM     29  C   UNL     1       2.010   4.184  17.465  0.00  0.00    +0.000 C 
ATOM     30  C   UNL     1       3.526   3.895  17.396  0.00  0.00    +0.000 C 
ENDBRANCH  24  27
ENDBRANCH  19  20
ENDBRANCH   4  19
TORSDOF 4
ENDMDL
