MODEL 1
REMARK VINA RESULT:      -6.0      0.000      0.000
REMARK  Name = 
REMARK  8 active torsions:
REMARK  status: ('A' for Active; 'I' for Inactive)
REMARK    1  A    between atoms: C_2  and  C_3
REMARK    2  A    between atoms: C_3  and  C_4
REMARK    3  A    between atoms: C_4  and  N_5
REMARK    4  A    between atoms: C_6  and  O_8
REMARK    5  A    between atoms: O_8  and  C_9
REMARK    6  A    between atoms: C_9  and  C_10
REMARK    7  A    between atoms: C_10  and  C_11
REMARK    8  A    between atoms: C_11  and  C_12
REMARK                            x       y       z     vdW  Elec       q    Type
REMARK                         _______ _______ _______ _____ _____    ______ ____
ROOT
ATOM      1  O   UNL     1       6.824   4.211  15.962  0.00  0.00    +0.000 OA
ENDROOT
BRANCH   1   3
ATOM      2  N   UNL     1       6.195   3.760  13.893  0.00  0.00    +0.000 N 
ATOM      3  C   UNL     1       6.954   4.592  14.668  0.00  0.00    +0.000 C 
ATOM      4  O   UNL     1       7.744   5.424  14.251  0.00  0.00    +0.000 OA
ATOM      5  H   UNL     1       5.783   3.002  14.419  0.00  0.00    +0.000 HD
BRANCH   2   6
ATOM      6  C   UNL     1       6.585   3.541  12.516  0.00  0.00    +0.000 C 
BRANCH   6   7
ATOM      7  C   UNL     1       5.572   2.692  11.746  0.00  0.00    +0.000 C 
BRANCH   7   9
ATOM      8  C   UNL     1       3.409   3.183  10.554  0.00  0.00    +0.000 C 
ATOM      9  C   UNL     1       4.271   3.421  11.552  0.00  0.00    +0.000 C 
ENDBRANCH   7   9
ENDBRANCH   6   7
ENDBRANCH   2   6
ENDBRANCH   1   3
BRANCH   1  10
ATOM     10  C   UNL     1       5.465   4.138  16.407  0.00  0.00    +0.000 C 
BRANCH  10  11
ATOM     11  C   UNL     1       4.942   5.462  16.941  0.00  0.00    +0.000 C 
BRANCH  11  12
ATOM     12  C   UNL     1       4.440   5.252  18.370  0.00  0.00    +0.000 C 
BRANCH  12  13
ATOM     13  C   UNL     1       3.278   4.334  18.455  0.00  0.00    +0.000 A 
ATOM     14  C   UNL     1       2.015   4.481  17.921  0.00  0.00    +0.000 A 
ATOM     15  N   UNL     1       1.327   3.372  18.321  0.00  0.00    +0.000 N 
ATOM     16  C   UNL     1       2.171   2.613  19.079  0.00  0.00    +0.000 A 
ATOM     17  N   UNL     1       3.357   3.167  19.179  0.00  0.00    +0.000 NA
ATOM     18  H   UNL     1       0.363   3.153  18.110  0.00  0.00    +0.000 HD
ENDBRANCH  12  13
ENDBRANCH  11  12
ENDBRANCH  10  11
ENDBRANCH   1  10
TORSDOF 8
ENDMDL
MODEL 2
REMARK VINA RESULT:      -6.0      0.997      1.160
REMARK  Name = 
REMARK  8 active torsions:
REMARK  status: ('A' for Active; 'I' for Inactive)
REMARK    1  A    between atoms: C_2  and  C_3
REMARK    2  A    between atoms: C_3  and  C_4
REMARK    3  A    between atoms: C_4  and  N_5
REMARK    4  A    between atoms: C_6  and  O_8
REMARK    5  A    between atoms: O_8  and  C_9
REMARK    6  A    between atoms: C_9  and  C_10
REMARK    7  A    between atoms: C_10  and  C_11
REMARK    8  A    between atoms: C_11  and  C_12
REMARK                            x       y       z     vdW  Elec       q    Type
REMARK                         _______ _______ _______ _____ _____    ______ ____
ROOT
ATOM      1  O   UNL     1       7.275   4.417  15.695  0.00  0.00    +0.000 OA
ENDROOT
BRANCH   1   3
ATOM      2  N   UNL     1       6.396   3.804  13.762  0.00  0.00    +0.000 N 
ATOM      3  C   UNL     1       7.180   4.737  14.381  0.00  0.00    +0.000 C 
ATOM      4  O   UNL     1       7.822   5.610  13.818  0.00  0.00    +0.000 OA
ATOM      5  H   UNL     1       6.136   3.043  14.374  0.00  0.00    +0.000 HD
BRANCH   2   6
ATOM      6  C   UNL     1       6.601   3.545  12.352  0.00  0.00    +0.000 C 
BRANCH   6   7
ATOM      7  C   UNL     1       5.505   2.663  11.751  0.00  0.00    +0.000 C 
BRANCH   7   9
ATOM      8  C   UNL     1       3.364   3.165  10.526  0.00  0.00    +0.000 C 
ATOM      9  C   UNL     1       4.243   3.441  11.499  0.00  0.00    +0.000 C 
ENDBRANCH   7   9
ENDBRANCH   6   7
ENDBRANCH   2   6
ENDBRANCH   1   3
BRANCH   1  10
ATOM     10  C   UNL     1       6.641   5.362  16.564  0.00  0.00    +0.000 C 
BRANCH  10  11
ATOM     11  C   UNL     1       5.764   4.706  17.617  0.00  0.00    +0.000 C 
BRANCH  11  12
ATOM     12  C   UNL     1       4.590   4.016  16.922  0.00  0.00    +0.000 C 
BRANCH  12  13
ATOM     13  C   UNL     1       3.338   4.040  17.719  0.00  0.00    +0.000 A 
ATOM     14  C   UNL     1       3.111   4.596  18.959  0.00  0.00    +0.000 A 
ATOM     15  N   UNL     1       1.807   4.310  19.245  0.00  0.00    +0.000 N 
ATOM     16  C   UNL     1       1.302   3.593  18.198  0.00  0.00    +0.000 A 
ATOM     17  N   UNL     1       2.203   3.415  17.260  0.00  0.00    +0.000 NA
ATOM     18  H   UNL     1       1.305   4.565  20.084  0.00  0.00    +0.000 HD
ENDBRANCH  12  13
ENDBRANCH  11  12
ENDBRANCH  10  11
ENDBRANCH   1  10
TORSDOF 8
ENDMDL
MODEL 3
REMARK VINA RESULT:      -5.9      1.839      2.531
REMARK  Name = 
REMARK  8 active torsions:
REMARK  status: ('A' for Active; 'I' for Inactive)
REMARK    1  A    between atoms: C_2  and  C_3
REMARK    2  A    between atoms: C_3  and  C_4
REMARK    3  A    between atoms: C_4  and  N_5
REMARK    4  A    between atoms: C_6  and  O_8
REMARK    5  A    between atoms: O_8  and  C_9
REMARK    6  A    between atoms: C_9  and  C_10
REMARK    7  A    between atoms: C_10  and  C_11
REMARK    8  A    between atoms: C_11  and  C_12
REMARK                            x       y       z     vdW  Elec       q    Type
REMARK                         _______ _______ _______ _____ _____    ______ ____
ROOT
ATOM      1  O   UNL     1       6.185   4.179  18.618  0.00  0.00    +0.000 OA
ENDROOT
BRANCH   1   3
ATOM      2  N   UNL     1       6.371   4.829  16.514  0.00  0.00    +0.000 N 
ATOM      3  C   UNL     1       7.069   4.437  17.622  0.00  0.00    +0.000 C 
ATOM      4  O   UNL     1       8.265   4.196  17.659  0.00  0.00    +0.000 OA
ATOM      5  H   UNL     1       5.370   4.757  16.636  0.00  0.00    +0.000 HD
BRANCH   2   6
ATOM      6  C   UNL     1       6.948   4.594  15.207  0.00  0.00    +0.000 C 
BRANCH   6   7
ATOM      7  C   UNL     1       5.894   4.544  14.100  0.00  0.00    +0.000 C 
BRANCH   7   9
ATOM      8  C   UNL     1       5.486   3.255  11.976  0.00  0.00    +0.000 C 
ATOM      9  C   UNL     1       6.230   3.511  13.061  0.00  0.00    +0.000 C 
ENDBRANCH   7   9
ENDBRANCH   6   7
ENDBRANCH   2   6
ENDBRANCH   1   3
BRANCH   1  10
ATOM     10  C   UNL     1       5.658   5.356  19.238  0.00  0.00    +0.000 C 
BRANCH  10  11
ATOM     11  C   UNL     1       4.211   5.200  19.676  0.00  0.00    +0.000 C 
BRANCH  11  12
ATOM     12  C   UNL     1       3.344   4.961  18.440  0.00  0.00    +0.000 C 
BRANCH  12  13
ATOM     13  C   UNL     1       2.564   3.700  18.503  0.00  0.00    +0.000 A 
ATOM     14  C   UNL     1       2.946   2.425  18.143  0.00  0.00    +0.000 A 
ATOM     15  N   UNL     1       1.849   1.646  18.371  0.00  0.00    +0.000 N 
ATOM     16  C   UNL     1       0.855   2.457  18.839  0.00  0.00    +0.000 A 
ATOM     17  N   UNL     1       1.257   3.704  18.930  0.00  0.00    +0.000 NA
ATOM     18  H   UNL     1       1.773   0.651  18.211  0.00  0.00    +0.000 HD
ENDBRANCH  12  13
ENDBRANCH  11  12
ENDBRANCH  10  11
ENDBRANCH   1  10
TORSDOF 8
ENDMDL
MODEL 4
REMARK VINA RESULT:      -5.8      1.105      1.348
REMARK  Name = 
REMARK  8 active torsions:
REMARK  status: ('A' for Active; 'I' for Inactive)
REMARK    1  A    between atoms: C_2  and  C_3
REMARK    2  A    between atoms: C_3  and  C_4
REMARK    3  A    between atoms: C_4  and  N_5
REMARK    4  A    between atoms: C_6  and  O_8
REMARK    5  A    between atoms: O_8  and  C_9
REMARK    6  A    between atoms: C_9  and  C_10
REMARK    7  A    between atoms: C_10  and  C_11
REMARK    8  A    between atoms: C_11  and  C_12
REMARK                            x       y       z     vdW  Elec       q    Type
REMARK                         _______ _______ _______ _____ _____    ______ ____
ROOT
ATOM      1  O   UNL     1       5.154   4.899  16.103  0.00  0.00    +0.000 OA
ENDROOT
BRANCH   1   3
ATOM      2  N   UNL     1       5.558   4.318  14.010  0.00  0.00    +0.000 N 
ATOM      3  C   UNL     1       6.070   4.955  15.105  0.00  0.00    +0.000 C 
ATOM      4  O   UNL     1       7.218   5.353  15.221  0.00  0.00    +0.000 OA
ATOM      5  H   UNL     1       4.670   3.872  14.195  0.00  0.00    +0.000 HD
BRANCH   2   6
ATOM      6  C   UNL     1       6.472   3.716  13.062  0.00  0.00    +0.000 C 
BRANCH   6   7
ATOM      7  C   UNL     1       5.749   2.946  11.956  0.00  0.00    +0.000 C 
BRANCH   7   9
ATOM      8  C   UNL     1       3.619   3.261  10.650  0.00  0.00    +0.000 C 
ATOM      9  C   UNL     1       4.342   3.441  11.764  0.00  0.00    +0.000 C 
ENDBRANCH   7   9
ENDBRANCH   6   7
ENDBRANCH   2   6
ENDBRANCH   1   3
BRANCH   1  10
ATOM     10  C   UNL     1       5.710   4.544  17.374  0.00  0.00    +0.000 C 
BRANCH  10  11
ATOM     11  C   UNL     1       4.652   4.295  18.437  0.00  0.00    +0.000 C 
BRANCH  11  12
ATOM     12  C   UNL     1       3.275   4.586  17.839  0.00  0.00    +0.000 C 
BRANCH  12  13
ATOM     13  C   UNL     1       2.169   3.892  18.545  0.00  0.00    +0.000 A 
ATOM     14  C   UNL     1       1.601   4.185  19.766  0.00  0.00    +0.000 A 
ATOM     15  N   UNL     1       0.653   3.223  19.958  0.00  0.00    +0.000 N 
ATOM     16  C   UNL     1       0.685   2.388  18.879  0.00  0.00    +0.000 A 
ATOM     17  N   UNL     1       1.591   2.767  18.006  0.00  0.00    +0.000 NA
ATOM     18  H   UNL     1       0.043   3.130  20.760  0.00  0.00    +0.000 HD
ENDBRANCH  12  13
ENDBRANCH  11  12
ENDBRANCH  10  11
ENDBRANCH   1  10
TORSDOF 8
ENDMDL
MODEL 5
REMARK VINA RESULT:      -5.8      3.717      6.947
REMARK  Name = 
REMARK  8 active torsions:
REMARK  status: ('A' for Active; 'I' for Inactive)
REMARK    1  A    between atoms: C_2  and  C_3
REMARK    2  A    between atoms: C_3  and  C_4
REMARK    3  A    between atoms: C_4  and  N_5
REMARK    4  A    between atoms: C_6  and  O_8
REMARK    5  A    between atoms: O_8  and  C_9
REMARK    6  A    between atoms: C_9  and  C_10
REMARK    7  A    between atoms: C_10  and  C_11
REMARK    8  A    between atoms: C_11  and  C_12
REMARK                            x       y       z     vdW  Elec       q    Type
REMARK                         _______ _______ _______ _____ _____    ______ ____
ROOT
ATOM      1  O   UNL     1       5.262   3.437  19.080  0.00  0.00    +0.000 OA
ENDROOT
BRANCH   1   3
ATOM      2  N   UNL     1       3.215   2.766  19.570  0.00  0.00    +0.000 N 
ATOM      3  C   UNL     1       4.542   2.551  19.812  0.00  0.00    +0.000 C 
ATOM      4  O   UNL     1       4.996   1.808  20.668  0.00  0.00    +0.000 OA
ATOM      5  H   UNL     1       3.049   3.574  18.986  0.00  0.00    +0.000 HD
BRANCH   2   6
ATOM      6  C   UNL     1       2.253   2.419  20.595  0.00  0.00    +0.000 C 
BRANCH   6   7
ATOM      7  C   UNL     1       1.766   3.638  21.381  0.00  0.00    +0.000 C 
BRANCH   7   9
ATOM      8  C   UNL     1       1.796   6.019  20.562  0.00  0.00    +0.000 C 
ATOM      9  C   UNL     1       1.352   4.758  20.466  0.00  0.00    +0.000 C 
ENDBRANCH   7   9
ENDBRANCH   6   7
ENDBRANCH   2   6
ENDBRANCH   1   3
BRANCH   1  10
ATOM     10  C   UNL     1       4.462   4.432  18.433  0.00  0.00    +0.000 C 
BRANCH  10  11
ATOM     11  C   UNL     1       4.922   4.735  17.016  0.00  0.00    +0.000 C 
BRANCH  11  12
ATOM     12  C   UNL     1       6.446   4.626  16.958  0.00  0.00    +0.000 C 
BRANCH  12  13
ATOM     13  C   UNL     1       7.141   5.810  17.522  0.00  0.00    +0.000 A 
ATOM     14  C   UNL     1       7.819   5.930  18.716  0.00  0.00    +0.000 A 
ATOM     15  N   UNL     1       8.237   7.228  18.760  0.00  0.00    +0.000 N 
ATOM     16  C   UNL     1       7.797   7.843  17.624  0.00  0.00    +0.000 A 
ATOM     17  N   UNL     1       7.132   7.012  16.855  0.00  0.00    +0.000 NA
ATOM     18  H   UNL     1       8.764   7.666  19.504  0.00  0.00    +0.000 HD
ENDBRANCH  12  13
ENDBRANCH  11  12
ENDBRANCH  10  11
ENDBRANCH   1  10
TORSDOF 8
ENDMDL
MODEL 6
REMARK VINA RESULT:      -5.7      1.499      2.102
REMARK  Name = 
REMARK  8 active torsions:
REMARK  status: ('A' for Active; 'I' for Inactive)
REMARK    1  A    between atoms: C_2  and  C_3
REMARK    2  A    between atoms: C_3  and  C_4
REMARK    3  A    between atoms: C_4  and  N_5
REMARK    4  A    between atoms: C_6  and  O_8
REMARK    5  A    between atoms: O_8  and  C_9
REMARK    6  A    between atoms: C_9  and  C_10
REMARK    7  A    between atoms: C_10  and  C_11
REMARK    8  A    between atoms: C_11  and  C_12
REMARK                            x       y       z     vdW  Elec       q    Type
REMARK                         _______ _______ _______ _____ _____    ______ ____
ROOT
ATOM      1  O   UNL     1       5.717   5.608  17.449  0.00  0.00    +0.000 OA
ENDROOT
BRANCH   1   3
ATOM      2  N   UNL     1       6.329   5.578  15.325  0.00  0.00    +0.000 N 
ATOM      3  C   UNL     1       6.712   5.255  16.597  0.00  0.00    +0.000 C 
ATOM      4  O   UNL     1       7.703   4.608  16.897  0.00  0.00    +0.000 OA
ATOM      5  H   UNL     1       5.377   5.915  15.276  0.00  0.00    +0.000 HD
BRANCH   2   6
ATOM      6  C   UNL     1       6.872   4.818  14.219  0.00  0.00    +0.000 C 
BRANCH   6   7
ATOM      7  C   UNL     1       5.999   3.619  13.844  0.00  0.00    +0.000 C 
BRANCH   7   9
ATOM      8  C   UNL     1       4.770   3.236  11.680  0.00  0.00    +0.000 C 
ATOM      9  C   UNL     1       5.910   3.444  12.353  0.00  0.00    +0.000 C 
ENDBRANCH   7   9
ENDBRANCH   6   7
ENDBRANCH   2   6
ENDBRANCH   1   3
BRANCH   1  10
ATOM     10  C   UNL     1       5.935   5.175  18.796  0.00  0.00    +0.000 C 
BRANCH  10  11
ATOM     11  C   UNL     1       4.812   4.300  19.328  0.00  0.00    +0.000 C 
BRANCH  11  12
ATOM     12  C   UNL     1       3.762   4.123  18.230  0.00  0.00    +0.000 C 
BRANCH  12  13
ATOM     13  C   UNL     1       2.455   3.638  18.738  0.00  0.00    +0.000 A 
ATOM     14  C   UNL     1       1.856   3.877  19.957  0.00  0.00    +0.000 A 
ATOM     15  N   UNL     1       0.687   3.174  19.923  0.00  0.00    +0.000 N 
ATOM     16  C   UNL     1       0.623   2.535  18.718  0.00  0.00    +0.000 A 
ATOM     17  N   UNL     1       1.676   2.796  17.980  0.00  0.00    +0.000 NA
ATOM     18  H   UNL     1      -0.005   3.120  20.659  0.00  0.00    +0.000 HD
ENDBRANCH  12  13
ENDBRANCH  11  12
ENDBRANCH  10  11
ENDBRANCH   1  10
TORSDOF 8
ENDMDL
MODEL 7
REMARK VINA RESULT:      -5.7      2.853      6.483
REMARK  Name = 
REMARK  8 active torsions:
REMARK  status: ('A' for Active; 'I' for Inactive)
REMARK    1  A    between atoms: C_2  and  C_3
REMARK    2  A    between atoms: C_3  and  C_4
REMARK    3  A    between atoms: C_4  and  N_5
REMARK    4  A    between atoms: C_6  and  O_8
REMARK    5  A    between atoms: O_8  and  C_9
REMARK    6  A    between atoms: C_9  and  C_10
REMARK    7  A    between atoms: C_10  and  C_11
REMARK    8  A    between atoms: C_11  and  C_12
REMARK                            x       y       z     vdW  Elec       q    Type
REMARK                         _______ _______ _______ _____ _____    ______ ____
ROOT
ATOM      1  O   UNL     1       4.827   3.404  19.483  0.00  0.00    +0.000 OA
ENDROOT
BRANCH   1   3
ATOM      2  N   UNL     1       2.858   3.932  18.631  0.00  0.00    +0.000 N 
ATOM      3  C   UNL     1       3.889   3.037  18.575  0.00  0.00    +0.000 C 
ATOM      4  O   UNL     1       3.889   1.994  17.941  0.00  0.00    +0.000 OA
ATOM      5  H   UNL     1       2.964   4.606  19.377  0.00  0.00    +0.000 HD
BRANCH   2   6
ATOM      6  C   UNL     1       1.532   3.493  18.251  0.00  0.00    +0.000 C 
BRANCH   6   7
ATOM      7  C   UNL     1       0.677   3.096  19.456  0.00  0.00    +0.000 C 
BRANCH   7   9
ATOM      8  C   UNL     1       1.767   2.652  21.681  0.00  0.00    +0.000 C 
ATOM      9  C   UNL     1       1.320   3.507  20.751  0.00  0.00    +0.000 C 
ENDBRANCH   7   9
ENDBRANCH   6   7
ENDBRANCH   2   6
ENDBRANCH   1   3
BRANCH   1  10
ATOM     10  C   UNL     1       5.311   4.739  19.301  0.00  0.00    +0.000 C 
BRANCH  10  11
ATOM     11  C   UNL     1       6.568   4.805  18.448  0.00  0.00    +0.000 C 
BRANCH  11  12
ATOM     12  C   UNL     1       6.305   5.723  17.253  0.00  0.00    +0.000 C 
BRANCH  12  13
ATOM     13  C   UNL     1       6.432   5.035  15.945  0.00  0.00    +0.000 A 
ATOM     14  C   UNL     1       5.892   3.832  15.541  0.00  0.00    +0.000 A 
ATOM     15  N   UNL     1       6.341   3.650  14.265  0.00  0.00    +0.000 N 
ATOM     16  C   UNL     1       7.132   4.716  13.949  0.00  0.00    +0.000 A 
ATOM     17  N   UNL     1       7.206   5.571  14.943  0.00  0.00    +0.000 NA
ATOM     18  H   UNL     1       6.141   2.863  13.663  0.00  0.00    +0.000 HD
ENDBRANCH  12  13
ENDBRANCH  11  12
ENDBRANCH  10  11
ENDBRANCH   1  10
TORSDOF 8
ENDMDL
MODEL 8
REMARK VINA RESULT:      -5.7      1.500      1.839
REMARK  Name = 
REMARK  8 active torsions:
REMARK  status: ('A' for Active; 'I' for Inactive)
REMARK    1  A    between atoms: C_2  and  C_3
REMARK    2  A    between atoms: C_3  and  C_4
REMARK    3  A    between atoms: C_4  and  N_5
REMARK    4  A    between atoms: C_6  and  O_8
REMARK    5  A    between atoms: O_8  and  C_9
REMARK    6  A    between atoms: C_9  and  C_10
REMARK    7  A    between atoms: C_10  and  C_11
REMARK    8  A    between atoms: C_11  and  C_12
REMARK                            x       y       z     vdW  Elec       q    Type
REMARK                         _______ _______ _______ _____ _____    ______ ____
ROOT
ATOM      1  O   UNL     1       5.104   6.081  16.431  0.00  0.00    +0.000 OA
ENDROOT
BRANCH   1   3
ATOM      2  N   UNL     1       5.498   4.753  14.710  0.00  0.00    +0.000 N 
ATOM      3  C   UNL     1       6.068   5.624  15.595  0.00  0.00    +0.000 C 
ATOM      4  O   UNL     1       7.266   5.826  15.721  0.00  0.00    +0.000 OA
ATOM      5  H   UNL     1       4.526   4.566  14.915  0.00  0.00    +0.000 HD
BRANCH   2   6
ATOM      6  C   UNL     1       6.318   3.708  14.133  0.00  0.00    +0.000 C 
BRANCH   6   7
ATOM      7  C   UNL     1       6.175   3.620  12.613  0.00  0.00    +0.000 C 
BRANCH   7   9
ATOM      8  C   UNL     1       4.216   2.983  11.165  0.00  0.00    +0.000 C 
ATOM      9  C   UNL     1       4.733   3.677  12.188  0.00  0.00    +0.000 C 
ENDBRANCH   7   9
ENDBRANCH   6   7
ENDBRANCH   2   6
ENDBRANCH   1   3
BRANCH   1  10
ATOM     10  C   UNL     1       4.755   5.155  17.466  0.00  0.00    +0.000 C 
BRANCH  10  11
ATOM     11  C   UNL     1       3.255   5.046  17.685  0.00  0.00    +0.000 C 
BRANCH  11  12
ATOM     12  C   UNL     1       2.897   3.579  17.925  0.00  0.00    +0.000 C 
BRANCH  12  13
ATOM     13  C   UNL     1       2.276   3.334  19.250  0.00  0.00    +0.000 A 
ATOM     14  C   UNL     1       0.940   3.275  19.584  0.00  0.00    +0.000 A 
ATOM     15  N   UNL     1       0.918   3.057  20.931  0.00  0.00    +0.000 N 
ATOM     16  C   UNL     1       2.212   3.006  21.363  0.00  0.00    +0.000 A 
ATOM     17  N   UNL     1       3.056   3.169  20.370  0.00  0.00    +0.000 NA
ATOM     18  H   UNL     1       0.096   2.964  21.512  0.00  0.00    +0.000 HD
ENDBRANCH  12  13
ENDBRANCH  11  12
ENDBRANCH  10  11
ENDBRANCH   1  10
TORSDOF 8
ENDMDL
MODEL 9
REMARK VINA RESULT:      -5.7      3.590      6.302
REMARK  Name = 
REMARK  8 active torsions:
REMARK  status: ('A' for Active; 'I' for Inactive)
REMARK    1  A    between atoms: C_2  and  C_3
REMARK    2  A    between atoms: C_3  and  C_4
REMARK    3  A    between atoms: C_4  and  N_5
REMARK    4  A    between atoms: C_6  and  O_8
REMARK    5  A    between atoms: O_8  and  C_9
REMARK    6  A    between atoms: C_9  and  C_10
REMARK    7  A    between atoms: C_10  and  C_11
REMARK    8  A    between atoms: C_11  and  C_12
REMARK                            x       y       z     vdW  Elec       q    Type
REMARK                         _______ _______ _______ _____ _____    ______ ____
ROOT
ATOM      1  O   UNL     1       3.627   4.458  17.110  0.00  0.00    +0.000 OA
ENDROOT
BRANCH   1   3
ATOM      2  N   UNL     1       2.329   2.824  17.838  0.00  0.00    +0.000 N 
ATOM      3  C   UNL     1       3.558   3.409  17.966  0.00  0.00    +0.000 C 
ATOM      4  O   UNL     1       4.385   3.140  18.823  0.00  0.00    +0.000 OA
ATOM      5  H   UNL     1       1.715   3.335  17.219  0.00  0.00    +0.000 HD
BRANCH   2   6
ATOM      6  C   UNL     1       1.770   2.117  18.972  0.00  0.00    +0.000 C 
BRANCH   6   7
ATOM      7  C   UNL     1       0.772   2.967  19.760  0.00  0.00    +0.000 C 
BRANCH   7   9
ATOM      8  C   UNL     1       1.966   4.752  21.074  0.00  0.00    +0.000 C 
ATOM      9  C   UNL     1       1.394   3.543  21.002  0.00  0.00    +0.000 C 
ENDBRANCH   7   9
ENDBRANCH   6   7
ENDBRANCH   2   6
ENDBRANCH   1   3
BRANCH   1  10
ATOM     10  C   UNL     1       3.255   5.707  17.702  0.00  0.00    +0.000 C 
BRANCH  10  11
ATOM     11  C   UNL     1       4.194   6.844  17.332  0.00  0.00    +0.000 C 
BRANCH  11  12
ATOM     12  C   UNL     1       5.276   6.304  16.397  0.00  0.00    +0.000 C 
BRANCH  12  13
ATOM     13  C   UNL     1       6.397   5.646  17.112  0.00  0.00    +0.000 A 
ATOM     14  C   UNL     1       7.125   4.533  16.747  0.00  0.00    +0.000 A 
ATOM     15  N   UNL     1       8.009   4.335  17.768  0.00  0.00    +0.000 N 
ATOM     16  C   UNL     1       7.785   5.303  18.704  0.00  0.00    +0.000 A 
ATOM     17  N   UNL     1       6.817   6.111  18.336  0.00  0.00    +0.000 NA
ATOM     18  H   UNL     1       8.698   3.598  17.833  0.00  0.00    +0.000 HD
ENDBRANCH  12  13
ENDBRANCH  11  12
ENDBRANCH  10  11
ENDBRANCH   1  10
TORSDOF 8
ENDMDL
