MODEL 1
REMARK VINA RESULT:      -8.2      0.000      0.000
REMARK  Name = 
REMARK  8 active torsions:
REMARK  status: ('A' for Active; 'I' for Inactive)
REMARK    1  A    between atoms: C_1  and  C_2
REMARK    2  A    between atoms: C_5  and  N_6
REMARK    3  A    between atoms: C_7  and  C_9
REMARK    4  A    between atoms: C_9  and  O_10
REMARK    5  A    between atoms: O_10  and  C_11
REMARK    6  A    between atoms: C_11  and  C_13
REMARK    7  A    between atoms: C_19  and  S_20
REMARK    8  A    between atoms: S_20  and  N_23
REMARK                            x       y       z     vdW  Elec       q    Type
REMARK                         _______ _______ _______ _____ _____    ______ ____
ROOT
ATOM      1  C   UNL     1       5.752   3.969  15.022  0.00  0.00    +0.000 C 
ATOM      2  C   UNL     1       5.115   4.768  16.122  0.00  0.00    +0.000 A 
ATOM      3  C   UNL     1       5.375   6.132  16.240  0.00  0.00    +0.000 A 
ATOM      4  C   UNL     1       4.659   6.904  17.152  0.00  0.00    +0.000 A 
ATOM      5  C   UNL     1       3.663   6.336  17.965  0.00  0.00    +0.000 A 
ATOM      6  C   UNL     1       3.386   4.964  17.850  0.00  0.00    +0.000 A 
ATOM      7  C   UNL     1       4.135   4.186  16.942  0.00  0.00    +0.000 A 
ENDROOT
BRANCH   5   8
ATOM      8  N   UNL     1       2.981   7.253  18.788  0.00  0.00    +0.000 N 
ATOM      9  C   UNL     1       2.280   8.341  18.292  0.00  0.00    +0.000 C 
ATOM     10  O   UNL     1       2.252   8.690  17.115  0.00  0.00    +0.000 OA
ATOM     11  H   UNL     1       2.583   6.883  19.643  0.00  0.00    +0.000 HD
BRANCH   9  12
ATOM     12  C   UNL     1       1.505   9.076  19.391  0.00  0.00    +0.000 C 
BRANCH  12  13
ATOM     13  O   UNL     1       0.866  10.282  18.926  0.00  0.00    +0.000 OA
BRANCH  13  14
ATOM     14  C   UNL     1      -0.452  10.379  19.256  0.00  0.00    +0.000 C 
ATOM     15  O   UNL     1      -0.911  10.068  20.348  0.00  0.00    +0.000 OA
BRANCH  14  16
ATOM     16  C   UNL     1      -1.312  10.989  18.151  0.00  0.00    +0.000 C 
ATOM     17  C   UNL     1      -2.768  11.099  18.577  0.00  0.00    +0.000 C 
ATOM     18  C   UNL     1      -3.481  11.424  17.269  0.00  0.00    +0.000 C 
ATOM     19  C   UNL     1      -2.622  10.714  16.249  0.00  0.00    +0.000 C 
ATOM     20  O   UNL     1      -2.884  10.542  15.073  0.00  0.00    +0.000 OA
ATOM     21  N   UNL     1      -1.434  10.351  16.864  0.00  0.00    +0.000 N 
ATOM     22  H   UNL     1      -0.673  10.003  16.295  0.00  0.00    +0.000 HD
ENDBRANCH  14  16
ENDBRANCH  13  14
ENDBRANCH  12  13
ENDBRANCH   9  12
ENDBRANCH   5   8
BRANCH   6  23
ATOM     23  S   UNL     1       1.819   4.263  18.379  0.00  0.00    +0.000 S 
ATOM     24  O   UNL     1       1.301   5.114  19.433  0.00  0.00    +0.000 OA
ATOM     25  O   UNL     1       1.012   4.044  17.193  0.00  0.00    +0.000 OA
BRANCH  23  26
ATOM     26  N   UNL     1       2.133   2.743  19.035  0.00  0.00    +0.000 NA
ATOM     27  C   UNL     1       1.184   2.182  20.033  0.00  0.00    +0.000 C 
ATOM     28  C   UNL     1       1.530   2.617  21.466  0.00  0.00    +0.000 C 
ATOM     29  O   UNL     1       2.894   2.323  21.803  0.00  0.00    +0.000 OA
ATOM     30  C   UNL     1       3.785   2.985  20.894  0.00  0.00    +0.000 C 
ATOM     31  C   UNL     1       3.547   2.509  19.460  0.00  0.00    +0.000 C 
ENDBRANCH  23  26
ENDBRANCH   6  23
TORSDOF 7
ENDMDL
MODEL 2
REMARK VINA RESULT:      -8.2      2.379      4.439
REMARK  Name = 
REMARK  8 active torsions:
REMARK  status: ('A' for Active; 'I' for Inactive)
REMARK    1  A    between atoms: C_1  and  C_2
REMARK    2  A    between atoms: C_5  and  N_6
REMARK    3  A    between atoms: C_7  and  C_9
REMARK    4  A    between atoms: C_9  and  O_10
REMARK    5  A    between atoms: O_10  and  C_11
REMARK    6  A    between atoms: C_11  and  C_13
REMARK    7  A    between atoms: C_19  and  S_20
REMARK    8  A    between atoms: S_20  and  N_23
REMARK                            x       y       z     vdW  Elec       q    Type
REMARK                         _______ _______ _______ _____ _____    ______ ____
ROOT
ATOM      1  C   UNL     1       2.186   1.846  21.881  0.00  0.00    +0.000 C 
ATOM      2  C   UNL     1       2.208   2.946  20.859  0.00  0.00    +0.000 A 
ATOM      3  C   UNL     1       1.156   3.858  20.788  0.00  0.00    +0.000 A 
ATOM      4  C   UNL     1       1.252   4.972  19.957  0.00  0.00    +0.000 A 
ATOM      5  C   UNL     1       2.400   5.206  19.179  0.00  0.00    +0.000 A 
ATOM      6  C   UNL     1       3.469   4.298  19.248  0.00  0.00    +0.000 A 
ATOM      7  C   UNL     1       3.351   3.159  20.073  0.00  0.00    +0.000 A 
ENDROOT
BRANCH   5   8
ATOM      8  N   UNL     1       2.377   6.405  18.442  0.00  0.00    +0.000 N 
ATOM      9  C   UNL     1       2.257   7.654  19.030  0.00  0.00    +0.000 C 
ATOM     10  O   UNL     1       2.057   7.860  20.224  0.00  0.00    +0.000 OA
ATOM     11  H   UNL     1       2.923   6.420  17.588  0.00  0.00    +0.000 HD
BRANCH   9  12
ATOM     12  C   UNL     1       2.421   8.788  18.011  0.00  0.00    +0.000 C 
BRANCH  12  13
ATOM     13  O   UNL     1       1.164   9.348  17.578  0.00  0.00    +0.000 OA
BRANCH  13  14
ATOM     14  C   UNL     1       0.666  10.308  18.405  0.00  0.00    +0.000 C 
ATOM     15  O   UNL     1       1.344  11.182  18.929  0.00  0.00    +0.000 OA
BRANCH  14  16
ATOM     16  C   UNL     1      -0.852  10.244  18.566  0.00  0.00    +0.000 C 
ATOM     17  C   UNL     1      -1.531   9.838  17.266  0.00  0.00    +0.000 C 
ATOM     18  C   UNL     1      -3.002  10.131  17.546  0.00  0.00    +0.000 C 
ATOM     19  C   UNL     1      -2.920  11.304  18.495  0.00  0.00    +0.000 C 
ATOM     20  O   UNL     1      -3.846  12.001  18.868  0.00  0.00    +0.000 OA
ATOM     21  N   UNL     1      -1.611  11.412  18.938  0.00  0.00    +0.000 N 
ATOM     22  H   UNL     1      -1.401  12.044  19.699  0.00  0.00    +0.000 HD
ENDBRANCH  14  16
ENDBRANCH  13  14
ENDBRANCH  12  13
ENDBRANCH   9  12
ENDBRANCH   5   8
BRANCH   6  23
ATOM     23  S   UNL     1       5.141   4.761  18.783  0.00  0.00    +0.000 S 
ATOM     24  O   UNL     1       5.569   5.802  19.697  0.00  0.00    +0.000 OA
ATOM     25  O   UNL     1       5.925   3.543  18.689  0.00  0.00    +0.000 OA
BRANCH  23  26
ATOM     26  N   UNL     1       5.079   5.414  17.230  0.00  0.00    +0.000 NA
ATOM     27  C   UNL     1       5.434   4.551  16.073  0.00  0.00    +0.000 C 
ATOM     28  C   UNL     1       6.941   4.576  15.774  0.00  0.00    +0.000 C 
ATOM     29  O   UNL     1       7.435   5.915  15.612  0.00  0.00    +0.000 OA
ATOM     30  C   UNL     1       7.189   6.684  16.799  0.00  0.00    +0.000 C 
ATOM     31  C   UNL     1       5.688   6.772  17.084  0.00  0.00    +0.000 C 
ENDBRANCH  23  26
ENDBRANCH   6  23
TORSDOF 7
ENDMDL
MODEL 3
REMARK VINA RESULT:      -7.9      2.589      4.859
REMARK  Name = 
REMARK  8 active torsions:
REMARK  status: ('A' for Active; 'I' for Inactive)
REMARK    1  A    between atoms: C_1  and  C_2
REMARK    2  A    between atoms: C_5  and  N_6
REMARK    3  A    between atoms: C_7  and  C_9
REMARK    4  A    between atoms: C_9  and  O_10
REMARK    5  A    between atoms: O_10  and  C_11
REMARK    6  A    between atoms: C_11  and  C_13
REMARK    7  A    between atoms: C_19  and  S_20
REMARK    8  A    between atoms: S_20  and  N_23
REMARK                            x       y       z     vdW  Elec       q    Type
REMARK                         _______ _______ _______ _____ _____    ______ ____
ROOT
ATOM      1  C   UNL     1       2.137   1.805  21.889  0.00  0.00    +0.000 C 
ATOM      2  C   UNL     1       2.145   2.861  20.821  0.00  0.00    +0.000 A 
ATOM      3  C   UNL     1       1.042   3.697  20.653  0.00  0.00    +0.000 A 
ATOM      4  C   UNL     1       1.112   4.780  19.780  0.00  0.00    +0.000 A 
ATOM      5  C   UNL     1       2.285   5.059  19.057  0.00  0.00    +0.000 A 
ATOM      6  C   UNL     1       3.406   4.230  19.224  0.00  0.00    +0.000 A 
ATOM      7  C   UNL     1       3.315   3.120  20.091  0.00  0.00    +0.000 A 
ENDROOT
BRANCH   5   8
ATOM      8  N   UNL     1       2.226   6.223  18.267  0.00  0.00    +0.000 N 
ATOM      9  C   UNL     1       2.281   7.502  18.798  0.00  0.00    +0.000 C 
ATOM     10  O   UNL     1       2.284   7.775  19.995  0.00  0.00    +0.000 OA
ATOM     11  H   UNL     1       2.633   6.161  17.341  0.00  0.00    +0.000 HD
BRANCH   9  12
ATOM     12  C   UNL     1       2.358   8.575  17.705  0.00  0.00    +0.000 C 
BRANCH  12  13
ATOM     13  O   UNL     1       1.984   9.888  18.170  0.00  0.00    +0.000 OA
BRANCH  13  14
ATOM     14  C   UNL     1       0.648  10.047  18.381  0.00  0.00    +0.000 C 
ATOM     15  O   UNL     1      -0.220   9.621  17.630  0.00  0.00    +0.000 OA
BRANCH  14  16
ATOM     16  C   UNL     1       0.319  10.752  19.696  0.00  0.00    +0.000 C 
ATOM     17  C   UNL     1      -1.032  11.448  19.630  0.00  0.00    +0.000 C 
ATOM     18  C   UNL     1      -1.025  12.320  20.882  0.00  0.00    +0.000 C 
ATOM     19  C   UNL     1       0.442  12.646  21.038  0.00  0.00    +0.000 C 
ATOM     20  O   UNL     1       0.926  13.458  21.804  0.00  0.00    +0.000 OA
ATOM     21  N   UNL     1       1.163  11.802  20.209  0.00  0.00    +0.000 N 
ATOM     22  H   UNL     1       2.171  11.770  20.297  0.00  0.00    +0.000 HD
ENDBRANCH  14  16
ENDBRANCH  13  14
ENDBRANCH  12  13
ENDBRANCH   9  12
ENDBRANCH   5   8
BRANCH   6  23
ATOM     23  S   UNL     1       5.068   4.786  18.832  0.00  0.00    +0.000 S 
ATOM     24  O   UNL     1       5.374   5.888  19.723  0.00  0.00    +0.000 OA
ATOM     25  O   UNL     1       5.934   3.622  18.832  0.00  0.00    +0.000 OA
BRANCH  23  26
ATOM     26  N   UNL     1       5.052   5.374  17.252  0.00  0.00    +0.000 NA
ATOM     27  C   UNL     1       5.454   4.467  16.144  0.00  0.00    +0.000 C 
ATOM     28  C   UNL     1       6.970   4.497  15.895  0.00  0.00    +0.000 C 
ATOM     29  O   UNL     1       7.456   5.833  15.694  0.00  0.00    +0.000 OA
ATOM     30  C   UNL     1       7.163   6.647  16.838  0.00  0.00    +0.000 C 
ATOM     31  C   UNL     1       5.653   6.731  17.069  0.00  0.00    +0.000 C 
ENDBRANCH  23  26
ENDBRANCH   6  23
TORSDOF 7
ENDMDL
MODEL 4
REMARK VINA RESULT:      -7.9      4.947      7.197
REMARK  Name = 
REMARK  8 active torsions:
REMARK  status: ('A' for Active; 'I' for Inactive)
REMARK    1  A    between atoms: C_1  and  C_2
REMARK    2  A    between atoms: C_5  and  N_6
REMARK    3  A    between atoms: C_7  and  C_9
REMARK    4  A    between atoms: C_9  and  O_10
REMARK    5  A    between atoms: O_10  and  C_11
REMARK    6  A    between atoms: C_11  and  C_13
REMARK    7  A    between atoms: C_19  and  S_20
REMARK    8  A    between atoms: S_20  and  N_23
REMARK                            x       y       z     vdW  Elec       q    Type
REMARK                         _______ _______ _______ _____ _____    ______ ____
ROOT
ATOM      1  C   UNL     1       5.062   3.381  13.049  0.00  0.00    +0.000 C 
ATOM      2  C   UNL     1       5.852   3.973  14.181  0.00  0.00    +0.000 A 
ATOM      3  C   UNL     1       6.897   4.858  13.918  0.00  0.00    +0.000 A 
ATOM      4  C   UNL     1       7.520   5.534  14.965  0.00  0.00    +0.000 A 
ATOM      5  C   UNL     1       7.113   5.348  16.298  0.00  0.00    +0.000 A 
ATOM      6  C   UNL     1       6.057   4.465  16.574  0.00  0.00    +0.000 A 
ATOM      7  C   UNL     1       5.450   3.765  15.509  0.00  0.00    +0.000 A 
ENDROOT
BRANCH   5   8
ATOM      8  N   UNL     1       7.791   6.148  17.237  0.00  0.00    +0.000 N 
ATOM      9  C   UNL     1       7.483   7.481  17.459  0.00  0.00    +0.000 C 
ATOM     10  O   UNL     1       6.675   8.140  16.811  0.00  0.00    +0.000 OA
ATOM     11  H   UNL     1       8.134   5.678  18.067  0.00  0.00    +0.000 HD
BRANCH   9  12
ATOM     12  C   UNL     1       8.266   8.063  18.642  0.00  0.00    +0.000 C 
BRANCH  12  13
ATOM     13  O   UNL     1       9.181   9.109  18.259  0.00  0.00    +0.000 OA
BRANCH  13  14
ATOM     14  C   UNL     1       9.098  10.233  19.021  0.00  0.00    +0.000 C 
ATOM     15  O   UNL     1       8.941  10.229  20.236  0.00  0.00    +0.000 OA
BRANCH  14  16
ATOM     16  C   UNL     1       9.294  11.524  18.227  0.00  0.00    +0.000 C 
ATOM     17  C   UNL     1      10.722  11.651  17.720  0.00  0.00    +0.000 C 
ATOM     18  C   UNL     1      10.785  13.099  17.244  0.00  0.00    +0.000 C 
ATOM     19  C   UNL     1       9.821  13.787  18.182  0.00  0.00    +0.000 C 
ATOM     20  O   UNL     1       9.659  14.987  18.303  0.00  0.00    +0.000 OA
ATOM     21  N   UNL     1       9.085  12.813  18.837  0.00  0.00    +0.000 N 
ATOM     22  H   UNL     1       8.284  13.090  19.390  0.00  0.00    +0.000 HD
ENDBRANCH  14  16
ENDBRANCH  13  14
ENDBRANCH  12  13
ENDBRANCH   9  12
ENDBRANCH   5   8
BRANCH   6  23
ATOM     23  S   UNL     1       5.098   4.573  18.089  0.00  0.00    +0.000 S 
ATOM     24  O   UNL     1       6.002   4.298  19.190  0.00  0.00    +0.000 OA
ATOM     25  O   UNL     1       4.381   5.835  18.068  0.00  0.00    +0.000 OA
BRANCH  23  26
ATOM     26  N   UNL     1       3.932   3.357  18.047  0.00  0.00    +0.000 NA
ATOM     27  C   UNL     1       2.542   3.707  17.653  0.00  0.00    +0.000 C 
ATOM     28  C   UNL     1       1.697   4.157  18.856  0.00  0.00    +0.000 C 
ATOM     29  O   UNL     1       1.723   3.194  19.921  0.00  0.00    +0.000 OA
ATOM     30  C   UNL     1       3.071   2.976  20.363  0.00  0.00    +0.000 C 
ATOM     31  C   UNL     1       3.932   2.431  19.221  0.00  0.00    +0.000 C 
ENDBRANCH  23  26
ENDBRANCH   6  23
TORSDOF 7
ENDMDL
MODEL 5
REMARK VINA RESULT:      -7.8      1.936      2.363
REMARK  Name = 
REMARK  8 active torsions:
REMARK  status: ('A' for Active; 'I' for Inactive)
REMARK    1  A    between atoms: C_1  and  C_2
REMARK    2  A    between atoms: C_5  and  N_6
REMARK    3  A    between atoms: C_7  and  C_9
REMARK    4  A    between atoms: C_9  and  O_10
REMARK    5  A    between atoms: O_10  and  C_11
REMARK    6  A    between atoms: C_11  and  C_13
REMARK    7  A    between atoms: C_19  and  S_20
REMARK    8  A    between atoms: S_20  and  N_23
REMARK                            x       y       z     vdW  Elec       q    Type
REMARK                         _______ _______ _______ _____ _____    ______ ____
ROOT
ATOM      1  C   UNL     1       6.145   4.170  13.900  0.00  0.00    +0.000 C 
ATOM      2  C   UNL     1       5.608   4.738  15.182  0.00  0.00    +0.000 A 
ATOM      3  C   UNL     1       5.567   6.118  15.375  0.00  0.00    +0.000 A 
ATOM      4  C   UNL     1       4.919   6.648  16.488  0.00  0.00    +0.000 A 
ATOM      5  C   UNL     1       4.293   5.817  17.433  0.00  0.00    +0.000 A 
ATOM      6  C   UNL     1       4.321   4.425  17.246  0.00  0.00    +0.000 A 
ATOM      7  C   UNL     1       5.003   3.897  16.129  0.00  0.00    +0.000 A 
ENDROOT
BRANCH   5   8
ATOM      8  N   UNL     1       3.624   6.500  18.467  0.00  0.00    +0.000 N 
ATOM      9  C   UNL     1       2.719   7.524  18.236  0.00  0.00    +0.000 C 
ATOM     10  O   UNL     1       2.471   8.018  17.139  0.00  0.00    +0.000 OA
ATOM     11  H   UNL     1       3.409   5.962  19.298  0.00  0.00    +0.000 HD
BRANCH   9  12
ATOM     12  C   UNL     1       2.023   7.978  19.524  0.00  0.00    +0.000 C 
BRANCH  12  13
ATOM     13  O   UNL     1       1.384   9.265  19.401  0.00  0.00    +0.000 OA
BRANCH  13  14
ATOM     14  C   UNL     1       0.430   9.507  20.343  0.00  0.00    +0.000 C 
ATOM     15  O   UNL     1       0.391   8.959  21.437  0.00  0.00    +0.000 OA
BRANCH  14  16
ATOM     16  C   UNL     1      -0.561  10.597  19.937  0.00  0.00    +0.000 C 
ATOM     17  C   UNL     1      -0.621  10.758  18.425  0.00  0.00    +0.000 C 
ATOM     18  C   UNL     1      -1.399  12.059  18.254  0.00  0.00    +0.000 C 
ATOM     19  C   UNL     1      -1.004  12.835  19.488  0.00  0.00    +0.000 C 
ATOM     20  O   UNL     1      -1.241  14.007  19.715  0.00  0.00    +0.000 OA
ATOM     21  N   UNL     1      -0.384  11.961  20.368  0.00  0.00    +0.000 N 
ATOM     22  H   UNL     1      -0.191  12.270  21.312  0.00  0.00    +0.000 HD
ENDBRANCH  14  16
ENDBRANCH  13  14
ENDBRANCH  12  13
ENDBRANCH   9  12
ENDBRANCH   5   8
BRANCH   6  23
ATOM     23  S   UNL     1       3.122   3.337  18.021  0.00  0.00    +0.000 S 
ATOM     24  O   UNL     1       1.983   3.246  17.127  0.00  0.00    +0.000 OA
ATOM     25  O   UNL     1       3.813   2.119  18.402  0.00  0.00    +0.000 OA
BRANCH  23  26
ATOM     26  N   UNL     1       2.612   4.069  19.451  0.00  0.00    +0.000 NA
ATOM     27  C   UNL     1       3.302   3.721  20.721  0.00  0.00    +0.000 C 
ATOM     28  C   UNL     1       2.677   2.492  21.400  0.00  0.00    +0.000 C 
ATOM     29  O   UNL     1       1.261   2.642  21.585  0.00  0.00    +0.000 OA
ATOM     30  C   UNL     1       0.612   2.848  20.322  0.00  0.00    +0.000 C 
ATOM     31  C   UNL     1       1.131   4.121  19.650  0.00  0.00    +0.000 C 
ENDBRANCH  23  26
ENDBRANCH   6  23
TORSDOF 7
ENDMDL
MODEL 6
REMARK VINA RESULT:      -7.7      1.860      2.371
REMARK  Name = 
REMARK  8 active torsions:
REMARK  status: ('A' for Active; 'I' for Inactive)
REMARK    1  A    between atoms: C_1  and  C_2
REMARK    2  A    between atoms: C_5  and  N_6
REMARK    3  A    between atoms: C_7  and  C_9
REMARK    4  A    between atoms: C_9  and  O_10
REMARK    5  A    between atoms: O_10  and  C_11
REMARK    6  A    between atoms: C_11  and  C_13
REMARK    7  A    between atoms: C_19  and  S_20
REMARK    8  A    between atoms: S_20  and  N_23
REMARK                            x       y       z     vdW  Elec       q    Type
REMARK                         _______ _______ _______ _____ _____    ______ ____
ROOT
ATOM      1  C   UNL     1       6.078   4.163  13.955  0.00  0.00    +0.000 C 
ATOM      2  C   UNL     1       5.657   4.773  15.261  0.00  0.00    +0.000 A 
ATOM      3  C   UNL     1       5.345   6.130  15.333  0.00  0.00    +0.000 A 
ATOM      4  C   UNL     1       4.796   6.660  16.498  0.00  0.00    +0.000 A 
ATOM      5  C   UNL     1       4.542   5.850  17.619  0.00  0.00    +0.000 A 
ATOM      6  C   UNL     1       4.845   4.480  17.556  0.00  0.00    +0.000 A 
ATOM      7  C   UNL     1       5.425   3.958  16.380  0.00  0.00    +0.000 A 
ENDROOT
BRANCH   5   8
ATOM      8  N   UNL     1       3.925   6.513  18.697  0.00  0.00    +0.000 N 
ATOM      9  C   UNL     1       2.707   7.166  18.588  0.00  0.00    +0.000 C 
ATOM     10  O   UNL     1       2.081   7.330  17.545  0.00  0.00    +0.000 OA
ATOM     11  H   UNL     1       4.084   6.122  19.618  0.00  0.00    +0.000 HD
BRANCH   9  12
ATOM     12  C   UNL     1       2.197   7.661  19.947  0.00  0.00    +0.000 C 
BRANCH  12  13
ATOM     13  O   UNL     1       0.971   8.414  19.853  0.00  0.00    +0.000 OA
BRANCH  13  14
ATOM     14  C   UNL     1       0.925   9.510  20.658  0.00  0.00    +0.000 C 
ATOM     15  O   UNL     1       1.366   9.542  21.800  0.00  0.00    +0.000 OA
BRANCH  14  16
ATOM     16  C   UNL     1       0.331  10.742  19.976  0.00  0.00    +0.000 C 
ATOM     17  C   UNL     1      -0.678  11.442  20.874  0.00  0.00    +0.000 C 
ATOM     18  C   UNL     1      -1.358  12.420  19.921  0.00  0.00    +0.000 C 
ATOM     19  C   UNL     1      -1.293  11.683  18.604  0.00  0.00    +0.000 C 
ATOM     20  O   UNL     1      -1.859  11.992  17.572  0.00  0.00    +0.000 OA
ATOM     21  N   UNL     1      -0.408  10.626  18.743  0.00  0.00    +0.000 N 
ATOM     22  H   UNL     1      -0.119  10.115  17.919  0.00  0.00    +0.000 HD
ENDBRANCH  14  16
ENDBRANCH  13  14
ENDBRANCH  12  13
ENDBRANCH   9  12
ENDBRANCH   5   8
BRANCH   6  23
ATOM     23  S   UNL     1       4.067   3.283  18.646  0.00  0.00    +0.000 S 
ATOM     24  O   UNL     1       3.583   2.197  17.816  0.00  0.00    +0.000 OA
ATOM     25  O   UNL     1       5.003   2.986  19.714  0.00  0.00    +0.000 OA
BRANCH  23  26
ATOM     26  N   UNL     1       2.738   4.031  19.364  0.00  0.00    +0.000 NA
ATOM     27  C   UNL     1       2.638   4.047  20.848  0.00  0.00    +0.000 C 
ATOM     28  C   UNL     1       1.937   2.794  21.394  0.00  0.00    +0.000 C 
ATOM     29  O   UNL     1       0.658   2.581  20.775  0.00  0.00    +0.000 OA
ATOM     30  C   UNL     1       0.809   2.441  19.355  0.00  0.00    +0.000 C 
ATOM     31  C   UNL     1       1.414   3.709  18.749  0.00  0.00    +0.000 C 
ENDBRANCH  23  26
ENDBRANCH   6  23
TORSDOF 7
ENDMDL
MODEL 7
REMARK VINA RESULT:      -7.7      5.258      7.692
REMARK  Name = 
REMARK  8 active torsions:
REMARK  status: ('A' for Active; 'I' for Inactive)
REMARK    1  A    between atoms: C_1  and  C_2
REMARK    2  A    between atoms: C_5  and  N_6
REMARK    3  A    between atoms: C_7  and  C_9
REMARK    4  A    between atoms: C_9  and  O_10
REMARK    5  A    between atoms: O_10  and  C_11
REMARK    6  A    between atoms: C_11  and  C_13
REMARK    7  A    between atoms: C_19  and  S_20
REMARK    8  A    between atoms: S_20  and  N_23
REMARK                            x       y       z     vdW  Elec       q    Type
REMARK                         _______ _______ _______ _____ _____    ______ ____
ROOT
ATOM      1  C   UNL     1       5.014   3.405  13.436  0.00  0.00    +0.000 C 
ATOM      2  C   UNL     1       5.816   4.053  14.527  0.00  0.00    +0.000 A 
ATOM      3  C   UNL     1       6.938   4.818  14.213  0.00  0.00    +0.000 A 
ATOM      4  C   UNL     1       7.582   5.553  15.205  0.00  0.00    +0.000 A 
ATOM      5  C   UNL     1       7.122   5.547  16.533  0.00  0.00    +0.000 A 
ATOM      6  C   UNL     1       5.988   4.787  16.861  0.00  0.00    +0.000 A 
ATOM      7  C   UNL     1       5.358   4.024  15.853  0.00  0.00    +0.000 A 
ENDROOT
BRANCH   5   8
ATOM      8  N   UNL     1       7.835   6.390  17.407  0.00  0.00    +0.000 N 
ATOM      9  C   UNL     1       7.596   7.751  17.510  0.00  0.00    +0.000 C 
ATOM     10  O   UNL     1       6.827   8.392  16.800  0.00  0.00    +0.000 OA
ATOM     11  H   UNL     1       8.148   5.976  18.278  0.00  0.00    +0.000 HD
BRANCH   9  12
ATOM     12  C   UNL     1       8.401   8.391  18.648  0.00  0.00    +0.000 C 
BRANCH  12  13
ATOM     13  O   UNL     1       8.509   9.824  18.529  0.00  0.00    +0.000 OA
BRANCH  13  14
ATOM     14  C   UNL     1       9.324  10.402  19.455  0.00  0.00    +0.000 C 
ATOM     15  O   UNL     1       9.099  10.408  20.659  0.00  0.00    +0.000 OA
BRANCH  14  16
ATOM     16  C   UNL     1      10.604  10.986  18.859  0.00  0.00    +0.000 C 
ATOM     17  C   UNL     1      11.291  11.928  19.836  0.00  0.00    +0.000 C 
ATOM     18  C   UNL     1      12.333  12.620  18.963  0.00  0.00    +0.000 C 
ATOM     19  C   UNL     1      11.657  12.642  17.611  0.00  0.00    +0.000 C 
ATOM     20  O   UNL     1      12.031  13.246  16.623  0.00  0.00    +0.000 OA
ATOM     21  N   UNL     1      10.568  11.786  17.660  0.00  0.00    +0.000 N 
ATOM     22  H   UNL     1      10.088  11.554  16.800  0.00  0.00    +0.000 HD
ENDBRANCH  14  16
ENDBRANCH  13  14
ENDBRANCH  12  13
ENDBRANCH   9  12
ENDBRANCH   5   8
BRANCH   6  23
ATOM     23  S   UNL     1       4.996   5.136  18.317  0.00  0.00    +0.000 S 
ATOM     24  O   UNL     1       5.908   5.255  19.439  0.00  0.00    +0.000 OA
ATOM     25  O   UNL     1       4.124   6.251  17.999  0.00  0.00    +0.000 OA
BRANCH  23  26
ATOM     26  N   UNL     1       3.997   3.806  18.589  0.00  0.00    +0.000 NA
ATOM     27  C   UNL     1       2.908   3.516  17.618  0.00  0.00    +0.000 C 
ATOM     28  C   UNL     1       1.613   4.267  17.962  0.00  0.00    +0.000 C 
ATOM     29  O   UNL     1       1.198   4.032  19.316  0.00  0.00    +0.000 OA
ATOM     30  C   UNL     1       2.224   4.444  20.231  0.00  0.00    +0.000 C 
ATOM     31  C   UNL     1       3.510   3.649  19.993  0.00  0.00    +0.000 C 
ENDBRANCH  23  26
ENDBRANCH   6  23
TORSDOF 7
ENDMDL
MODEL 8
REMARK VINA RESULT:      -7.7      1.772      1.973
REMARK  Name = 
REMARK  8 active torsions:
REMARK  status: ('A' for Active; 'I' for Inactive)
REMARK    1  A    between atoms: C_1  and  C_2
REMARK    2  A    between atoms: C_5  and  N_6
REMARK    3  A    between atoms: C_7  and  C_9
REMARK    4  A    between atoms: C_9  and  O_10
REMARK    5  A    between atoms: O_10  and  C_11
REMARK    6  A    between atoms: C_11  and  C_13
REMARK    7  A    between atoms: C_19  and  S_20
REMARK    8  A    between atoms: S_20  and  N_23
REMARK                            x       y       z     vdW  Elec       q    Type
REMARK                         _______ _______ _______ _____ _____    ______ ____
ROOT
ATOM      1  C   UNL     1       6.251   4.151  14.124  0.00  0.00    +0.000 C 
ATOM      2  C   UNL     1       5.630   4.735  15.360  0.00  0.00    +0.000 A 
ATOM      3  C   UNL     1       5.829   6.078  15.677  0.00  0.00    +0.000 A 
ATOM      4  C   UNL     1       5.122   6.660  16.727  0.00  0.00    +0.000 A 
ATOM      5  C   UNL     1       4.197   5.919  17.482  0.00  0.00    +0.000 A 
ATOM      6  C   UNL     1       3.982   4.568  17.168  0.00  0.00    +0.000 A 
ATOM      7  C   UNL     1       4.723   3.981  16.119  0.00  0.00    +0.000 A 
ENDROOT
BRANCH   5   8
ATOM      8  N   UNL     1       3.512   6.660  18.465  0.00  0.00    +0.000 N 
ATOM      9  C   UNL     1       2.709   7.750  18.170  0.00  0.00    +0.000 C 
ATOM     10  O   UNL     1       2.578   8.255  17.058  0.00  0.00    +0.000 OA
ATOM     11  H   UNL     1       3.198   6.147  19.281  0.00  0.00    +0.000 HD
BRANCH   9  12
ATOM     12  C   UNL     1       1.963   8.266  19.406  0.00  0.00    +0.000 C 
BRANCH  12  13
ATOM     13  O   UNL     1       1.049   9.342  19.109  0.00  0.00    +0.000 OA
BRANCH  13  14
ATOM     14  C   UNL     1       0.626  10.033  20.203  0.00  0.00    +0.000 C 
ATOM     15  O   UNL     1       0.948   9.763  21.353  0.00  0.00    +0.000 OA
BRANCH  14  16
ATOM     16  C   UNL     1      -0.243  11.243  19.860  0.00  0.00    +0.000 C 
ATOM     17  C   UNL     1      -1.011  11.024  18.565  0.00  0.00    +0.000 C 
ATOM     18  C   UNL     1      -1.547  12.417  18.251  0.00  0.00    +0.000 C 
ATOM     19  C   UNL     1      -0.475  13.312  18.826  0.00  0.00    +0.000 C 
ATOM     20  O   UNL     1      -0.374  14.515  18.671  0.00  0.00    +0.000 OA
ATOM     21  N   UNL     1       0.344  12.540  19.635  0.00  0.00    +0.000 N 
ATOM     22  H   UNL     1       1.024  12.999  20.227  0.00  0.00    +0.000 HD
ENDBRANCH  14  16
ENDBRANCH  13  14
ENDBRANCH  12  13
ENDBRANCH   9  12
ENDBRANCH   5   8
BRANCH   6  23
ATOM     23  S   UNL     1       2.480   3.707  17.645  0.00  0.00    +0.000 S 
ATOM     24  O   UNL     1       1.496   4.717  17.986  0.00  0.00    +0.000 OA
ATOM     25  O   UNL     1       2.170   2.749  16.601  0.00  0.00    +0.000 OA
BRANCH  23  26
ATOM     26  N   UNL     1       2.819   2.813  19.033  0.00  0.00    +0.000 NA
ATOM     27  C   UNL     1       1.718   2.060  19.690  0.00  0.00    +0.000 C 
ATOM     28  C   UNL     1       0.957   2.921  20.710  0.00  0.00    +0.000 C 
ATOM     29  O   UNL     1       1.840   3.522  21.670  0.00  0.00    +0.000 OA
ATOM     30  C   UNL     1       2.811   4.345  21.009  0.00  0.00    +0.000 C 
ATOM     31  C   UNL     1       3.664   3.510  20.051  0.00  0.00    +0.000 C 
ENDBRANCH  23  26
ENDBRANCH   6  23
TORSDOF 7
ENDMDL
MODEL 9
REMARK VINA RESULT:      -7.6      2.957      7.597
REMARK  Name = 
REMARK  8 active torsions:
REMARK  status: ('A' for Active; 'I' for Inactive)
REMARK    1  A    between atoms: C_1  and  C_2
REMARK    2  A    between atoms: C_5  and  N_6
REMARK    3  A    between atoms: C_7  and  C_9
REMARK    4  A    between atoms: C_9  and  O_10
REMARK    5  A    between atoms: O_10  and  C_11
REMARK    6  A    between atoms: C_11  and  C_13
REMARK    7  A    between atoms: C_19  and  S_20
REMARK    8  A    between atoms: S_20  and  N_23
REMARK                            x       y       z     vdW  Elec       q    Type
REMARK                         _______ _______ _______ _____ _____    ______ ____
ROOT
ATOM      1  C   UNL     1       1.186   2.451  22.002  0.00  0.00    +0.000 C 
ATOM      2  C   UNL     1       2.330   2.922  21.150  0.00  0.00    +0.000 A 
ATOM      3  C   UNL     1       3.442   2.103  20.955  0.00  0.00    +0.000 A 
ATOM      4  C   UNL     1       4.424   2.467  20.037  0.00  0.00    +0.000 A 
ATOM      5  C   UNL     1       4.320   3.651  19.287  0.00  0.00    +0.000 A 
ATOM      6  C   UNL     1       3.201   4.480  19.468  0.00  0.00    +0.000 A 
ATOM      7  C   UNL     1       2.225   4.116  20.421  0.00  0.00    +0.000 A 
ENDROOT
BRANCH   5   8
ATOM      8  N   UNL     1       5.355   3.850  18.353  0.00  0.00    +0.000 N 
ATOM      9  C   UNL     1       6.484   4.606  18.623  0.00  0.00    +0.000 C 
ATOM     10  O   UNL     1       6.671   5.262  19.643  0.00  0.00    +0.000 OA
ATOM     11  H   UNL     1       5.533   3.089  17.708  0.00  0.00    +0.000 HD
BRANCH   9  12
ATOM     12  C   UNL     1       7.516   4.522  17.492  0.00  0.00    +0.000 C 
BRANCH  12  13
ATOM     13  O   UNL     1       7.569   5.715  16.683  0.00  0.00    +0.000 OA
BRANCH  13  14
ATOM     14  C   UNL     1       6.599   5.789  15.730  0.00  0.00    +0.000 C 
ATOM     15  O   UNL     1       5.759   6.678  15.674  0.00  0.00    +0.000 OA
BRANCH  14  16
ATOM     16  C   UNL     1       6.698   4.688  14.675  0.00  0.00    +0.000 C 
ATOM     17  C   UNL     1       7.574   5.115  13.507  0.00  0.00    +0.000 C 
ATOM     18  C   UNL     1       7.292   4.040  12.462  0.00  0.00    +0.000 C 
ATOM     19  C   UNL     1       5.859   3.668  12.762  0.00  0.00    +0.000 C 
ATOM     20  O   UNL     1       5.135   2.965  12.081  0.00  0.00    +0.000 OA
ATOM     21  N   UNL     1       5.523   4.202  13.995  0.00  0.00    +0.000 N 
ATOM     22  H   UNL     1       4.652   3.924  14.430  0.00  0.00    +0.000 HD
ENDBRANCH  14  16
ENDBRANCH  13  14
ENDBRANCH  12  13
ENDBRANCH   9  12
ENDBRANCH   5   8
BRANCH   6  23
ATOM     23  S   UNL     1       2.678   5.659  18.220  0.00  0.00    +0.000 S 
ATOM     24  O   UNL     1       3.513   5.448  17.053  0.00  0.00    +0.000 OA
ATOM     25  O   UNL     1       1.238   5.547  18.082  0.00  0.00    +0.000 OA
BRANCH  23  26
ATOM     26  N   UNL     1       2.985   7.206  18.814  0.00  0.00    +0.000 NA
ATOM     27  C   UNL     1       2.323   7.635  20.075  0.00  0.00    +0.000 C 
ATOM     28  C   UNL     1       0.942   8.258  19.820  0.00  0.00    +0.000 C 
ATOM     29  O   UNL     1       1.002   9.324  18.859  0.00  0.00    +0.000 OA
ATOM     30  C   UNL     1       1.526   8.843  17.613  0.00  0.00    +0.000 C 
ATOM     31  C   UNL     1       2.946   8.301  17.797  0.00  0.00    +0.000 C 
ENDBRANCH  23  26
ENDBRANCH   6  23
TORSDOF 7
ENDMDL
