MODEL 1
REMARK VINA RESULT:      -8.8      0.000      0.000
REMARK  Name = 
REMARK  4 active torsions:
REMARK  status: ('A' for Active; 'I' for Inactive)
REMARK    1  A    between atoms: C_1  and  C_2
REMARK    2  A    between atoms: C_2  and  C_3
REMARK    3  A    between atoms: C_9  and  C_10
REMARK    4  A    between atoms: C_10  and  C_11
REMARK                            x       y       z     vdW  Elec       q    Type
REMARK                         _______ _______ _______ _____ _____    ______ ____
ROOT
ATOM      1  C   UNL     1       2.042   5.201  20.439  0.00  0.00    +0.000 C 
ATOM      2  C   UNL     1       1.127   3.951  20.506  0.00  0.00    +0.000 C 
ATOM      3  C   UNL     1       1.121   3.116  19.235  0.00  0.00    +0.000 C 
ATOM      4  C   UNL     1       2.529   2.911  18.755  0.00  0.00    +0.000 C 
ATOM      5  O   UNL     1       3.008   1.801  18.555  0.00  0.00    +0.000 OA
ATOM      6  N   UNL     1       3.193   4.089  18.538  0.00  0.00    +0.000 N 
ATOM      7  C   UNL     1       4.551   4.169  18.055  0.00  0.00    +0.000 C 
ATOM      8  C   UNL     1       4.832   5.666  18.153  0.00  0.00    +0.000 C 
ATOM      9  O   UNL     1       3.920   6.151  19.164  0.00  0.00    +0.000 OA
ATOM     10  C   UNL     1       2.733   5.350  19.070  0.00  0.00    +0.000 C 
ENDROOT
BRANCH   1  12
ATOM     11  C   UNL     1       1.670   7.770  20.345  0.00  0.00    +0.000 C 
ATOM     12  C   UNL     1       1.206   6.425  20.875  0.00  0.00    +0.000 C 
ENDBRANCH   1  12
BRANCH   7  13
ATOM     13  C   UNL     1       4.733   3.597  16.633  0.00  0.00    +0.000 C 
BRANCH  13  14
ATOM     14  C   UNL     1       5.793   4.302  15.842  0.00  0.00    +0.000 A 
ATOM     15  C   UNL     1       6.773   5.142  16.336  0.00  0.00    +0.000 A 
ATOM     16  N   UNL     1       7.598   5.496  15.301  0.00  0.00    +0.000 N 
ATOM     17  C   UNL     1       7.184   4.893  14.138  0.00  0.00    +0.000 A 
ATOM     18  C   UNL     1       7.762   4.891  12.863  0.00  0.00    +0.000 A 
ATOM     19  C   UNL     1       7.088   4.206  11.848  0.00  0.00    +0.000 A 
ATOM     20  C   UNL     1       5.862   3.589  12.089  0.00  0.00    +0.000 A 
ATOM     21  C   UNL     1       5.302   3.599  13.370  0.00  0.00    +0.000 A 
ATOM     22  C   UNL     1       5.996   4.223  14.426  0.00  0.00    +0.000 A 
ATOM     23  H   UNL     1       8.409   6.095  15.378  0.00  0.00    +0.000 HD
ENDBRANCH  13  14
ENDBRANCH   7  13
TORSDOF 3
ENDMDL
MODEL 2
REMARK VINA RESULT:      -8.7      1.897      2.086
REMARK  Name = 
REMARK  4 active torsions:
REMARK  status: ('A' for Active; 'I' for Inactive)
REMARK    1  A    between atoms: C_1  and  C_2
REMARK    2  A    between atoms: C_2  and  C_3
REMARK    3  A    between atoms: C_9  and  C_10
REMARK    4  A    between atoms: C_10  and  C_11
REMARK                            x       y       z     vdW  Elec       q    Type
REMARK                         _______ _______ _______ _____ _____    ______ ____
ROOT
ATOM      1  C   UNL     1       2.920   2.467  20.054  0.00  0.00    +0.000 C 
ATOM      2  C   UNL     1       1.542   2.243  19.378  0.00  0.00    +0.000 C 
ATOM      3  C   UNL     1       1.209   3.256  18.294  0.00  0.00    +0.000 C 
ATOM      4  C   UNL     1       2.394   3.441  17.391  0.00  0.00    +0.000 C 
ATOM      5  O   UNL     1       2.336   3.287  16.176  0.00  0.00    +0.000 OA
ATOM      6  N   UNL     1       3.521   3.831  18.066  0.00  0.00    +0.000 N 
ATOM      7  C   UNL     1       4.788   4.098  17.428  0.00  0.00    +0.000 C 
ATOM      8  C   UNL     1       5.703   4.324  18.628  0.00  0.00    +0.000 C 
ATOM      9  O   UNL     1       5.067   3.620  19.719  0.00  0.00    +0.000 OA
ATOM     10  C   UNL     1       3.652   3.704  19.498  0.00  0.00    +0.000 C 
ENDROOT
BRANCH   1  12
ATOM     11  C   UNL     1       1.275   2.713  22.049  0.00  0.00    +0.000 C 
ATOM     12  C   UNL     1       2.702   2.481  21.583  0.00  0.00    +0.000 C 
ENDBRANCH   1  12
BRANCH   7  13
ATOM     13  C   UNL     1       4.746   5.290  16.448  0.00  0.00    +0.000 C 
BRANCH  13  14
ATOM     14  C   UNL     1       5.860   5.273  15.445  0.00  0.00    +0.000 A 
ATOM     15  C   UNL     1       7.103   5.862  15.580  0.00  0.00    +0.000 A 
ATOM     16  N   UNL     1       7.857   5.528  14.486  0.00  0.00    +0.000 N 
ATOM     17  C   UNL     1       7.135   4.720  13.641  0.00  0.00    +0.000 A 
ATOM     18  C   UNL     1       7.517   4.069  12.462  0.00  0.00    +0.000 A 
ATOM     19  C   UNL     1       6.544   3.327  11.787  0.00  0.00    +0.000 A 
ATOM     20  C   UNL     1       5.230   3.279  12.248  0.00  0.00    +0.000 A 
ATOM     21  C   UNL     1       4.868   3.931  13.430  0.00  0.00    +0.000 A 
ATOM     22  C   UNL     1       5.846   4.628  14.166  0.00  0.00    +0.000 A 
ATOM     23  H   UNL     1       8.814   5.813  14.327  0.00  0.00    +0.000 HD
ENDBRANCH  13  14
ENDBRANCH   7  13
TORSDOF 3
ENDMDL
MODEL 3
REMARK VINA RESULT:      -8.7      2.673      6.343
REMARK  Name = 
REMARK  4 active torsions:
REMARK  status: ('A' for Active; 'I' for Inactive)
REMARK    1  A    between atoms: C_1  and  C_2
REMARK    2  A    between atoms: C_2  and  C_3
REMARK    3  A    between atoms: C_9  and  C_10
REMARK    4  A    between atoms: C_10  and  C_11
REMARK                            x       y       z     vdW  Elec       q    Type
REMARK                         _______ _______ _______ _____ _____    ______ ____
ROOT
ATOM      1  C   UNL     1       7.696   7.532  17.574  0.00  0.00    +0.000 C 
ATOM      2  C   UNL     1       8.259   6.826  18.835  0.00  0.00    +0.000 C 
ATOM      3  C   UNL     1       7.304   5.824  19.464  0.00  0.00    +0.000 C 
ATOM      4  C   UNL     1       6.707   4.951  18.397  0.00  0.00    +0.000 C 
ATOM      5  O   UNL     1       6.773   3.728  18.424  0.00  0.00    +0.000 OA
ATOM      6  N   UNL     1       6.060   5.669  17.426  0.00  0.00    +0.000 N 
ATOM      7  C   UNL     1       5.383   5.068  16.300  0.00  0.00    +0.000 C 
ATOM      8  C   UNL     1       4.996   6.293  15.476  0.00  0.00    +0.000 C 
ATOM      9  O   UNL     1       5.941   7.316  15.863  0.00  0.00    +0.000 OA
ATOM     10  C   UNL     1       6.259   7.087  17.243  0.00  0.00    +0.000 C 
ENDROOT
BRANCH   1  12
ATOM     11  C   UNL     1       8.884   9.481  18.813  0.00  0.00    +0.000 C 
ATOM     12  C   UNL     1       7.870   9.055  17.766  0.00  0.00    +0.000 C 
ENDBRANCH   1  12
BRANCH   7  13
ATOM     13  C   UNL     1       4.180   4.188  16.703  0.00  0.00    +0.000 C 
BRANCH  13  14
ATOM     14  C   UNL     1       3.425   4.721  17.883  0.00  0.00    +0.000 A 
ATOM     15  C   UNL     1       2.756   5.928  17.961  0.00  0.00    +0.000 A 
ATOM     16  N   UNL     1       2.116   5.987  19.171  0.00  0.00    +0.000 N 
ATOM     17  C   UNL     1       2.343   4.834  19.884  0.00  0.00    +0.000 A 
ATOM     18  C   UNL     1       1.829   4.414  21.117  0.00  0.00    +0.000 A 
ATOM     19  C   UNL     1       2.271   3.188  21.619  0.00  0.00    +0.000 A 
ATOM     20  C   UNL     1       3.226   2.435  20.939  0.00  0.00    +0.000 A 
ATOM     21  C   UNL     1       3.726   2.869  19.707  0.00  0.00    +0.000 A 
ATOM     22  C   UNL     1       3.244   4.068  19.145  0.00  0.00    +0.000 A 
ATOM     23  H   UNL     1       1.541   6.754  19.491  0.00  0.00    +0.000 HD
ENDBRANCH  13  14
ENDBRANCH   7  13
TORSDOF 3
ENDMDL
MODEL 4
REMARK VINA RESULT:      -8.6      1.943      7.036
REMARK  Name = 
REMARK  4 active torsions:
REMARK  status: ('A' for Active; 'I' for Inactive)
REMARK    1  A    between atoms: C_1  and  C_2
REMARK    2  A    between atoms: C_2  and  C_3
REMARK    3  A    between atoms: C_9  and  C_10
REMARK    4  A    between atoms: C_10  and  C_11
REMARK                            x       y       z     vdW  Elec       q    Type
REMARK                         _______ _______ _______ _____ _____    ______ ____
ROOT
ATOM      1  C   UNL     1       5.880   3.992  16.019  0.00  0.00    +0.000 C 
ATOM      2  C   UNL     1       7.251   4.515  16.522  0.00  0.00    +0.000 C 
ATOM      3  C   UNL     1       7.153   5.596  17.585  0.00  0.00    +0.000 C 
ATOM      4  C   UNL     1       6.148   5.196  18.627  0.00  0.00    +0.000 C 
ATOM      5  O   UNL     1       6.416   5.136  19.821  0.00  0.00    +0.000 OA
ATOM      6  N   UNL     1       4.910   4.943  18.100  0.00  0.00    +0.000 N 
ATOM      7  C   UNL     1       3.763   4.561  18.890  0.00  0.00    +0.000 C 
ATOM      8  C   UNL     1       2.727   4.255  17.812  0.00  0.00    +0.000 C 
ATOM      9  O   UNL     1       3.499   3.925  16.635  0.00  0.00    +0.000 OA
ATOM     10  C   UNL     1       4.696   4.715  16.691  0.00  0.00    +0.000 C 
ENDROOT
BRANCH   1  12
ATOM     11  C   UNL     1       7.067   4.770  13.844  0.00  0.00    +0.000 C 
ATOM     12  C   UNL     1       5.884   4.058  14.476  0.00  0.00    +0.000 C 
ENDBRANCH   1  12
BRANCH   7  13
ATOM     13  C   UNL     1       3.313   5.649  19.889  0.00  0.00    +0.000 C 
BRANCH  13  14
ATOM     14  C   UNL     1       2.834   6.904  19.223  0.00  0.00    +0.000 A 
ATOM     15  C   UNL     1       3.175   7.353  17.961  0.00  0.00    +0.000 A 
ATOM     16  N   UNL     1       2.445   8.481  17.695  0.00  0.00    +0.000 N 
ATOM     17  C   UNL     1       1.620   8.773  18.755  0.00  0.00    +0.000 A 
ATOM     18  C   UNL     1       0.644   9.766  18.897  0.00  0.00    +0.000 A 
ATOM     19  C   UNL     1      -0.026   9.845  20.121  0.00  0.00    +0.000 A 
ATOM     20  C   UNL     1       0.302   8.995  21.175  0.00  0.00    +0.000 A 
ATOM     21  C   UNL     1       1.277   8.007  21.013  0.00  0.00    +0.000 A 
ATOM     22  C   UNL     1       1.918   7.861  19.767  0.00  0.00    +0.000 A 
ATOM     23  H   UNL     1       2.485   9.014  16.837  0.00  0.00    +0.000 HD
ENDBRANCH  13  14
ENDBRANCH   7  13
TORSDOF 3
ENDMDL
MODEL 5
REMARK VINA RESULT:      -8.4      2.825      6.288
REMARK  Name = 
REMARK  4 active torsions:
REMARK  status: ('A' for Active; 'I' for Inactive)
REMARK    1  A    between atoms: C_1  and  C_2
REMARK    2  A    between atoms: C_2  and  C_3
REMARK    3  A    between atoms: C_9  and  C_10
REMARK    4  A    between atoms: C_10  and  C_11
REMARK                            x       y       z     vdW  Elec       q    Type
REMARK                         _______ _______ _______ _____ _____    ______ ____
ROOT
ATOM      1  C   UNL     1       7.655   7.413  17.591  0.00  0.00    +0.000 C 
ATOM      2  C   UNL     1       8.209   6.708  18.856  0.00  0.00    +0.000 C 
ATOM      3  C   UNL     1       7.180   5.877  19.606  0.00  0.00    +0.000 C 
ATOM      4  C   UNL     1       6.401   5.036  18.637  0.00  0.00    +0.000 C 
ATOM      5  O   UNL     1       6.311   3.818  18.737  0.00  0.00    +0.000 OA
ATOM      6  N   UNL     1       5.785   5.779  17.665  0.00  0.00    +0.000 N 
ATOM      7  C   UNL     1       4.958   5.214  16.625  0.00  0.00    +0.000 C 
ATOM      8  C   UNL     1       4.675   6.433  15.752  0.00  0.00    +0.000 C 
ATOM      9  O   UNL     1       5.769   7.340  16.013  0.00  0.00    +0.000 OA
ATOM     10  C   UNL     1       6.151   7.146  17.382  0.00  0.00    +0.000 C 
ENDROOT
BRANCH   1  12
ATOM     11  C   UNL     1       8.908   9.305  18.854  0.00  0.00    +0.000 C 
ATOM     12  C   UNL     1       8.037   8.908  17.676  0.00  0.00    +0.000 C 
ENDBRANCH   1  12
BRANCH   7  13
ATOM     13  C   UNL     1       3.683   4.525  17.158  0.00  0.00    +0.000 C 
BRANCH  13  14
ATOM     14  C   UNL     1       3.123   5.181  18.384  0.00  0.00    +0.000 A 
ATOM     15  C   UNL     1       3.104   4.663  19.665  0.00  0.00    +0.000 A 
ATOM     16  N   UNL     1       2.597   5.617  20.507  0.00  0.00    +0.000 N 
ATOM     17  C   UNL     1       2.293   6.757  19.803  0.00  0.00    +0.000 A 
ATOM     18  C   UNL     1       1.841   8.005  20.249  0.00  0.00    +0.000 A 
ATOM     19  C   UNL     1       1.582   8.983  19.285  0.00  0.00    +0.000 A 
ATOM     20  C   UNL     1       1.724   8.707  17.927  0.00  0.00    +0.000 A 
ATOM     21  C   UNL     1       2.181   7.457  17.500  0.00  0.00    +0.000 A 
ATOM     22  C   UNL     1       2.516   6.477  18.455  0.00  0.00    +0.000 A 
ATOM     23  H   UNL     1       2.480   5.512  21.505  0.00  0.00    +0.000 HD
ENDBRANCH  13  14
ENDBRANCH   7  13
TORSDOF 3
ENDMDL
MODEL 6
REMARK VINA RESULT:      -8.4      3.915      5.399
REMARK  Name = 
REMARK  4 active torsions:
REMARK  status: ('A' for Active; 'I' for Inactive)
REMARK    1  A    between atoms: C_1  and  C_2
REMARK    2  A    between atoms: C_2  and  C_3
REMARK    3  A    between atoms: C_9  and  C_10
REMARK    4  A    between atoms: C_10  and  C_11
REMARK                            x       y       z     vdW  Elec       q    Type
REMARK                         _______ _______ _______ _____ _____    ______ ____
ROOT
ATOM      1  C   UNL     1       0.091   9.252  20.988  0.00  0.00    +0.000 C 
ATOM      2  C   UNL     1       0.049  10.510  20.082  0.00  0.00    +0.000 C 
ATOM      3  C   UNL     1       1.260  10.665  19.176  0.00  0.00    +0.000 C 
ATOM      4  C   UNL     1       1.571   9.353  18.515  0.00  0.00    +0.000 C 
ATOM      5  O   UNL     1       1.651   9.224  17.299  0.00  0.00    +0.000 OA
ATOM      6  N   UNL     1       1.785   8.343  19.415  0.00  0.00    +0.000 N 
ATOM      7  C   UNL     1       2.122   6.990  19.039  0.00  0.00    +0.000 C 
ATOM      8  C   UNL     1       2.084   6.271  20.385  0.00  0.00    +0.000 C 
ATOM      9  O   UNL     1       1.209   7.072  21.210  0.00  0.00    +0.000 OA
ATOM     10  C   UNL     1       1.384   8.435  20.798  0.00  0.00    +0.000 C 
ENDROOT
BRANCH   1  12
ATOM     11  C   UNL     1      -0.928  11.015  22.601  0.00  0.00    +0.000 C 
ATOM     12  C   UNL     1      -0.177   9.705  22.441  0.00  0.00    +0.000 C 
ENDBRANCH   1  12
BRANCH   7  13
ATOM     13  C   UNL     1       3.479   6.873  18.312  0.00  0.00    +0.000 C 
BRANCH  13  14
ATOM     14  C   UNL     1       4.169   5.564  18.553  0.00  0.00    +0.000 A 
ATOM     15  C   UNL     1       5.432   5.379  19.082  0.00  0.00    +0.000 A 
ATOM     16  N   UNL     1       5.644   4.034  19.229  0.00  0.00    +0.000 N 
ATOM     17  C   UNL     1       4.537   3.332  18.816  0.00  0.00    +0.000 A 
ATOM     18  C   UNL     1       4.264   1.960  18.864  0.00  0.00    +0.000 A 
ATOM     19  C   UNL     1       3.047   1.523  18.332  0.00  0.00    +0.000 A 
ATOM     20  C   UNL     1       2.162   2.417  17.735  0.00  0.00    +0.000 A 
ATOM     21  C   UNL     1       2.450   3.785  17.700  0.00  0.00    +0.000 A 
ATOM     22  C   UNL     1       3.638   4.259  18.291  0.00  0.00    +0.000 A 
ATOM     23  H   UNL     1       6.482   3.612  19.606  0.00  0.00    +0.000 HD
ENDBRANCH  13  14
ENDBRANCH   7  13
TORSDOF 3
ENDMDL
MODEL 7
REMARK VINA RESULT:      -8.3      2.660      7.881
REMARK  Name = 
REMARK  4 active torsions:
REMARK  status: ('A' for Active; 'I' for Inactive)
REMARK    1  A    between atoms: C_1  and  C_2
REMARK    2  A    between atoms: C_2  and  C_3
REMARK    3  A    between atoms: C_9  and  C_10
REMARK    4  A    between atoms: C_10  and  C_11
REMARK                            x       y       z     vdW  Elec       q    Type
REMARK                         _______ _______ _______ _____ _____    ______ ____
ROOT
ATOM      1  C   UNL     1       4.433   4.210  16.673  0.00  0.00    +0.000 C 
ATOM      2  C   UNL     1       3.929   2.922  17.374  0.00  0.00    +0.000 C 
ATOM      3  C   UNL     1       3.468   3.133  18.807  0.00  0.00    +0.000 C 
ATOM      4  C   UNL     1       2.586   4.346  18.884  0.00  0.00    +0.000 C 
ATOM      5  O   UNL     1       1.452   4.315  19.346  0.00  0.00    +0.000 OA
ATOM      6  N   UNL     1       3.200   5.479  18.417  0.00  0.00    +0.000 N 
ATOM      7  C   UNL     1       2.577   6.781  18.402  0.00  0.00    +0.000 C 
ATOM      8  C   UNL     1       3.612   7.615  17.651  0.00  0.00    +0.000 C 
ATOM      9  O   UNL     1       4.351   6.662  16.855  0.00  0.00    +0.000 OA
ATOM     10  C   UNL     1       4.390   5.439  17.603  0.00  0.00    +0.000 C 
ENDROOT
BRANCH   1  12
ATOM     11  C   UNL     1       5.979   4.194  14.586  0.00  0.00    +0.000 C 
ATOM     12  C   UNL     1       5.823   3.908  16.068  0.00  0.00    +0.000 C 
ENDBRANCH   1  12
BRANCH   7  13
ATOM     13  C   UNL     1       2.248   7.323  19.809  0.00  0.00    +0.000 C 
BRANCH  13  14
ATOM     14  C   UNL     1       1.456   8.596  19.784  0.00  0.00    +0.000 A 
ATOM     15  C   UNL     1       1.171   9.371  18.675  0.00  0.00    +0.000 A 
ATOM     16  N   UNL     1       0.341  10.389  19.065  0.00  0.00    +0.000 N 
ATOM     17  C   UNL     1       0.066  10.288  20.408  0.00  0.00    +0.000 A 
ATOM     18  C   UNL     1      -0.794  11.042  21.216  0.00  0.00    +0.000 A 
ATOM     19  C   UNL     1      -0.846  10.726  22.577  0.00  0.00    +0.000 A 
ATOM     20  C   UNL     1      -0.036   9.729  23.114  0.00  0.00    +0.000 A 
ATOM     21  C   UNL     1       0.813   8.983  22.291  0.00  0.00    +0.000 A 
ATOM     22  C   UNL     1       0.833   9.235  20.904  0.00  0.00    +0.000 A 
ATOM     23  H   UNL     1      -0.036  11.101  18.456  0.00  0.00    +0.000 HD
ENDBRANCH  13  14
ENDBRANCH   7  13
TORSDOF 3
ENDMDL
MODEL 8
REMARK VINA RESULT:      -8.2      2.630      4.839
REMARK  Name = 
REMARK  4 active torsions:
REMARK  status: ('A' for Active; 'I' for Inactive)
REMARK    1  A    between atoms: C_1  and  C_2
REMARK    2  A    between atoms: C_2  and  C_3
REMARK    3  A    between atoms: C_9  and  C_10
REMARK    4  A    between atoms: C_10  and  C_11
REMARK                            x       y       z     vdW  Elec       q    Type
REMARK                         _______ _______ _______ _____ _____    ______ ____
ROOT
ATOM      1  C   UNL     1      -0.110   9.163  21.334  0.00  0.00    +0.000 C 
ATOM      2  C   UNL     1      -0.315  10.458  20.505  0.00  0.00    +0.000 C 
ATOM      3  C   UNL     1       0.822  10.769  19.545  0.00  0.00    +0.000 C 
ATOM      4  C   UNL     1       1.207   9.527  18.794  0.00  0.00    +0.000 C 
ATOM      5  O   UNL     1       1.226   9.470  17.570  0.00  0.00    +0.000 OA
ATOM      6  N   UNL     1       1.562   8.495  19.621  0.00  0.00    +0.000 N 
ATOM      7  C   UNL     1       1.994   7.200  19.150  0.00  0.00    +0.000 C 
ATOM      8  C   UNL     1       2.098   6.411  20.453  0.00  0.00    +0.000 C 
ATOM      9  O   UNL     1       1.207   7.085  21.370  0.00  0.00    +0.000 OA
ATOM     10  C   UNL     1       1.237   8.478  21.027  0.00  0.00    +0.000 C 
ENDROOT
BRANCH   1  12
ATOM     11  C   UNL     1      -1.168  10.749  23.098  0.00  0.00    +0.000 C 
ATOM     12  C   UNL     1      -0.330   9.513  22.822  0.00  0.00    +0.000 C 
ENDBRANCH   1  12
BRANCH   7  13
ATOM     13  C   UNL     1       3.311   7.245  18.346  0.00  0.00    +0.000 C 
BRANCH  13  14
ATOM     14  C   UNL     1       3.682   5.924  17.742  0.00  0.00    +0.000 A 
ATOM     15  C   UNL     1       2.887   4.795  17.671  0.00  0.00    +0.000 A 
ATOM     16  N   UNL     1       3.562   3.840  16.957  0.00  0.00    +0.000 N 
ATOM     17  C   UNL     1       4.780   4.327  16.547  0.00  0.00    +0.000 A 
ATOM     18  C   UNL     1       5.758   3.749  15.729  0.00  0.00    +0.000 A 
ATOM     19  C   UNL     1       6.930   4.478  15.507  0.00  0.00    +0.000 A 
ATOM     20  C   UNL     1       7.134   5.713  16.119  0.00  0.00    +0.000 A 
ATOM     21  C   UNL     1       6.143   6.276  16.930  0.00  0.00    +0.000 A 
ATOM     22  C   UNL     1       4.925   5.593  17.113  0.00  0.00    +0.000 A 
ATOM     23  H   UNL     1       3.212   2.917  16.740  0.00  0.00    +0.000 HD
ENDBRANCH  13  14
ENDBRANCH   7  13
TORSDOF 3
ENDMDL
MODEL 9
REMARK VINA RESULT:      -8.2      1.265      1.712
REMARK  Name = 
REMARK  4 active torsions:
REMARK  status: ('A' for Active; 'I' for Inactive)
REMARK    1  A    between atoms: C_1  and  C_2
REMARK    2  A    between atoms: C_2  and  C_3
REMARK    3  A    between atoms: C_9  and  C_10
REMARK    4  A    between atoms: C_10  and  C_11
REMARK                            x       y       z     vdW  Elec       q    Type
REMARK                         _______ _______ _______ _____ _____    ______ ____
ROOT
ATOM      1  C   UNL     1       2.025   7.589  20.140  0.00  0.00    +0.000 C 
ATOM      2  C   UNL     1       1.586   6.388  21.017  0.00  0.00    +0.000 C 
ATOM      3  C   UNL     1       1.638   5.045  20.305  0.00  0.00    +0.000 C 
ATOM      4  C   UNL     1       2.937   4.914  19.562  0.00  0.00    +0.000 C 
ATOM      5  O   UNL     1       3.707   3.976  19.730  0.00  0.00    +0.000 OA
ATOM      6  N   UNL     1       3.139   5.929  18.664  0.00  0.00    +0.000 N 
ATOM      7  C   UNL     1       4.299   6.025  17.810  0.00  0.00    +0.000 C 
ATOM      8  C   UNL     1       4.095   7.389  17.156  0.00  0.00    +0.000 C 
ATOM      9  O   UNL     1       3.257   8.122  18.078  0.00  0.00    +0.000 OA
ATOM     10  C   UNL     1       2.393   7.164  18.705  0.00  0.00    +0.000 C 
ENDROOT
BRANCH   1  12
ATOM     11  C   UNL     1       0.009   8.587  21.438  0.00  0.00    +0.000 C 
ATOM     12  C   UNL     1       0.924   8.669  20.229  0.00  0.00    +0.000 C 
ENDBRANCH   1  12
BRANCH   7  13
ATOM     13  C   UNL     1       4.416   4.865  16.797  0.00  0.00    +0.000 C 
BRANCH  13  14
ATOM     14  C   UNL     1       5.593   4.997  15.879  0.00  0.00    +0.000 A 
ATOM     15  C   UNL     1       6.814   5.573  16.176  0.00  0.00    +0.000 A 
ATOM     16  N   UNL     1       7.644   5.400  15.100  0.00  0.00    +0.000 N 
ATOM     17  C   UNL     1       6.993   4.709  14.105  0.00  0.00    +0.000 A 
ATOM     18  C   UNL     1       7.463   4.231  12.876  0.00  0.00    +0.000 A 
ATOM     19  C   UNL     1       6.549   3.582  12.042  0.00  0.00    +0.000 A 
ATOM     20  C   UNL     1       5.209   3.458  12.403  0.00  0.00    +0.000 A 
ATOM     21  C   UNL     1       4.759   3.938  13.636  0.00  0.00    +0.000 A 
ATOM     22  C   UNL     1       5.675   4.535  14.525  0.00  0.00    +0.000 A 
ATOM     23  H   UNL     1       8.604   5.712  15.046  0.00  0.00    +0.000 HD
ENDBRANCH  13  14
ENDBRANCH   7  13
TORSDOF 3
ENDMDL
