MODEL 1
REMARK VINA RESULT:      -7.9      0.000      0.000
REMARK  Name = 
REMARK  2 active torsions:
REMARK  status: ('A' for Active; 'I' for Inactive)
REMARK    1  A    between atoms: C_5  and  N_6
REMARK    2  A    between atoms: N_7  and  C_8
REMARK                            x       y       z     vdW  Elec       q    Type
REMARK                         _______ _______ _______ _____ _____    ______ ____
ROOT
ATOM      1  N   UNL     1       2.034   7.102  20.117  0.00  0.00    +0.000 NA
ATOM      2  N   UNL     1       1.520   8.182  19.758  0.00  0.00    +0.000 NA
ENDROOT
BRANCH   1   7
ATOM      3  C   UNL     1       1.513   2.178  18.839  0.00  0.00    +0.000 A 
ATOM      4  C   UNL     1       0.870   2.994  19.771  0.00  0.00    +0.000 A 
ATOM      5  C   UNL     1       1.214   4.346  19.882  0.00  0.00    +0.000 A 
ATOM      6  C   UNL     1       2.213   4.889  19.051  0.00  0.00    +0.000 A 
ATOM      7  C   UNL     1       2.611   6.236  19.154  0.00  0.00    +0.000 A 
ATOM      8  N   UNL     1       3.591   6.698  18.322  0.00  0.00    +0.000 NA
ATOM      9  N   UNL     1       4.167   5.915  17.414  0.00  0.00    +0.000 NA
ATOM     10  C   UNL     1       3.827   4.613  17.283  0.00  0.00    +0.000 A 
ATOM     11  C   UNL     1       2.847   4.064  18.104  0.00  0.00    +0.000 A 
ATOM     12  C   UNL     1       2.498   2.710  18.001  0.00  0.00    +0.000 A 
ENDBRANCH   1   7
BRANCH   2  13
ATOM     13  C   UNL     1       0.830   9.033  20.673  0.00  0.00    +0.000 C 
ATOM     14  C   UNL     1      -0.048   9.942  20.203  0.00  0.00    +0.000 C 
ATOM     15  C   UNL     1      -0.340  10.205  18.770  0.00  0.00    +0.000 C 
ATOM     16  C   UNL     1      -1.358  11.355  18.839  0.00  0.00    +0.000 C 
ATOM     17  C   UNL     1      -1.322  11.907  20.276  0.00  0.00    +0.000 C 
ATOM     18  N   UNL     1      -0.693  10.870  21.046  0.00  0.00    +0.000 N 
ATOM     19  C   UNL     1      -0.419  10.964  22.467  0.00  0.00    +0.000 C 
ATOM     20  C   UNL     1       0.003   9.588  22.989  0.00  0.00    +0.000 C 
ATOM     21  C   UNL     1       1.158   9.018  22.158  0.00  0.00    +0.000 C 
ENDBRANCH   2  13
TORSDOF 2
ENDMDL
MODEL 2
REMARK VINA RESULT:      -7.8      1.536      7.017
REMARK  Name = 
REMARK  2 active torsions:
REMARK  status: ('A' for Active; 'I' for Inactive)
REMARK    1  A    between atoms: C_5  and  N_6
REMARK    2  A    between atoms: N_7  and  C_8
REMARK                            x       y       z     vdW  Elec       q    Type
REMARK                         _______ _______ _______ _____ _____    ______ ____
ROOT
ATOM      1  N   UNL     1       2.059   7.779  19.921  0.00  0.00    +0.000 NA
ATOM      2  N   UNL     1       2.051   6.925  19.010  0.00  0.00    +0.000 NA
ENDROOT
BRANCH   1   7
ATOM      3  C   UNL     1      -0.821  10.613  23.056  0.00  0.00    +0.000 A 
ATOM      4  C   UNL     1      -0.025   9.484  23.253  0.00  0.00    +0.000 A 
ATOM      5  C   UNL     1       0.687   8.927  22.185  0.00  0.00    +0.000 A 
ATOM      6  C   UNL     1       0.602   9.506  20.904  0.00  0.00    +0.000 A 
ATOM      7  C   UNL     1       1.278   8.956  19.796  0.00  0.00    +0.000 A 
ATOM      8  N   UNL     1       1.148   9.563  18.580  0.00  0.00    +0.000 NA
ATOM      9  N   UNL     1       0.414  10.660  18.417  0.00  0.00    +0.000 NA
ATOM     10  C   UNL     1      -0.260  11.220  19.447  0.00  0.00    +0.000 A 
ATOM     11  C   UNL     1      -0.191  10.652  20.715  0.00  0.00    +0.000 A 
ATOM     12  C   UNL     1      -0.903  11.202  21.790  0.00  0.00    +0.000 A 
ENDBRANCH   1   7
BRANCH   2  13
ATOM     13  C   UNL     1       2.903   5.780  19.038  0.00  0.00    +0.000 C 
ATOM     14  C   UNL     1       2.521   4.684  19.725  0.00  0.00    +0.000 C 
ATOM     15  C   UNL     1       1.284   4.559  20.540  0.00  0.00    +0.000 C 
ATOM     16  C   UNL     1       1.403   3.138  21.116  0.00  0.00    +0.000 C 
ATOM     17  C   UNL     1       2.853   2.673  20.881  0.00  0.00    +0.000 C 
ATOM     18  N   UNL     1       3.355   3.556  19.865  0.00  0.00    +0.000 N 
ATOM     19  C   UNL     1       4.707   3.508  19.341  0.00  0.00    +0.000 C 
ATOM     20  C   UNL     1       4.798   4.404  18.103  0.00  0.00    +0.000 C 
ATOM     21  C   UNL     1       4.288   5.817  18.411  0.00  0.00    +0.000 C 
ENDBRANCH   2  13
TORSDOF 2
ENDMDL
MODEL 3
REMARK VINA RESULT:      -7.8      1.572      7.388
REMARK  Name = 
REMARK  2 active torsions:
REMARK  status: ('A' for Active; 'I' for Inactive)
REMARK    1  A    between atoms: C_5  and  N_6
REMARK    2  A    between atoms: N_7  and  C_8
REMARK                            x       y       z     vdW  Elec       q    Type
REMARK                         _______ _______ _______ _____ _____    ______ ____
ROOT
ATOM      1  N   UNL     1       1.856   8.164  20.359  0.00  0.00    +0.000 NA
ATOM      2  N   UNL     1       1.751   6.929  20.512  0.00  0.00    +0.000 NA
ENDROOT
BRANCH   1   7
ATOM      3  C   UNL     1      -1.550  11.803  19.215  0.00  0.00    +0.000 A 
ATOM      4  C   UNL     1      -0.794  10.926  18.436  0.00  0.00    +0.000 A 
ATOM      5  C   UNL     1       0.057   9.996  19.043  0.00  0.00    +0.000 A 
ATOM      6  C   UNL     1       0.154   9.942  20.447  0.00  0.00    +0.000 A 
ATOM      7  C   UNL     1       1.023   9.043  21.096  0.00  0.00    +0.000 A 
ATOM      8  N   UNL     1       1.073   9.046  22.461  0.00  0.00    +0.000 NA
ATOM      9  N   UNL     1       0.318   9.864  23.189  0.00  0.00    +0.000 NA
ATOM     10  C   UNL     1      -0.524  10.751  22.613  0.00  0.00    +0.000 A 
ATOM     11  C   UNL     1      -0.621  10.820  21.227  0.00  0.00    +0.000 A 
ATOM     12  C   UNL     1      -1.470  11.751  20.611  0.00  0.00    +0.000 A 
ENDBRANCH   1   7
BRANCH   2  13
ATOM     13  C   UNL     1       2.488   6.003  19.715  0.00  0.00    +0.000 C 
ATOM     14  C   UNL     1       2.604   4.721  20.120  0.00  0.00    +0.000 C 
ATOM     15  C   UNL     1       2.077   4.164  21.393  0.00  0.00    +0.000 C 
ATOM     16  C   UNL     1       2.544   2.700  21.338  0.00  0.00    +0.000 C 
ATOM     17  C   UNL     1       3.596   2.601  20.217  0.00  0.00    +0.000 C 
ATOM     18  N   UNL     1       3.391   3.781  19.424  0.00  0.00    +0.000 N 
ATOM     19  C   UNL     1       4.186   4.128  18.261  0.00  0.00    +0.000 C 
ATOM     20  C   UNL     1       3.516   5.291  17.525  0.00  0.00    +0.000 C 
ATOM     21  C   UNL     1       3.247   6.461  18.479  0.00  0.00    +0.000 C 
ENDBRANCH   2  13
TORSDOF 2
ENDMDL
MODEL 4
REMARK VINA RESULT:      -7.6      1.081      2.405
REMARK  Name = 
REMARK  2 active torsions:
REMARK  status: ('A' for Active; 'I' for Inactive)
REMARK    1  A    between atoms: C_5  and  N_6
REMARK    2  A    between atoms: N_7  and  C_8
REMARK                            x       y       z     vdW  Elec       q    Type
REMARK                         _______ _______ _______ _____ _____    ______ ____
ROOT
ATOM      1  N   UNL     1       2.261   7.226  18.106  0.00  0.00    +0.000 NA
ATOM      2  N   UNL     1       2.235   7.920  19.143  0.00  0.00    +0.000 NA
ENDROOT
BRANCH   1   7
ATOM      3  C   UNL     1       2.425   2.115  18.022  0.00  0.00    +0.000 A 
ATOM      4  C   UNL     1       1.381   3.033  18.142  0.00  0.00    +0.000 A 
ATOM      5  C   UNL     1       1.642   4.407  18.104  0.00  0.00    +0.000 A 
ATOM      6  C   UNL     1       2.963   4.870  17.944  0.00  0.00    +0.000 A 
ATOM      7  C   UNL     1       3.270   6.244  17.934  0.00  0.00    +0.000 A 
ATOM      8  N   UNL     1       4.573   6.625  17.781  0.00  0.00    +0.000 NA
ATOM      9  N   UNL     1       5.551   5.737  17.631  0.00  0.00    +0.000 NA
ATOM     10  C   UNL     1       5.308   4.407  17.644  0.00  0.00    +0.000 A 
ATOM     11  C   UNL     1       4.008   3.938  17.810  0.00  0.00    +0.000 A 
ATOM     12  C   UNL     1       3.739   2.563  17.851  0.00  0.00    +0.000 A 
ENDBRANCH   1   7
BRANCH   2  13
ATOM     13  C   UNL     1       1.308   8.992  19.313  0.00  0.00    +0.000 C 
ATOM     14  C   UNL     1       0.905   9.332  20.554  0.00  0.00    +0.000 C 
ATOM     15  C   UNL     1       1.289   8.639  21.811  0.00  0.00    +0.000 C 
ATOM     16  C   UNL     1       0.503   9.417  22.879  0.00  0.00    +0.000 C 
ATOM     17  C   UNL     1      -0.543  10.273  22.139  0.00  0.00    +0.000 C 
ATOM     18  N   UNL     1      -0.074  10.321  20.781  0.00  0.00    +0.000 N 
ATOM     19  C   UNL     1      -0.768  11.004  19.705  0.00  0.00    +0.000 C 
ATOM     20  C   UNL     1       0.149  11.072  18.481  0.00  0.00    +0.000 C 
ATOM     21  C   UNL     1       0.675   9.679  18.113  0.00  0.00    +0.000 C 
ENDBRANCH   2  13
TORSDOF 2
ENDMDL
MODEL 5
REMARK VINA RESULT:      -7.4      1.246      2.354
REMARK  Name = 
REMARK  2 active torsions:
REMARK  status: ('A' for Active; 'I' for Inactive)
REMARK    1  A    between atoms: C_5  and  N_6
REMARK    2  A    between atoms: N_7  and  C_8
REMARK                            x       y       z     vdW  Elec       q    Type
REMARK                         _______ _______ _______ _____ _____    ______ ____
ROOT
ATOM      1  N   UNL     1       2.160   7.115  18.799  0.00  0.00    +0.000 NA
ATOM      2  N   UNL     1       2.085   7.901  19.766  0.00  0.00    +0.000 NA
ENDROOT
BRANCH   1   7
ATOM      3  C   UNL     1       2.227   2.506  21.013  0.00  0.00    +0.000 A 
ATOM      4  C   UNL     1       1.276   3.526  20.963  0.00  0.00    +0.000 A 
ATOM      5  C   UNL     1       1.532   4.695  20.239  0.00  0.00    +0.000 A 
ATOM      6  C   UNL     1       2.754   4.847  19.556  0.00  0.00    +0.000 A 
ATOM      7  C   UNL     1       3.063   6.022  18.842  0.00  0.00    +0.000 A 
ATOM      8  N   UNL     1       4.268   6.108  18.207  0.00  0.00    +0.000 NA
ATOM      9  N   UNL     1       5.148   5.111  18.234  0.00  0.00    +0.000 NA
ATOM     10  C   UNL     1       4.902   3.967  18.912  0.00  0.00    +0.000 A 
ATOM     11  C   UNL     1       3.702   3.809  19.599  0.00  0.00    +0.000 A 
ATOM     12  C   UNL     1       3.440   2.642  20.329  0.00  0.00    +0.000 A 
ENDBRANCH   1   7
BRANCH   2  13
ATOM     13  C   UNL     1       1.275   9.076  19.725  0.00  0.00    +0.000 C 
ATOM     14  C   UNL     1       0.707   9.532  20.860  0.00  0.00    +0.000 C 
ATOM     15  C   UNL     1       0.788   8.880  22.193  0.00  0.00    +0.000 C 
ATOM     16  C   UNL     1      -0.074   9.802  23.072  0.00  0.00    +0.000 C 
ATOM     17  C   UNL     1      -0.870  10.718  22.124  0.00  0.00    +0.000 C 
ATOM     18  N   UNL     1      -0.174  10.633  20.870  0.00  0.00    +0.000 N 
ATOM     19  C   UNL     1      -0.589  11.320  19.661  0.00  0.00    +0.000 C 
ATOM     20  C   UNL     1       0.526  11.213  18.617  0.00  0.00    +0.000 C 
ATOM     21  C   UNL     1       0.940   9.752  18.405  0.00  0.00    +0.000 C 
ENDBRANCH   2  13
TORSDOF 2
ENDMDL
MODEL 6
REMARK VINA RESULT:      -7.4      1.154      1.154
REMARK  Name = 
REMARK  2 active torsions:
REMARK  status: ('A' for Active; 'I' for Inactive)
REMARK    1  A    between atoms: C_5  and  N_6
REMARK    2  A    between atoms: N_7  and  C_8
REMARK                            x       y       z     vdW  Elec       q    Type
REMARK                         _______ _______ _______ _____ _____    ______ ____
ROOT
ATOM      1  N   UNL     1       1.564   7.085  20.379  0.00  0.00    +0.000 NA
ATOM      2  N   UNL     1       1.782   8.309  20.500  0.00  0.00    +0.000 NA
ENDROOT
BRANCH   1   7
ATOM      3  C   UNL     1       3.339   2.305  20.776  0.00  0.00    +0.000 A 
ATOM      4  C   UNL     1       2.399   3.037  21.503  0.00  0.00    +0.000 A 
ATOM      5  C   UNL     1       2.090   4.351  21.137  0.00  0.00    +0.000 A 
ATOM      6  C   UNL     1       2.728   4.942  20.029  0.00  0.00    +0.000 A 
ATOM      7  C   UNL     1       2.469   6.273  19.648  0.00  0.00    +0.000 A 
ATOM      8  N   UNL     1       3.126   6.788  18.567  0.00  0.00    +0.000 NA
ATOM      9  N   UNL     1       3.992   6.064  17.863  0.00  0.00    +0.000 NA
ATOM     10  C   UNL     1       4.282   4.786  18.194  0.00  0.00    +0.000 A 
ATOM     11  C   UNL     1       3.664   4.194  19.292  0.00  0.00    +0.000 A 
ATOM     12  C   UNL     1       3.971   2.879  19.667  0.00  0.00    +0.000 A 
ENDBRANCH   1   7
BRANCH   2  13
ATOM     13  C   UNL     1       0.847   9.184  21.130  0.00  0.00    +0.000 C 
ATOM     14  C   UNL     1       0.074   9.988  20.372  0.00  0.00    +0.000 C 
ATOM     15  C   UNL     1       0.139  10.110  18.892  0.00  0.00    +0.000 C 
ATOM     16  C   UNL     1      -0.916  11.189  18.597  0.00  0.00    +0.000 C 
ATOM     17  C   UNL     1      -1.266  11.861  19.938  0.00  0.00    +0.000 C 
ATOM     18  N   UNL     1      -0.803  10.937  20.936  0.00  0.00    +0.000 N 
ATOM     19  C   UNL     1      -0.898  11.169  22.365  0.00  0.00    +0.000 C 
ATOM     20  C   UNL     1      -0.558   9.873  23.107  0.00  0.00    +0.000 C 
ATOM     21  C   UNL     1       0.793   9.316  22.644  0.00  0.00    +0.000 C 
ENDBRANCH   2  13
TORSDOF 2
ENDMDL
MODEL 7
REMARK VINA RESULT:      -7.4      1.681      3.428
REMARK  Name = 
REMARK  2 active torsions:
REMARK  status: ('A' for Active; 'I' for Inactive)
REMARK    1  A    between atoms: C_5  and  N_6
REMARK    2  A    between atoms: N_7  and  C_8
REMARK                            x       y       z     vdW  Elec       q    Type
REMARK                         _______ _______ _______ _____ _____    ______ ____
ROOT
ATOM      1  N   UNL     1       2.566   7.390  18.412  0.00  0.00    +0.000 NA
ATOM      2  N   UNL     1       1.883   7.771  19.385  0.00  0.00    +0.000 NA
ENDROOT
BRANCH   1   7
ATOM      3  C   UNL     1       5.876   4.817  15.484  0.00  0.00    +0.000 A 
ATOM      4  C   UNL     1       5.445   6.144  15.495  0.00  0.00    +0.000 A 
ATOM      5  C   UNL     1       4.527   6.580  16.457  0.00  0.00    +0.000 A 
ATOM      6  C   UNL     1       4.032   5.678  17.418  0.00  0.00    +0.000 A 
ATOM      7  C   UNL     1       3.083   6.069  18.382  0.00  0.00    +0.000 A 
ATOM      8  N   UNL     1       2.640   5.143  19.283  0.00  0.00    +0.000 NA
ATOM      9  N   UNL     1       3.088   3.891  19.280  0.00  0.00    +0.000 NA
ATOM     10  C   UNL     1       3.992   3.465  18.370  0.00  0.00    +0.000 A 
ATOM     11  C   UNL     1       4.481   4.345  17.409  0.00  0.00    +0.000 A 
ATOM     12  C   UNL     1       5.400   3.915  16.441  0.00  0.00    +0.000 A 
ENDBRANCH   1   7
BRANCH   2  13
ATOM     13  C   UNL     1       1.435   9.120  19.514  0.00  0.00    +0.000 C 
ATOM     14  C   UNL     1       0.886   9.531  20.675  0.00  0.00    +0.000 C 
ATOM     15  C   UNL     1       0.630   8.677  21.863  0.00  0.00    +0.000 C 
ATOM     16  C   UNL     1      -0.043   9.653  22.842  0.00  0.00    +0.000 C 
ATOM     17  C   UNL     1      -0.442  10.902  22.034  0.00  0.00    +0.000 C 
ATOM     18  N   UNL     1       0.345  10.824  20.835  0.00  0.00    +0.000 N 
ATOM     19  C   UNL     1       0.277  11.787  19.752  0.00  0.00    +0.000 C 
ATOM     20  C   UNL     1       1.433  11.533  18.781  0.00  0.00    +0.000 C 
ATOM     21  C   UNL     1       1.454  10.069  18.325  0.00  0.00    +0.000 C 
ENDBRANCH   2  13
TORSDOF 2
ENDMDL
MODEL 8
REMARK VINA RESULT:      -7.3      1.479      7.119
REMARK  Name = 
REMARK  2 active torsions:
REMARK  status: ('A' for Active; 'I' for Inactive)
REMARK    1  A    between atoms: C_5  and  N_6
REMARK    2  A    between atoms: N_7  and  C_8
REMARK                            x       y       z     vdW  Elec       q    Type
REMARK                         _______ _______ _______ _____ _____    ______ ____
ROOT
ATOM      1  N   UNL     1       2.300   8.147  18.784  0.00  0.00    +0.000 NA
ATOM      2  N   UNL     1       2.090   7.091  18.150  0.00  0.00    +0.000 NA
ENDROOT
BRANCH   1   7
ATOM      3  C   UNL     1      -0.143   9.945  22.901  0.00  0.00    +0.000 A 
ATOM      4  C   UNL     1       0.942   9.084  22.737  0.00  0.00    +0.000 A 
ATOM      5  C   UNL     1       1.421   8.786  21.457  0.00  0.00    +0.000 A 
ATOM      6  C   UNL     1       0.806   9.356  20.325  0.00  0.00    +0.000 A 
ATOM      7  C   UNL     1       1.237   9.056  19.018  0.00  0.00    +0.000 A 
ATOM      8  N   UNL     1       0.593   9.639  17.964  0.00  0.00    +0.000 NA
ATOM      9  N   UNL     1      -0.416  10.486  18.139  0.00  0.00    +0.000 NA
ATOM     10  C   UNL     1      -0.873  10.799  19.373  0.00  0.00    +0.000 A 
ATOM     11  C   UNL     1      -0.279  10.234  20.498  0.00  0.00    +0.000 A 
ATOM     12  C   UNL     1      -0.754  10.526  21.784  0.00  0.00    +0.000 A 
ENDBRANCH   1   7
BRANCH   2  13
ATOM     13  C   UNL     1       3.147   6.200  17.794  0.00  0.00    +0.000 C 
ATOM     14  C   UNL     1       2.919   4.871  17.781  0.00  0.00    +0.000 C 
ATOM     15  C   UNL     1       1.651   4.204  18.173  0.00  0.00    +0.000 C 
ATOM     16  C   UNL     1       1.989   2.713  18.009  0.00  0.00    +0.000 C 
ATOM     17  C   UNL     1       3.519   2.607  17.871  0.00  0.00    +0.000 C 
ATOM     18  N   UNL     1       3.943   3.936  17.525  0.00  0.00    +0.000 N 
ATOM     19  C   UNL     1       5.327   4.321  17.321  0.00  0.00    +0.000 C 
ATOM     20  C   UNL     1       5.373   5.724  16.709  0.00  0.00    +0.000 C 
ATOM     21  C   UNL     1       4.557   6.714  17.550  0.00  0.00    +0.000 C 
ENDBRANCH   2  13
TORSDOF 2
ENDMDL
MODEL 9
REMARK VINA RESULT:      -7.3      1.549      7.075
REMARK  Name = 
REMARK  2 active torsions:
REMARK  status: ('A' for Active; 'I' for Inactive)
REMARK    1  A    between atoms: C_5  and  N_6
REMARK    2  A    between atoms: N_7  and  C_8
REMARK                            x       y       z     vdW  Elec       q    Type
REMARK                         _______ _______ _______ _____ _____    ______ ____
ROOT
ATOM      1  N   UNL     1       1.895   7.810  19.765  0.00  0.00    +0.000 NA
ATOM      2  N   UNL     1       2.324   7.297  18.711  0.00  0.00    +0.000 NA
ENDROOT
BRANCH   1   7
ATOM      3  C   UNL     1      -0.819  10.700  22.996  0.00  0.00    +0.000 A 
ATOM      4  C   UNL     1      -0.267   9.422  23.094  0.00  0.00    +0.000 A 
ATOM      5  C   UNL     1       0.467   8.887  22.030  0.00  0.00    +0.000 A 
ATOM      6  C   UNL     1       0.652   9.638  20.853  0.00  0.00    +0.000 A 
ATOM      7  C   UNL     1       1.356   9.122  19.748  0.00  0.00    +0.000 A 
ATOM      8  N   UNL     1       1.495   9.901  18.634  0.00  0.00    +0.000 NA
ATOM      9  N   UNL     1       0.993  11.131  18.572  0.00  0.00    +0.000 NA
ATOM     10  C   UNL     1       0.301  11.667  19.602  0.00  0.00    +0.000 A 
ATOM     11  C   UNL     1       0.105  10.931  20.767  0.00  0.00    +0.000 A 
ATOM     12  C   UNL     1      -0.632  11.459  21.836  0.00  0.00    +0.000 A 
ENDBRANCH   1   7
BRANCH   2  13
ATOM     13  C   UNL     1       2.974   6.027  18.698  0.00  0.00    +0.000 C 
ATOM     14  C   UNL     1       4.014   5.821  17.864  0.00  0.00    +0.000 C 
ATOM     15  C   UNL     1       4.537   6.796  16.873  0.00  0.00    +0.000 C 
ATOM     16  C   UNL     1       5.668   6.009  16.190  0.00  0.00    +0.000 C 
ATOM     17  C   UNL     1       5.494   4.530  16.585  0.00  0.00    +0.000 C 
ATOM     18  N   UNL     1       4.641   4.563  17.741  0.00  0.00    +0.000 N 
ATOM     19  C   UNL     1       4.180   3.382  18.446  0.00  0.00    +0.000 C 
ATOM     20  C   UNL     1       3.524   3.808  19.762  0.00  0.00    +0.000 C 
ATOM     21  C   UNL     1       2.438   4.863  19.517  0.00  0.00    +0.000 C 
ENDBRANCH   2  13
TORSDOF 2
ENDMDL
