MODEL 1
REMARK VINA RESULT:      -5.9      0.000      0.000
REMARK  Name = 
REMARK  8 active torsions:
REMARK  status: ('A' for Active; 'I' for Inactive)
REMARK    1  A    between atoms: C_1  and  O_2
REMARK    2  A    between atoms: O_2  and  C_3
REMARK    3  A    between atoms: C_9  and  C_10
REMARK    4  A    between atoms: C_10  and  N_11
REMARK    5  A    between atoms: N_11  and  C_12
REMARK    6  A    between atoms: C_12  and  C_13
REMARK    7  A    between atoms: C_13  and  C_14
REMARK    8  A    between atoms: C_13  and  O_15
REMARK                            x       y       z     vdW  Elec       q    Type
REMARK                         _______ _______ _______ _____ _____    ______ ____
ROOT
ATOM      1  C   UNL     1       2.890   5.672  18.630  0.00  0.00    +0.000 A 
ATOM      2  C   UNL     1       2.252   6.077  19.811  0.00  0.00    +0.000 A 
ATOM      3  C   UNL     1       1.814   5.132  20.741  0.00  0.00    +0.000 A 
ATOM      4  C   UNL     1       2.003   3.779  20.494  0.00  0.00    +0.000 A 
ATOM      5 CL   UNL     1       1.475   2.616  21.646  0.00  0.00    +0.000 Cl
ATOM      6  C   UNL     1       2.612   3.360  19.314  0.00  0.00    +0.000 A 
ATOM      7  C   UNL     1       3.060   4.298  18.364  0.00  0.00    +0.000 A 
ENDROOT
BRANCH   1   9
ATOM      8  C   UNL     1       2.923   7.899  17.807  0.00  0.00    +0.000 C 
ATOM      9  O   UNL     1       3.362   6.546  17.686  0.00  0.00    +0.000 OA
ENDBRANCH   1   9
BRANCH   7  10
ATOM     10  C   UNL     1       3.687   3.781  17.083  0.00  0.00    +0.000 C 
BRANCH  10  11
ATOM     11  N   UNL     1       5.094   3.383  17.196  0.00  0.00    +0.000 NA
ATOM     12  H   UNL     1       5.201   2.561  16.598  0.00  0.00    +0.000 HD
BRANCH  11  13
ATOM     13  C   UNL     1       6.020   4.435  16.744  0.00  0.00    +0.000 C 
BRANCH  13  14
ATOM     14  C   UNL     1       7.035   4.789  17.853  0.00  0.00    +0.000 C 
ATOM     15  C   UNL     1       7.385   6.272  17.900  0.00  0.00    +0.000 C 
BRANCH  14  16
ATOM     16  O   UNL     1       8.240   4.049  17.648  0.00  0.00    +0.000 OA
ATOM     17  H   UNL     1       8.030   3.140  17.942  0.00  0.00    +0.000 HD
ENDBRANCH  14  16
ENDBRANCH  13  14
ENDBRANCH  11  13
ENDBRANCH  10  11
ENDBRANCH   7  10
TORSDOF 6
ENDMDL
MODEL 2
REMARK VINA RESULT:      -5.9      2.289      3.082
REMARK  Name = 
REMARK  8 active torsions:
REMARK  status: ('A' for Active; 'I' for Inactive)
REMARK    1  A    between atoms: C_1  and  O_2
REMARK    2  A    between atoms: O_2  and  C_3
REMARK    3  A    between atoms: C_9  and  C_10
REMARK    4  A    between atoms: C_10  and  N_11
REMARK    5  A    between atoms: N_11  and  C_12
REMARK    6  A    between atoms: C_12  and  C_13
REMARK    7  A    between atoms: C_13  and  C_14
REMARK    8  A    between atoms: C_13  and  O_15
REMARK                            x       y       z     vdW  Elec       q    Type
REMARK                         _______ _______ _______ _____ _____    ______ ____
ROOT
ATOM      1  C   UNL     1       3.460   3.935  19.394  0.00  0.00    +0.000 A 
ATOM      2  C   UNL     1       2.479   4.338  20.310  0.00  0.00    +0.000 A 
ATOM      3  C   UNL     1       2.000   5.649  20.306  0.00  0.00    +0.000 A 
ATOM      4  C   UNL     1       2.502   6.567  19.394  0.00  0.00    +0.000 A 
ATOM      5 CL   UNL     1       1.902   8.178  19.380  0.00  0.00    +0.000 Cl
ATOM      6  C   UNL     1       3.495   6.188  18.494  0.00  0.00    +0.000 A 
ATOM      7  C   UNL     1       3.992   4.871  18.483  0.00  0.00    +0.000 A 
ENDROOT
BRANCH   1   9
ATOM      8  C   UNL     1       3.168   1.710  18.618  0.00  0.00    +0.000 C 
ATOM      9  O   UNL     1       3.960   2.660  19.330  0.00  0.00    +0.000 OA
ENDBRANCH   1   9
BRANCH   7  10
ATOM     10  C   UNL     1       5.095   4.526  17.502  0.00  0.00    +0.000 C 
BRANCH  10  11
ATOM     11  N   UNL     1       6.327   4.008  18.107  0.00  0.00    +0.000 NA
ATOM     12  H   UNL     1       6.461   3.075  17.713  0.00  0.00    +0.000 HD
BRANCH  11  13
ATOM     13  C   UNL     1       7.504   4.837  17.801  0.00  0.00    +0.000 C 
BRANCH  13  14
ATOM     14  C   UNL     1       7.431   6.191  18.539  0.00  0.00    +0.000 C 
ATOM     15  C   UNL     1       7.644   7.391  17.622  0.00  0.00    +0.000 C 
BRANCH  14  16
ATOM     16  O   UNL     1       8.425   6.228  19.564  0.00  0.00    +0.000 OA
ATOM     17  H   UNL     1       8.128   6.929  20.178  0.00  0.00    +0.000 HD
ENDBRANCH  14  16
ENDBRANCH  13  14
ENDBRANCH  11  13
ENDBRANCH  10  11
ENDBRANCH   7  10
TORSDOF 6
ENDMDL
MODEL 3
REMARK VINA RESULT:      -5.9      1.175      1.207
REMARK  Name = 
REMARK  8 active torsions:
REMARK  status: ('A' for Active; 'I' for Inactive)
REMARK    1  A    between atoms: C_1  and  O_2
REMARK    2  A    between atoms: O_2  and  C_3
REMARK    3  A    between atoms: C_9  and  C_10
REMARK    4  A    between atoms: C_10  and  N_11
REMARK    5  A    between atoms: N_11  and  C_12
REMARK    6  A    between atoms: C_12  and  C_13
REMARK    7  A    between atoms: C_13  and  C_14
REMARK    8  A    between atoms: C_13  and  O_15
REMARK                            x       y       z     vdW  Elec       q    Type
REMARK                         _______ _______ _______ _____ _____    ______ ____
ROOT
ATOM      1  C   UNL     1       3.254   5.678  18.909  0.00  0.00    +0.000 A 
ATOM      2  C   UNL     1       2.317   6.049  19.883  0.00  0.00    +0.000 A 
ATOM      3  C   UNL     1       1.779   5.097  20.750  0.00  0.00    +0.000 A 
ATOM      4  C   UNL     1       2.168   3.768  20.646  0.00  0.00    +0.000 A 
ATOM      5 CL   UNL     1       1.516   2.597  21.723  0.00  0.00    +0.000 Cl
ATOM      6  C   UNL     1       3.080   3.379  19.667  0.00  0.00    +0.000 A 
ATOM      7  C   UNL     1       3.632   4.325  18.783  0.00  0.00    +0.000 A 
ENDROOT
BRANCH   1   9
ATOM      8  C   UNL     1       3.107   7.764  17.784  0.00  0.00    +0.000 C 
ATOM      9  O   UNL     1       3.836   6.564  18.040  0.00  0.00    +0.000 OA
ENDBRANCH   1   9
BRANCH   7  10
ATOM     10  C   UNL     1       4.595   3.837  17.718  0.00  0.00    +0.000 C 
BRANCH  10  11
ATOM     11  N   UNL     1       6.009   4.137  17.973  0.00  0.00    +0.000 NA
ATOM     12  H   UNL     1       6.419   3.270  18.324  0.00  0.00    +0.000 HD
BRANCH  11  13
ATOM     13  C   UNL     1       6.729   4.556  16.759  0.00  0.00    +0.000 C 
BRANCH  13  14
ATOM     14  C   UNL     1       7.211   6.018  16.882  0.00  0.00    +0.000 C 
ATOM     15  C   UNL     1       7.544   6.426  18.313  0.00  0.00    +0.000 C 
BRANCH  14  16
ATOM     16  O   UNL     1       6.196   6.895  16.390  0.00  0.00    +0.000 OA
ATOM     17  H   UNL     1       5.392   6.341  16.330  0.00  0.00    +0.000 HD
ENDBRANCH  14  16
ENDBRANCH  13  14
ENDBRANCH  11  13
ENDBRANCH  10  11
ENDBRANCH   7  10
TORSDOF 6
ENDMDL
MODEL 4
REMARK VINA RESULT:      -5.9      1.718      2.099
REMARK  Name = 
REMARK  8 active torsions:
REMARK  status: ('A' for Active; 'I' for Inactive)
REMARK    1  A    between atoms: C_1  and  O_2
REMARK    2  A    between atoms: O_2  and  C_3
REMARK    3  A    between atoms: C_9  and  C_10
REMARK    4  A    between atoms: C_10  and  N_11
REMARK    5  A    between atoms: N_11  and  C_12
REMARK    6  A    between atoms: C_12  and  C_13
REMARK    7  A    between atoms: C_13  and  C_14
REMARK    8  A    between atoms: C_13  and  O_15
REMARK                            x       y       z     vdW  Elec       q    Type
REMARK                         _______ _______ _______ _____ _____    ______ ____
ROOT
ATOM      1  C   UNL     1       3.331   5.758  18.117  0.00  0.00    +0.000 A 
ATOM      2  C   UNL     1       2.003   5.389  17.861  0.00  0.00    +0.000 A 
ATOM      3  C   UNL     1       1.523   4.143  18.266  0.00  0.00    +0.000 A 
ATOM      4  C   UNL     1       2.366   3.255  18.920  0.00  0.00    +0.000 A 
ATOM      5 CL   UNL     1       1.771   1.725  19.430  0.00  0.00    +0.000 Cl
ATOM      6  C   UNL     1       3.695   3.598  19.159  0.00  0.00    +0.000 A 
ATOM      7  C   UNL     1       4.197   4.850  18.758  0.00  0.00    +0.000 A 
ENDROOT
BRANCH   1   9
ATOM      8  C   UNL     1       2.965   8.084  17.803  0.00  0.00    +0.000 C 
ATOM      9  O   UNL     1       3.861   6.973  17.765  0.00  0.00    +0.000 OA
ENDBRANCH   1   9
BRANCH   7  10
ATOM     10  C   UNL     1       5.661   5.154  19.016  0.00  0.00    +0.000 C 
BRANCH  10  11
ATOM     11  N   UNL     1       6.605   4.172  18.474  0.00  0.00    +0.000 NA
ATOM     12  H   UNL     1       6.033   3.438  18.051  0.00  0.00    +0.000 HD
BRANCH  11  13
ATOM     13  C   UNL     1       7.495   4.743  17.449  0.00  0.00    +0.000 C 
BRANCH  13  14
ATOM     14  C   UNL     1       6.717   5.039  16.148  0.00  0.00    +0.000 C 
ATOM     15  C   UNL     1       5.973   3.826  15.600  0.00  0.00    +0.000 C 
BRANCH  14  16
ATOM     16  O   UNL     1       7.626   5.499  15.146  0.00  0.00    +0.000 OA
ATOM     17  H   UNL     1       8.077   6.268  15.550  0.00  0.00    +0.000 HD
ENDBRANCH  14  16
ENDBRANCH  13  14
ENDBRANCH  11  13
ENDBRANCH  10  11
ENDBRANCH   7  10
TORSDOF 6
ENDMDL
MODEL 5
REMARK VINA RESULT:      -5.9      3.108      5.645
REMARK  Name = 
REMARK  8 active torsions:
REMARK  status: ('A' for Active; 'I' for Inactive)
REMARK    1  A    between atoms: C_1  and  O_2
REMARK    2  A    between atoms: O_2  and  C_3
REMARK    3  A    between atoms: C_9  and  C_10
REMARK    4  A    between atoms: C_10  and  N_11
REMARK    5  A    between atoms: N_11  and  C_12
REMARK    6  A    between atoms: C_12  and  C_13
REMARK    7  A    between atoms: C_13  and  C_14
REMARK    8  A    between atoms: C_13  and  O_15
REMARK                            x       y       z     vdW  Elec       q    Type
REMARK                         _______ _______ _______ _____ _____    ______ ____
ROOT
ATOM      1  C   UNL     1       6.403   4.631  18.006  0.00  0.00    +0.000 A 
ATOM      2  C   UNL     1       7.381   4.754  17.009  0.00  0.00    +0.000 A 
ATOM      3  C   UNL     1       7.058   4.541  15.668  0.00  0.00    +0.000 A 
ATOM      4  C   UNL     1       5.761   4.196  15.315  0.00  0.00    +0.000 A 
ATOM      5 CL   UNL     1       5.360   3.946  13.661  0.00  0.00    +0.000 Cl
ATOM      6  C   UNL     1       4.784   4.045  16.296  0.00  0.00    +0.000 A 
ATOM      7  C   UNL     1       5.091   4.255  17.654  0.00  0.00    +0.000 A 
ENDROOT
BRANCH   1   9
ATOM      8  C   UNL     1       7.774   5.667  19.646  0.00  0.00    +0.000 C 
ATOM      9  O   UNL     1       6.647   4.846  19.338  0.00  0.00    +0.000 OA
ENDBRANCH   1   9
BRANCH   7  10
ATOM     10  C   UNL     1       3.994   4.045  18.680  0.00  0.00    +0.000 C 
BRANCH  10  11
ATOM     11  N   UNL     1       3.815   5.145  19.634  0.00  0.00    +0.000 NA
ATOM     12  H   UNL     1       3.801   6.000  19.075  0.00  0.00    +0.000 HD
BRANCH  11  13
ATOM     13  C   UNL     1       2.558   5.041  20.393  0.00  0.00    +0.000 C 
BRANCH  13  14
ATOM     14  C   UNL     1       2.211   3.565  20.685  0.00  0.00    +0.000 C 
ATOM     15  C   UNL     1       0.838   3.153  20.168  0.00  0.00    +0.000 C 
BRANCH  14  16
ATOM     16  O   UNL     1       2.246   3.339  22.096  0.00  0.00    +0.000 OA
ATOM     17  H   UNL     1       1.604   2.618  22.252  0.00  0.00    +0.000 HD
ENDBRANCH  14  16
ENDBRANCH  13  14
ENDBRANCH  11  13
ENDBRANCH  10  11
ENDBRANCH   7  10
TORSDOF 6
ENDMDL
MODEL 6
REMARK VINA RESULT:      -5.9      3.347      5.283
REMARK  Name = 
REMARK  8 active torsions:
REMARK  status: ('A' for Active; 'I' for Inactive)
REMARK    1  A    between atoms: C_1  and  O_2
REMARK    2  A    between atoms: O_2  and  C_3
REMARK    3  A    between atoms: C_9  and  C_10
REMARK    4  A    between atoms: C_10  and  N_11
REMARK    5  A    between atoms: N_11  and  C_12
REMARK    6  A    between atoms: C_12  and  C_13
REMARK    7  A    between atoms: C_13  and  C_14
REMARK    8  A    between atoms: C_13  and  O_15
REMARK                            x       y       z     vdW  Elec       q    Type
REMARK                         _______ _______ _______ _____ _____    ______ ____
ROOT
ATOM      1  C   UNL     1       4.430   3.364  19.193  0.00  0.00    +0.000 A 
ATOM      2  C   UNL     1       5.343   4.421  19.297  0.00  0.00    +0.000 A 
ATOM      3  C   UNL     1       5.594   5.253  18.205  0.00  0.00    +0.000 A 
ATOM      4  C   UNL     1       4.940   5.030  17.001  0.00  0.00    +0.000 A 
ATOM      5 CL   UNL     1       5.239   6.064  15.659  0.00  0.00    +0.000 Cl
ATOM      6  C   UNL     1       4.049   3.968  16.874  0.00  0.00    +0.000 A 
ATOM      7  C   UNL     1       3.784   3.118  17.964  0.00  0.00    +0.000 A 
ENDROOT
BRANCH   1   9
ATOM      8  C   UNL     1       5.141   1.597  20.612  0.00  0.00    +0.000 C 
ATOM      9  O   UNL     1       4.123   2.522  20.230  0.00  0.00    +0.000 OA
ENDBRANCH   1   9
BRANCH   7  10
ATOM     10  C   UNL     1       2.828   1.959  17.757  0.00  0.00    +0.000 C 
BRANCH  10  11
ATOM     11  N   UNL     1       1.822   1.785  18.810  0.00  0.00    +0.000 NA
ATOM     12  H   UNL     1       2.342   1.740  19.689  0.00  0.00    +0.000 HD
BRANCH  11  13
ATOM     13  C   UNL     1       0.865   2.902  18.873  0.00  0.00    +0.000 C 
BRANCH  13  14
ATOM     14  C   UNL     1       0.769   3.466  20.307  0.00  0.00    +0.000 C 
ATOM     15  C   UNL     1       1.420   4.836  20.463  0.00  0.00    +0.000 C 
BRANCH  14  16
ATOM     16  O   UNL     1       1.402   2.562  21.215  0.00  0.00    +0.000 OA
ATOM     17  H   UNL     1       0.671   2.191  21.750  0.00  0.00    +0.000 HD
ENDBRANCH  14  16
ENDBRANCH  13  14
ENDBRANCH  11  13
ENDBRANCH  10  11
ENDBRANCH   7  10
TORSDOF 6
ENDMDL
MODEL 7
REMARK VINA RESULT:      -5.8      2.628      3.559
REMARK  Name = 
REMARK  8 active torsions:
REMARK  status: ('A' for Active; 'I' for Inactive)
REMARK    1  A    between atoms: C_1  and  O_2
REMARK    2  A    between atoms: O_2  and  C_3
REMARK    3  A    between atoms: C_9  and  C_10
REMARK    4  A    between atoms: C_10  and  N_11
REMARK    5  A    between atoms: N_11  and  C_12
REMARK    6  A    between atoms: C_12  and  C_13
REMARK    7  A    between atoms: C_13  and  C_14
REMARK    8  A    between atoms: C_13  and  O_15
REMARK                            x       y       z     vdW  Elec       q    Type
REMARK                         _______ _______ _______ _____ _____    ______ ____
ROOT
ATOM      1  C   UNL     1       3.543   3.889  18.166  0.00  0.00    +0.000 A 
ATOM      2  C   UNL     1       2.220   4.170  17.798  0.00  0.00    +0.000 A 
ATOM      3  C   UNL     1       1.744   5.482  17.812  0.00  0.00    +0.000 A 
ATOM      4  C   UNL     1       2.582   6.519  18.199  0.00  0.00    +0.000 A 
ATOM      5 CL   UNL     1       1.999   8.137  18.201  0.00  0.00    +0.000 Cl
ATOM      6  C   UNL     1       3.891   6.252  18.590  0.00  0.00    +0.000 A 
ATOM      7  C   UNL     1       4.389   4.935  18.584  0.00  0.00    +0.000 A 
ENDROOT
BRANCH   1   9
ATOM      8  C   UNL     1       3.208   1.570  18.557  0.00  0.00    +0.000 C 
ATOM      9  O   UNL     1       4.080   2.627  18.157  0.00  0.00    +0.000 OA
ENDBRANCH   1   9
BRANCH   7  10
ATOM     10  C   UNL     1       5.813   4.703  19.052  0.00  0.00    +0.000 C 
BRANCH  10  11
ATOM     11  N   UNL     1       6.729   4.189  18.028  0.00  0.00    +0.000 NA
ATOM     12  H   UNL     1       6.175   3.552  17.452  0.00  0.00    +0.000 HD
BRANCH  11  13
ATOM     13  C   UNL     1       7.283   5.254  17.175  0.00  0.00    +0.000 C 
BRANCH  13  14
ATOM     14  C   UNL     1       6.724   5.155  15.738  0.00  0.00    +0.000 C 
ATOM     15  C   UNL     1       6.115   3.795  15.419  0.00  0.00    +0.000 C 
BRANCH  14  16
ATOM     16  O   UNL     1       7.774   5.408  14.802  0.00  0.00    +0.000 OA
ATOM     17  H   UNL     1       8.286   4.575  14.767  0.00  0.00    +0.000 HD
ENDBRANCH  14  16
ENDBRANCH  13  14
ENDBRANCH  11  13
ENDBRANCH  10  11
ENDBRANCH   7  10
TORSDOF 6
ENDMDL
MODEL 8
REMARK VINA RESULT:      -5.8      3.214      5.541
REMARK  Name = 
REMARK  8 active torsions:
REMARK  status: ('A' for Active; 'I' for Inactive)
REMARK    1  A    between atoms: C_1  and  O_2
REMARK    2  A    between atoms: O_2  and  C_3
REMARK    3  A    between atoms: C_9  and  C_10
REMARK    4  A    between atoms: C_10  and  N_11
REMARK    5  A    between atoms: N_11  and  C_12
REMARK    6  A    between atoms: C_12  and  C_13
REMARK    7  A    between atoms: C_13  and  C_14
REMARK    8  A    between atoms: C_13  and  O_15
REMARK                            x       y       z     vdW  Elec       q    Type
REMARK                         _______ _______ _______ _____ _____    ______ ____
ROOT
ATOM      1  C   UNL     1       6.480   4.697  17.953  0.00  0.00    +0.000 A 
ATOM      2  C   UNL     1       7.455   4.673  16.947  0.00  0.00    +0.000 A 
ATOM      3  C   UNL     1       7.096   4.453  15.616  0.00  0.00    +0.000 A 
ATOM      4  C   UNL     1       5.764   4.248  15.283  0.00  0.00    +0.000 A 
ATOM      5 CL   UNL     1       5.320   3.990  13.642  0.00  0.00    +0.000 Cl
ATOM      6  C   UNL     1       4.787   4.244  16.276  0.00  0.00    +0.000 A 
ATOM      7  C   UNL     1       5.130   4.464  17.623  0.00  0.00    +0.000 A 
ENDROOT
BRANCH   1   9
ATOM      8  C   UNL     1       7.887   5.764  19.543  0.00  0.00    +0.000 C 
ATOM      9  O   UNL     1       6.761   4.927  19.276  0.00  0.00    +0.000 OA
ENDBRANCH   1   9
BRANCH   7  10
ATOM     10  C   UNL     1       4.026   4.416  18.663  0.00  0.00    +0.000 C 
BRANCH  10  11
ATOM     11  N   UNL     1       4.177   3.372  19.682  0.00  0.00    +0.000 NA
ATOM     12  H   UNL     1       4.383   3.861  20.555  0.00  0.00    +0.000 HD
BRANCH  11  13
ATOM     13  C   UNL     1       2.957   2.566  19.855  0.00  0.00    +0.000 C 
BRANCH  13  14
ATOM     14  C   UNL     1       2.069   2.633  18.593  0.00  0.00    +0.000 C 
ATOM     15  C   UNL     1       0.581   2.487  18.892  0.00  0.00    +0.000 C 
BRANCH  14  16
ATOM     16  O   UNL     1       2.449   1.592  17.690  0.00  0.00    +0.000 OA
ATOM     17  H   UNL     1       3.413   1.707  17.566  0.00  0.00    +0.000 HD
ENDBRANCH  14  16
ENDBRANCH  13  14
ENDBRANCH  11  13
ENDBRANCH  10  11
ENDBRANCH   7  10
TORSDOF 6
ENDMDL
MODEL 9
REMARK VINA RESULT:      -5.8      2.548      3.366
REMARK  Name = 
REMARK  8 active torsions:
REMARK  status: ('A' for Active; 'I' for Inactive)
REMARK    1  A    between atoms: C_1  and  O_2
REMARK    2  A    between atoms: O_2  and  C_3
REMARK    3  A    between atoms: C_9  and  C_10
REMARK    4  A    between atoms: C_10  and  N_11
REMARK    5  A    between atoms: N_11  and  C_12
REMARK    6  A    between atoms: C_12  and  C_13
REMARK    7  A    between atoms: C_13  and  C_14
REMARK    8  A    between atoms: C_13  and  O_15
REMARK                            x       y       z     vdW  Elec       q    Type
REMARK                         _______ _______ _______ _____ _____    ______ ____
ROOT
ATOM      1  C   UNL     1       3.303   4.572  19.617  0.00  0.00    +0.000 A 
ATOM      2  C   UNL     1       2.394   5.431  20.250  0.00  0.00    +0.000 A 
ATOM      3  C   UNL     1       2.105   6.683  19.704  0.00  0.00    +0.000 A 
ATOM      4  C   UNL     1       2.725   7.087  18.530  0.00  0.00    +0.000 A 
ATOM      5 CL   UNL     1       2.357   8.624  17.851  0.00  0.00    +0.000 Cl
ATOM      6  C   UNL     1       3.648   6.254  17.903  0.00  0.00    +0.000 A 
ATOM      7  C   UNL     1       3.954   4.989  18.438  0.00  0.00    +0.000 A 
ENDROOT
BRANCH   1   9
ATOM      8  C   UNL     1       2.771   2.806  21.113  0.00  0.00    +0.000 C 
ATOM      9  O   UNL     1       3.618   3.323  20.087  0.00  0.00    +0.000 OA
ENDBRANCH   1   9
BRANCH   7  10
ATOM     10  C   UNL     1       4.992   4.140  17.729  0.00  0.00    +0.000 C 
BRANCH  10  11
ATOM     11  N   UNL     1       6.317   4.124  18.357  0.00  0.00    +0.000 NA
ATOM     12  H   UNL     1       6.459   3.167  18.687  0.00  0.00    +0.000 HD
BRANCH  11  13
ATOM     13  C   UNL     1       7.395   4.476  17.418  0.00  0.00    +0.000 C 
BRANCH  13  14
ATOM     14  C   UNL     1       6.871   5.402  16.299  0.00  0.00    +0.000 C 
ATOM     15  C   UNL     1       7.052   4.822  14.901  0.00  0.00    +0.000 C 
BRANCH  14  16
ATOM     16  O   UNL     1       7.557   6.654  16.358  0.00  0.00    +0.000 OA
ATOM     17  H   UNL     1       8.499   6.431  16.218  0.00  0.00    +0.000 HD
ENDBRANCH  14  16
ENDBRANCH  13  14
ENDBRANCH  11  13
ENDBRANCH  10  11
ENDBRANCH   7  10
TORSDOF 6
ENDMDL
