MODEL 1
REMARK VINA RESULT:      -9.2      0.000      0.000
REMARK  Name = 
REMARK  9 active torsions:
REMARK  status: ('A' for Active; 'I' for Inactive)
REMARK    1  A    between atoms: C_1  and  N_2
REMARK    2  A    between atoms: N_2  and  C_3
REMARK    3  A    between atoms: C_5  and  N_6
REMARK    4  A    between atoms: N_6  and  S_7
REMARK    5  A    between atoms: S_7  and  C_8
REMARK    6  A    between atoms: C_13  and  N_14
REMARK    7  A    between atoms: N_14  and  C_15
REMARK    8  A    between atoms: C_19  and  C_20
REMARK    9  A    between atoms: C_25  and  C_26
REMARK                            x       y       z     vdW  Elec       q    Type
REMARK                         _______ _______ _______ _____ _____    ______ ____
ROOT
ATOM      1  N   UNL     1       2.023   6.564  19.266  0.00  0.00    +0.000 N 
ATOM      2  H   UNL     1       1.503   6.183  18.471  0.00  0.00    +0.000 HD
ENDROOT
BRANCH   1   3
ATOM      3  C   UNL     1       3.254   5.783  19.300  0.00  0.00    +0.000 A 
ATOM      4  C   UNL     1       4.195   5.707  18.181  0.00  0.00    +0.000 A 
ATOM      5  C   UNL     1       4.258   6.420  16.949  0.00  0.00    +0.000 A 
ATOM      6  C   UNL     1       5.241   6.156  15.976  0.00  0.00    +0.000 A 
ATOM      7  C   UNL     1       6.230   5.205  16.215  0.00  0.00    +0.000 A 
ATOM      8  C   UNL     1       7.307   4.879  15.228  0.00  0.00    +0.000 C 
ATOM      9  C   UNL     1       6.155   4.471  17.391  0.00  0.00    +0.000 A 
ATOM     10  C   UNL     1       5.090   4.633  18.254  0.00  0.00    +0.000 A 
ATOM     11  N   UNL     1       4.798   3.563  18.969  0.00  0.00    +0.000 NA
ATOM     12  C   UNL     1       3.602   3.554  19.557  0.00  0.00    +0.000 A 
ATOM     13  C   UNL     1       2.482   2.908  19.026  0.00  0.00    +0.000 A 
ATOM     14  C   UNL     1       2.261   3.011  17.520  0.00  0.00    +0.000 C 
ATOM     15  C   UNL     1       1.363   2.743  19.851  0.00  0.00    +0.000 A 
ATOM     16  C   UNL     1       1.352   3.401  21.076  0.00  0.00    +0.000 A 
ATOM     17  C   UNL     1       2.257   4.449  21.235  0.00  0.00    +0.000 A 
ATOM     18  C   UNL     1       3.191   4.669  20.202  0.00  0.00    +0.000 A 
ENDBRANCH   1   3
BRANCH   1  24
ATOM     19  C   UNL     1       1.488   8.748  20.315  0.00  0.00    +0.000 A 
ATOM     20  C   UNL     1       1.128  10.093  20.088  0.00  0.00    +0.000 A 
ATOM     21  C   UNL     1       1.208  10.666  18.819  0.00  0.00    +0.000 A 
ATOM     22  C   UNL     1       1.690   9.928  17.748  0.00  0.00    +0.000 A 
ATOM     23  C   UNL     1       2.045   8.599  17.942  0.00  0.00    +0.000 A 
ATOM     24  C   UNL     1       1.840   7.966  19.177  0.00  0.00    +0.000 A 
BRANCH  19  26
ATOM     25  C   UNL     1       0.735   9.142  22.661  0.00  0.00    +0.000 C 
ATOM     26  N   UNL     1       1.283   8.267  21.630  0.00  0.00    +0.000 N 
ATOM     27  H   UNL     1       0.716   7.415  21.596  0.00  0.00    +0.000 HD
ENDBRANCH  19  26
BRANCH  21  28
ATOM     28  N   UNL     1       0.824  12.022  18.636  0.00  0.00    +0.000 N 
ATOM     29  H   UNL     1       0.482  12.258  17.700  0.00  0.00    +0.000 HD
BRANCH  28  30
ATOM     30  S   UNL     1       1.943  13.201  19.098  0.00  0.00    +0.000 S 
ATOM     31  C   UNL     1       1.008  14.686  18.823  0.00  0.00    +0.000 C 
ATOM     32  O   UNL     1       2.253  13.099  20.513  0.00  0.00    +0.000 OA
ATOM     33  O   UNL     1       2.987  13.166  18.096  0.00  0.00    +0.000 OA
ENDBRANCH  28  30
ENDBRANCH  21  28
ENDBRANCH   1  24
TORSDOF 5
ENDMDL
MODEL 2
REMARK VINA RESULT:      -9.0      1.946      2.088
REMARK  Name = 
REMARK  9 active torsions:
REMARK  status: ('A' for Active; 'I' for Inactive)
REMARK    1  A    between atoms: C_1  and  N_2
REMARK    2  A    between atoms: N_2  and  C_3
REMARK    3  A    between atoms: C_5  and  N_6
REMARK    4  A    between atoms: N_6  and  S_7
REMARK    5  A    between atoms: S_7  and  C_8
REMARK    6  A    between atoms: C_13  and  N_14
REMARK    7  A    between atoms: N_14  and  C_15
REMARK    8  A    between atoms: C_19  and  C_20
REMARK    9  A    between atoms: C_25  and  C_26
REMARK                            x       y       z     vdW  Elec       q    Type
REMARK                         _______ _______ _______ _____ _____    ______ ____
ROOT
ATOM      1  N   UNL     1       2.732   6.338  20.306  0.00  0.00    +0.000 N 
ATOM      2  H   UNL     1       1.936   5.837  20.712  0.00  0.00    +0.000 HD
ENDROOT
BRANCH   1   3
ATOM      3  C   UNL     1       3.540   5.291  19.692  0.00  0.00    +0.000 A 
ATOM      4  C   UNL     1       4.229   5.446  18.410  0.00  0.00    +0.000 A 
ATOM      5  C   UNL     1       4.425   6.583  17.574  0.00  0.00    +0.000 A 
ATOM      6  C   UNL     1       5.094   6.502  16.338  0.00  0.00    +0.000 A 
ATOM      7  C   UNL     1       5.638   5.294  15.910  0.00  0.00    +0.000 A 
ATOM      8  C   UNL     1       6.367   5.140  14.612  0.00  0.00    +0.000 C 
ATOM      9  C   UNL     1       5.418   4.169  16.693  0.00  0.00    +0.000 A 
ATOM     10  C   UNL     1       4.620   4.239  17.817  0.00  0.00    +0.000 A 
ATOM     11  N   UNL     1       4.012   3.111  18.128  0.00  0.00    +0.000 NA
ATOM     12  C   UNL     1       2.993   3.205  18.982  0.00  0.00    +0.000 A 
ATOM     13  C   UNL     1       1.653   3.253  18.587  0.00  0.00    +0.000 A 
ATOM     14  C   UNL     1       1.312   4.092  17.360  0.00  0.00    +0.000 C 
ATOM     15  C   UNL     1       0.670   3.084  19.571  0.00  0.00    +0.000 A 
ATOM     16  C   UNL     1       1.072   3.079  20.902  0.00  0.00    +0.000 A 
ATOM     17  C   UNL     1       2.333   3.603  21.179  0.00  0.00    +0.000 A 
ATOM     18  C   UNL     1       3.145   3.969  20.086  0.00  0.00    +0.000 A 
ENDBRANCH   1   3
BRANCH   1  24
ATOM     19  C   UNL     1       1.657   8.561  20.536  0.00  0.00    +0.000 A 
ATOM     20  C   UNL     1       0.935   9.581  19.879  0.00  0.00    +0.000 A 
ATOM     21  C   UNL     1       0.812   9.610  18.491  0.00  0.00    +0.000 A 
ATOM     22  C   UNL     1       1.440   8.648  17.713  0.00  0.00    +0.000 A 
ATOM     23  C   UNL     1       2.151   7.629  18.333  0.00  0.00    +0.000 A 
ATOM     24  C   UNL     1       2.170   7.504  19.731  0.00  0.00    +0.000 A 
BRANCH  19  26
ATOM     25  C   UNL     1       0.620   9.379  22.653  0.00  0.00    +0.000 C 
ATOM     26  N   UNL     1       1.636   8.602  21.950  0.00  0.00    +0.000 N 
ATOM     27  H   UNL     1       1.623   7.647  22.318  0.00  0.00    +0.000 HD
ENDBRANCH  19  26
BRANCH  21  28
ATOM     28  N   UNL     1       0.065  10.650  17.874  0.00  0.00    +0.000 N 
ATOM     29  H   UNL     1       0.453  11.591  17.982  0.00  0.00    +0.000 HD
BRANCH  28  30
ATOM     30  S   UNL     1      -1.587  10.718  18.230  0.00  0.00    +0.000 S 
ATOM     31  C   UNL     1      -2.232  11.399  16.722  0.00  0.00    +0.000 C 
ATOM     32  O   UNL     1      -2.135   9.387  18.415  0.00  0.00    +0.000 OA
ATOM     33  O   UNL     1      -1.726  11.736  19.249  0.00  0.00    +0.000 OA
ENDBRANCH  28  30
ENDBRANCH  21  28
ENDBRANCH   1  24
TORSDOF 5
ENDMDL
MODEL 3
REMARK VINA RESULT:      -8.9      1.293      1.319
REMARK  Name = 
REMARK  9 active torsions:
REMARK  status: ('A' for Active; 'I' for Inactive)
REMARK    1  A    between atoms: C_1  and  N_2
REMARK    2  A    between atoms: N_2  and  C_3
REMARK    3  A    between atoms: C_5  and  N_6
REMARK    4  A    between atoms: N_6  and  S_7
REMARK    5  A    between atoms: S_7  and  C_8
REMARK    6  A    between atoms: C_13  and  N_14
REMARK    7  A    between atoms: N_14  and  C_15
REMARK    8  A    between atoms: C_19  and  C_20
REMARK    9  A    between atoms: C_25  and  C_26
REMARK                            x       y       z     vdW  Elec       q    Type
REMARK                         _______ _______ _______ _____ _____    ______ ____
ROOT
ATOM      1  N   UNL     1       2.033   6.580  19.272  0.00  0.00    +0.000 N 
ATOM      2  H   UNL     1       1.498   6.197  18.487  0.00  0.00    +0.000 HD
ENDROOT
BRANCH   1   3
ATOM      3  C   UNL     1       3.253   5.781  19.298  0.00  0.00    +0.000 A 
ATOM      4  C   UNL     1       4.194   5.702  18.180  0.00  0.00    +0.000 A 
ATOM      5  C   UNL     1       4.268   6.426  16.954  0.00  0.00    +0.000 A 
ATOM      6  C   UNL     1       5.247   6.157  15.980  0.00  0.00    +0.000 A 
ATOM      7  C   UNL     1       6.222   5.190  16.210  0.00  0.00    +0.000 A 
ATOM      8  C   UNL     1       7.296   4.859  15.221  0.00  0.00    +0.000 C 
ATOM      9  C   UNL     1       6.137   4.447  17.380  0.00  0.00    +0.000 A 
ATOM     10  C   UNL     1       5.074   4.615  18.243  0.00  0.00    +0.000 A 
ATOM     11  N   UNL     1       4.767   3.543  18.948  0.00  0.00    +0.000 NA
ATOM     12  C   UNL     1       3.570   3.546  19.535  0.00  0.00    +0.000 A 
ATOM     13  C   UNL     1       2.441   2.920  18.997  0.00  0.00    +0.000 A 
ATOM     14  C   UNL     1       2.223   3.040  17.492  0.00  0.00    +0.000 C 
ATOM     15  C   UNL     1       1.320   2.763  19.821  0.00  0.00    +0.000 A 
ATOM     16  C   UNL     1       1.317   3.409  21.052  0.00  0.00    +0.000 A 
ATOM     17  C   UNL     1       2.237   4.443  21.220  0.00  0.00    +0.000 A 
ATOM     18  C   UNL     1       3.174   4.660  20.190  0.00  0.00    +0.000 A 
ENDBRANCH   1   3
BRANCH   1  24
ATOM     19  C   UNL     1       1.540   8.781  20.303  0.00  0.00    +0.000 A 
ATOM     20  C   UNL     1       1.197  10.130  20.065  0.00  0.00    +0.000 A 
ATOM     21  C   UNL     1       1.272  10.688  18.789  0.00  0.00    +0.000 A 
ATOM     22  C   UNL     1       1.733   9.932  17.722  0.00  0.00    +0.000 A 
ATOM     23  C   UNL     1       2.071   8.600  17.926  0.00  0.00    +0.000 A 
ATOM     24  C   UNL     1       1.869   7.983  19.170  0.00  0.00    +0.000 A 
BRANCH  19  26
ATOM     25  C   UNL     1       0.759   9.193  22.637  0.00  0.00    +0.000 C 
ATOM     26  N   UNL     1       1.341   8.317  21.625  0.00  0.00    +0.000 N 
ATOM     27  H   UNL     1       0.801   7.448  21.602  0.00  0.00    +0.000 HD
ENDBRANCH  19  26
BRANCH  21  28
ATOM     28  N   UNL     1       0.905  12.047  18.595  0.00  0.00    +0.000 N 
ATOM     29  H   UNL     1       1.546  12.736  18.998  0.00  0.00    +0.000 HD
BRANCH  28  30
ATOM     30  S   UNL     1      -0.671  12.481  19.027  0.00  0.00    +0.000 S 
ATOM     31  C   UNL     1      -1.620  11.466  17.921  0.00  0.00    +0.000 C 
ATOM     32  O   UNL     1      -0.964  12.086  20.393  0.00  0.00    +0.000 OA
ATOM     33  O   UNL     1      -0.834  13.851  18.590  0.00  0.00    +0.000 OA
ENDBRANCH  28  30
ENDBRANCH  21  28
ENDBRANCH   1  24
TORSDOF 5
ENDMDL
MODEL 4
REMARK VINA RESULT:      -8.7      1.405      1.560
REMARK  Name = 
REMARK  9 active torsions:
REMARK  status: ('A' for Active; 'I' for Inactive)
REMARK    1  A    between atoms: C_1  and  N_2
REMARK    2  A    between atoms: N_2  and  C_3
REMARK    3  A    between atoms: C_5  and  N_6
REMARK    4  A    between atoms: N_6  and  S_7
REMARK    5  A    between atoms: S_7  and  C_8
REMARK    6  A    between atoms: C_13  and  N_14
REMARK    7  A    between atoms: N_14  and  C_15
REMARK    8  A    between atoms: C_19  and  C_20
REMARK    9  A    between atoms: C_25  and  C_26
REMARK                            x       y       z     vdW  Elec       q    Type
REMARK                         _______ _______ _______ _____ _____    ______ ____
ROOT
ATOM      1  N   UNL     1       2.998   6.293  20.258  0.00  0.00    +0.000 N 
ATOM      2  H   UNL     1       2.287   5.826  20.827  0.00  0.00    +0.000 HD
ENDROOT
BRANCH   1   3
ATOM      3  C   UNL     1       3.690   5.203  19.581  0.00  0.00    +0.000 A 
ATOM      4  C   UNL     1       4.330   5.339  18.272  0.00  0.00    +0.000 A 
ATOM      5  C   UNL     1       4.579   6.480  17.455  0.00  0.00    +0.000 A 
ATOM      6  C   UNL     1       5.183   6.381  16.188  0.00  0.00    +0.000 A 
ATOM      7  C   UNL     1       5.607   5.146  15.705  0.00  0.00    +0.000 A 
ATOM      8  C   UNL     1       6.261   4.971  14.370  0.00  0.00    +0.000 C 
ATOM      9  C   UNL     1       5.332   4.021  16.469  0.00  0.00    +0.000 A 
ATOM     10  C   UNL     1       4.594   4.122  17.630  0.00  0.00    +0.000 A 
ATOM     11  N   UNL     1       3.911   3.038  17.942  0.00  0.00    +0.000 NA
ATOM     12  C   UNL     1       2.943   3.189  18.845  0.00  0.00    +0.000 A 
ATOM     13  C   UNL     1       1.594   3.356  18.516  0.00  0.00    +0.000 A 
ATOM     14  C   UNL     1       1.267   4.255  17.328  0.00  0.00    +0.000 C 
ATOM     15  C   UNL     1       0.646   3.238  19.541  0.00  0.00    +0.000 A 
ATOM     16  C   UNL     1       1.107   3.162  20.850  0.00  0.00    +0.000 A 
ATOM     17  C   UNL     1       2.418   3.575  21.081  0.00  0.00    +0.000 A 
ATOM     18  C   UNL     1       3.206   3.906  19.960  0.00  0.00    +0.000 A 
ENDBRANCH   1   3
BRANCH   1  24
ATOM     19  C   UNL     1       1.653   8.357  20.546  0.00  0.00    +0.000 A 
ATOM     20  C   UNL     1       0.861   9.332  19.902  0.00  0.00    +0.000 A 
ATOM     21  C   UNL     1       0.830   9.446  18.513  0.00  0.00    +0.000 A 
ATOM     22  C   UNL     1       1.620   8.622  17.726  0.00  0.00    +0.000 A 
ATOM     23  C   UNL     1       2.404   7.648  18.333  0.00  0.00    +0.000 A 
ATOM     24  C   UNL     1       2.342   7.426  19.717  0.00  0.00    +0.000 A 
BRANCH  19  26
ATOM     25  C   UNL     1       0.795   9.324  22.680  0.00  0.00    +0.000 C 
ATOM     26  N   UNL     1       1.531   8.294  21.954  0.00  0.00    +0.000 N 
ATOM     27  H   UNL     1       1.156   7.380  22.223  0.00  0.00    +0.000 HD
ENDBRANCH  19  26
BRANCH  21  28
ATOM     28  N   UNL     1       0.009  10.436  17.908  0.00  0.00    +0.000 N 
ATOM     29  H   UNL     1       0.158  10.577  16.905  0.00  0.00    +0.000 HD
BRANCH  28  30
ATOM     30  S   UNL     1      -0.029  11.954  18.651  0.00  0.00    +0.000 S 
ATOM     31  C   UNL     1       1.692  12.392  18.620  0.00  0.00    +0.000 C 
ATOM     32  O   UNL     1      -0.769  12.910  17.847  0.00  0.00    +0.000 OA
ATOM     33  O   UNL     1      -0.378  11.706  20.034  0.00  0.00    +0.000 OA
ENDBRANCH  28  30
ENDBRANCH  21  28
ENDBRANCH   1  24
TORSDOF 5
ENDMDL
MODEL 5
REMARK VINA RESULT:      -7.9      1.987      2.669
REMARK  Name = 
REMARK  9 active torsions:
REMARK  status: ('A' for Active; 'I' for Inactive)
REMARK    1  A    between atoms: C_1  and  N_2
REMARK    2  A    between atoms: N_2  and  C_3
REMARK    3  A    between atoms: C_5  and  N_6
REMARK    4  A    between atoms: N_6  and  S_7
REMARK    5  A    between atoms: S_7  and  C_8
REMARK    6  A    between atoms: C_13  and  N_14
REMARK    7  A    between atoms: N_14  and  C_15
REMARK    8  A    between atoms: C_19  and  C_20
REMARK    9  A    between atoms: C_25  and  C_26
REMARK                            x       y       z     vdW  Elec       q    Type
REMARK                         _______ _______ _______ _____ _____    ______ ____
ROOT
ATOM      1  N   UNL     1       1.836   6.292  19.485  0.00  0.00    +0.000 N 
ATOM      2  H   UNL     1       1.664   6.394  18.481  0.00  0.00    +0.000 HD
ENDROOT
BRANCH   1   3
ATOM      3  C   UNL     1       3.133   5.630  19.562  0.00  0.00    +0.000 A 
ATOM      4  C   UNL     1       4.131   5.677  18.493  0.00  0.00    +0.000 A 
ATOM      5  C   UNL     1       4.187   6.432  17.285  0.00  0.00    +0.000 A 
ATOM      6  C   UNL     1       5.238   6.292  16.359  0.00  0.00    +0.000 A 
ATOM      7  C   UNL     1       6.300   5.432  16.623  0.00  0.00    +0.000 A 
ATOM      8  C   UNL     1       7.451   5.241  15.685  0.00  0.00    +0.000 C 
ATOM      9  C   UNL     1       6.238   4.658  17.774  0.00  0.00    +0.000 A 
ATOM     10  C   UNL     1       5.121   4.691  18.584  0.00  0.00    +0.000 A 
ATOM     11  N   UNL     1       4.898   3.577  19.254  0.00  0.00    +0.000 NA
ATOM     12  C   UNL     1       3.680   3.436  19.778  0.00  0.00    +0.000 A 
ATOM     13  C   UNL     1       2.655   2.705  19.172  0.00  0.00    +0.000 A 
ATOM     14  C   UNL     1       2.500   2.833  17.660  0.00  0.00    +0.000 C 
ATOM     15  C   UNL     1       1.518   2.409  19.933  0.00  0.00    +0.000 A 
ATOM     16  C   UNL     1       1.383   3.024  21.173  0.00  0.00    +0.000 A 
ATOM     17  C   UNL     1       2.174   4.147  21.406  0.00  0.00    +0.000 A 
ATOM     18  C   UNL     1       3.133   4.487  20.430  0.00  0.00    +0.000 A 
ENDBRANCH   1   3
BRANCH   1  24
ATOM     19  C   UNL     1       1.402   8.727  19.297  0.00  0.00    +0.000 A 
ATOM     20  C   UNL     1       1.157   9.925  20.002  0.00  0.00    +0.000 A 
ATOM     21  C   UNL     1       0.838   9.922  21.359  0.00  0.00    +0.000 A 
ATOM     22  C   UNL     1       0.709   8.723  22.044  0.00  0.00    +0.000 A 
ATOM     23  C   UNL     1       0.950   7.528  21.377  0.00  0.00    +0.000 A 
ATOM     24  C   UNL     1       1.408   7.518  20.051  0.00  0.00    +0.000 A 
BRANCH  19  26
ATOM     25  C   UNL     1       2.404  10.117  17.484  0.00  0.00    +0.000 C 
ATOM     26  N   UNL     1       1.797   8.873  17.946  0.00  0.00    +0.000 N 
ATOM     27  H   UNL     1       2.412   8.098  17.685  0.00  0.00    +0.000 HD
ENDBRANCH  19  26
BRANCH  21  28
ATOM     28  N   UNL     1       0.612  11.154  22.030  0.00  0.00    +0.000 N 
ATOM     29  H   UNL     1       1.044  11.236  22.954  0.00  0.00    +0.000 HD
BRANCH  28  30
ATOM     30  S   UNL     1      -0.993  11.673  22.152  0.00  0.00    +0.000 S 
ATOM     31  C   UNL     1      -0.769  13.348  22.698  0.00  0.00    +0.000 C 
ATOM     32  O   UNL     1      -1.636  11.687  20.851  0.00  0.00    +0.000 OA
ATOM     33  O   UNL     1      -1.560  10.937  23.262  0.00  0.00    +0.000 OA
ENDBRANCH  28  30
ENDBRANCH  21  28
ENDBRANCH   1  24
TORSDOF 5
ENDMDL
MODEL 6
REMARK VINA RESULT:      -7.6      2.498      4.319
REMARK  Name = 
REMARK  9 active torsions:
REMARK  status: ('A' for Active; 'I' for Inactive)
REMARK    1  A    between atoms: C_1  and  N_2
REMARK    2  A    between atoms: N_2  and  C_3
REMARK    3  A    between atoms: C_5  and  N_6
REMARK    4  A    between atoms: N_6  and  S_7
REMARK    5  A    between atoms: S_7  and  C_8
REMARK    6  A    between atoms: C_13  and  N_14
REMARK    7  A    between atoms: N_14  and  C_15
REMARK    8  A    between atoms: C_19  and  C_20
REMARK    9  A    between atoms: C_25  and  C_26
REMARK                            x       y       z     vdW  Elec       q    Type
REMARK                         _______ _______ _______ _____ _____    ______ ____
ROOT
ATOM      1  N   UNL     1       2.907   7.584  18.719  0.00  0.00    +0.000 N 
ATOM      2  H   UNL     1       3.100   7.273  19.675  0.00  0.00    +0.000 HD
ENDROOT
BRANCH   1   3
ATOM      3  C   UNL     1       2.933   6.359  17.930  0.00  0.00    +0.000 A 
ATOM      4  C   UNL     1       2.299   5.109  18.352  0.00  0.00    +0.000 A 
ATOM      5  C   UNL     1       1.435   4.810  19.446  0.00  0.00    +0.000 A 
ATOM      6  C   UNL     1       0.964   3.508  19.699  0.00  0.00    +0.000 A 
ATOM      7  C   UNL     1       1.297   2.461  18.844  0.00  0.00    +0.000 A 
ATOM      8  C   UNL     1       0.826   1.055  19.051  0.00  0.00    +0.000 C 
ATOM      9  C   UNL     1       2.173   2.728  17.800  0.00  0.00    +0.000 A 
ATOM     10  C   UNL     1       2.751   3.974  17.669  0.00  0.00    +0.000 A 
ATOM     11  N   UNL     1       3.932   3.970  17.080  0.00  0.00    +0.000 NA
ATOM     12  C   UNL     1       4.667   5.072  17.225  0.00  0.00    +0.000 A 
ATOM     13  C   UNL     1       5.681   5.209  18.177  0.00  0.00    +0.000 A 
ATOM     14  C   UNL     1       5.421   4.636  19.567  0.00  0.00    +0.000 C 
ATOM     15  C   UNL     1       6.553   6.299  18.060  0.00  0.00    +0.000 A 
ATOM     16  C   UNL     1       6.242   7.287  17.132  0.00  0.00    +0.000 A 
ATOM     17  C   UNL     1       4.931   7.317  16.661  0.00  0.00    +0.000 A 
ATOM     18  C   UNL     1       4.069   6.273  17.057  0.00  0.00    +0.000 A 
ENDBRANCH   1   3
BRANCH   1  24
ATOM     19  C   UNL     1       1.324   8.877  20.126  0.00  0.00    +0.000 A 
ATOM     20  C   UNL     1       0.176   9.698  20.136  0.00  0.00    +0.000 A 
ATOM     21  C   UNL     1      -0.336  10.251  18.963  0.00  0.00    +0.000 A 
ATOM     22  C   UNL     1       0.306  10.041  17.752  0.00  0.00    +0.000 A 
ATOM     23  C   UNL     1       1.435   9.232  17.712  0.00  0.00    +0.000 A 
ATOM     24  C   UNL     1       1.883   8.553  18.856  0.00  0.00    +0.000 A 
BRANCH  19  26
ATOM     25  C   UNL     1       1.369   8.997  22.617  0.00  0.00    +0.000 C 
ATOM     26  N   UNL     1       1.691   8.312  21.370  0.00  0.00    +0.000 N 
ATOM     27  H   UNL     1       1.334   7.354  21.427  0.00  0.00    +0.000 HD
ENDBRANCH  19  26
BRANCH  21  28
ATOM     28  N   UNL     1      -1.502  11.062  19.021  0.00  0.00    +0.000 N 
ATOM     29  H   UNL     1      -1.973  11.088  19.929  0.00  0.00    +0.000 HD
BRANCH  28  30
ATOM     30  S   UNL     1      -2.673  10.800  17.830  0.00  0.00    +0.000 S 
ATOM     31  C   UNL     1      -4.055  11.683  18.510  0.00  0.00    +0.000 C 
ATOM     32  O   UNL     1      -2.289  11.424  16.576  0.00  0.00    +0.000 OA
ATOM     33  O   UNL     1      -2.995   9.390  17.899  0.00  0.00    +0.000 OA
ENDBRANCH  28  30
ENDBRANCH  21  28
ENDBRANCH   1  24
TORSDOF 5
ENDMDL
MODEL 7
REMARK VINA RESULT:      -7.6      4.060      8.479
REMARK  Name = 
REMARK  9 active torsions:
REMARK  status: ('A' for Active; 'I' for Inactive)
REMARK    1  A    between atoms: C_1  and  N_2
REMARK    2  A    between atoms: N_2  and  C_3
REMARK    3  A    between atoms: C_5  and  N_6
REMARK    4  A    between atoms: N_6  and  S_7
REMARK    5  A    between atoms: S_7  and  C_8
REMARK    6  A    between atoms: C_13  and  N_14
REMARK    7  A    between atoms: N_14  and  C_15
REMARK    8  A    between atoms: C_19  and  C_20
REMARK    9  A    between atoms: C_25  and  C_26
REMARK                            x       y       z     vdW  Elec       q    Type
REMARK                         _______ _______ _______ _____ _____    ______ ____
ROOT
ATOM      1  N   UNL     1       0.625  10.234  20.255  0.00  0.00    +0.000 N 
ATOM      2  H   UNL     1       1.154  10.956  19.758  0.00  0.00    +0.000 HD
ENDROOT
BRANCH   1   3
ATOM      3  C   UNL     1      -0.770  10.602  20.045  0.00  0.00    +0.000 A 
ATOM      4  C   UNL     1      -1.465  10.448  18.766  0.00  0.00    +0.000 A 
ATOM      5  C   UNL     1      -1.076   9.814  17.550  0.00  0.00    +0.000 A 
ATOM      6  C   UNL     1      -1.894   9.818  16.404  0.00  0.00    +0.000 A 
ATOM      7  C   UNL     1      -3.153  10.411  16.441  0.00  0.00    +0.000 A 
ATOM      8  C   UNL     1      -4.075  10.445  15.262  0.00  0.00    +0.000 C 
ATOM      9  C   UNL     1      -3.527  11.069  17.604  0.00  0.00    +0.000 A 
ATOM     10  C   UNL     1      -2.644  11.194  18.657  0.00  0.00    +0.000 A 
ATOM     11  N   UNL     1      -2.834  12.263  19.407  0.00  0.00    +0.000 NA
ATOM     12  C   UNL     1      -1.829  12.603  20.214  0.00  0.00    +0.000 A 
ATOM     13  C   UNL     1      -0.884  13.586  19.903  0.00  0.00    +0.000 A 
ATOM     14  C   UNL     1      -0.367  13.634  18.469  0.00  0.00    +0.000 C 
ATOM     15  C   UNL     1      -0.044  14.039  20.928  0.00  0.00    +0.000 A 
ATOM     16  C   UNL     1      -0.059  13.352  22.137  0.00  0.00    +0.000 A 
ATOM     17  C   UNL     1      -0.610  12.072  22.125  0.00  0.00    +0.000 A 
ATOM     18  C   UNL     1      -1.222  11.634  20.934  0.00  0.00    +0.000 A 
ENDBRANCH   1   3
BRANCH   1  24
ATOM     19  C   UNL     1       1.991   8.836  18.727  0.00  0.00    +0.000 A 
ATOM     20  C   UNL     1       2.452   7.534  18.439  0.00  0.00    +0.000 A 
ATOM     21  C   UNL     1       2.326   6.494  19.358  0.00  0.00    +0.000 A 
ATOM     22  C   UNL     1       1.777   6.730  20.610  0.00  0.00    +0.000 A 
ATOM     23  C   UNL     1       1.308   8.001  20.919  0.00  0.00    +0.000 A 
ATOM     24  C   UNL     1       1.299   9.024  19.958  0.00  0.00    +0.000 A 
BRANCH  19  26
ATOM     25  C   UNL     1       2.381  11.181  17.971  0.00  0.00    +0.000 C 
ATOM     26  N   UNL     1       2.104   9.779  17.679  0.00  0.00    +0.000 N 
ATOM     27  H   UNL     1       2.794   9.450  16.998  0.00  0.00    +0.000 HD
ENDBRANCH  19  26
BRANCH  21  28
ATOM     28  N   UNL     1       2.795   5.196  19.019  0.00  0.00    +0.000 N 
ATOM     29  H   UNL     1       3.528   5.167  18.305  0.00  0.00    +0.000 HD
BRANCH  28  30
ATOM     30  S   UNL     1       1.625   4.044  18.615  0.00  0.00    +0.000 S 
ATOM     31  C   UNL     1       2.645   2.641  18.232  0.00  0.00    +0.000 C 
ATOM     32  O   UNL     1       0.795   3.720  19.761  0.00  0.00    +0.000 OA
ATOM     33  O   UNL     1       1.042   4.496  17.370  0.00  0.00    +0.000 OA
ENDBRANCH  28  30
ENDBRANCH  21  28
ENDBRANCH   1  24
TORSDOF 5
ENDMDL
MODEL 8
REMARK VINA RESULT:      -7.5      3.965      8.648
REMARK  Name = 
REMARK  9 active torsions:
REMARK  status: ('A' for Active; 'I' for Inactive)
REMARK    1  A    between atoms: C_1  and  N_2
REMARK    2  A    between atoms: N_2  and  C_3
REMARK    3  A    between atoms: C_5  and  N_6
REMARK    4  A    between atoms: N_6  and  S_7
REMARK    5  A    between atoms: S_7  and  C_8
REMARK    6  A    between atoms: C_13  and  N_14
REMARK    7  A    between atoms: N_14  and  C_15
REMARK    8  A    between atoms: C_19  and  C_20
REMARK    9  A    between atoms: C_25  and  C_26
REMARK                            x       y       z     vdW  Elec       q    Type
REMARK                         _______ _______ _______ _____ _____    ______ ____
ROOT
ATOM      1  N   UNL     1       1.172  10.416  19.227  0.00  0.00    +0.000 N 
ATOM      2  H   UNL     1       1.258  10.760  18.266  0.00  0.00    +0.000 HD
ENDROOT
BRANCH   1   3
ATOM      3  C   UNL     1      -0.054  11.032  19.721  0.00  0.00    +0.000 A 
ATOM      4  C   UNL     1      -1.330  10.985  19.004  0.00  0.00    +0.000 A 
ATOM      5  C   UNL     1      -1.734  10.269  17.841  0.00  0.00    +0.000 A 
ATOM      6  C   UNL     1      -3.020  10.403  17.284  0.00  0.00    +0.000 A 
ATOM      7  C   UNL     1      -3.969  11.219  17.893  0.00  0.00    +0.000 A 
ATOM      8  C   UNL     1      -5.355  11.401  17.358  0.00  0.00    +0.000 C 
ATOM      9  C   UNL     1      -3.576  11.957  19.001  0.00  0.00    +0.000 A 
ATOM     10  C   UNL     1      -2.266  11.935  19.432  0.00  0.00    +0.000 A 
ATOM     11  N   UNL     1      -1.873  13.034  20.047  0.00  0.00    +0.000 NA
ATOM     12  C   UNL     1      -0.558  13.198  20.182  0.00  0.00    +0.000 A 
ATOM     13  C   UNL     1       0.218  13.982  19.323  0.00  0.00    +0.000 A 
ATOM     14  C   UNL     1      -0.092  13.907  17.831  0.00  0.00    +0.000 C 
ATOM     15  C   UNL     1       1.527  14.291  19.714  0.00  0.00    +0.000 A 
ATOM     16  C   UNL     1       2.046  13.641  20.829  0.00  0.00    +0.000 A 
ATOM     17  C   UNL     1       1.388  12.486  21.245  0.00  0.00    +0.000 A 
ATOM     18  C   UNL     1       0.185  12.146  20.593  0.00  0.00    +0.000 A 
ENDBRANCH   1   3
BRANCH   1  24
ATOM     19  C   UNL     1       1.591   8.228  20.317  0.00  0.00    +0.000 A 
ATOM     20  C   UNL     1       2.158   6.943  20.172  0.00  0.00    +0.000 A 
ATOM     21  C   UNL     1       2.557   6.456  18.928  0.00  0.00    +0.000 A 
ATOM     22  C   UNL     1       2.362   7.217  17.785  0.00  0.00    +0.000 A 
ATOM     23  C   UNL     1       1.812   8.487  17.898  0.00  0.00    +0.000 A 
ATOM     24  C   UNL     1       1.534   9.049  19.154  0.00  0.00    +0.000 A 
BRANCH  19  26
ATOM     25  C   UNL     1      -0.064   8.618  22.142  0.00  0.00    +0.000 C 
ATOM     26  N   UNL     1       1.307   8.632  21.642  0.00  0.00    +0.000 N 
ATOM     27  H   UNL     1       1.893   8.102  22.293  0.00  0.00    +0.000 HD
ENDBRANCH  19  26
BRANCH  21  28
ATOM     28  N   UNL     1       3.134   5.161  18.833  0.00  0.00    +0.000 N 
ATOM     29  H   UNL     1       3.869   5.059  18.127  0.00  0.00    +0.000 HD
BRANCH  28  30
ATOM     30  S   UNL     1       2.066   3.860  18.671  0.00  0.00    +0.000 S 
ATOM     31  C   UNL     1       3.201   2.497  18.576  0.00  0.00    +0.000 C 
ATOM     32  O   UNL     1       1.249   3.706  19.861  0.00  0.00    +0.000 OA
ATOM     33  O   UNL     1       1.467   4.005  17.362  0.00  0.00    +0.000 OA
ENDBRANCH  28  30
ENDBRANCH  21  28
ENDBRANCH   1  24
TORSDOF 5
ENDMDL
MODEL 9
REMARK VINA RESULT:      -7.4      3.748      8.403
REMARK  Name = 
REMARK  9 active torsions:
REMARK  status: ('A' for Active; 'I' for Inactive)
REMARK    1  A    between atoms: C_1  and  N_2
REMARK    2  A    between atoms: N_2  and  C_3
REMARK    3  A    between atoms: C_5  and  N_6
REMARK    4  A    between atoms: N_6  and  S_7
REMARK    5  A    between atoms: S_7  and  C_8
REMARK    6  A    between atoms: C_13  and  N_14
REMARK    7  A    between atoms: N_14  and  C_15
REMARK    8  A    between atoms: C_19  and  C_20
REMARK    9  A    between atoms: C_25  and  C_26
REMARK                            x       y       z     vdW  Elec       q    Type
REMARK                         _______ _______ _______ _____ _____    ______ ____
ROOT
ATOM      1  N   UNL     1       0.568  10.433  20.306  0.00  0.00    +0.000 N 
ATOM      2  H   UNL     1       1.081  11.277  20.033  0.00  0.00    +0.000 HD
ENDROOT
BRANCH   1   3
ATOM      3  C   UNL     1      -0.833  10.786  20.113  0.00  0.00    +0.000 A 
ATOM      4  C   UNL     1      -1.543  10.617  18.844  0.00  0.00    +0.000 A 
ATOM      5  C   UNL     1      -1.165   9.981  17.627  0.00  0.00    +0.000 A 
ATOM      6  C   UNL     1      -1.998   9.970  16.492  0.00  0.00    +0.000 A 
ATOM      7  C   UNL     1      -3.263  10.550  16.543  0.00  0.00    +0.000 A 
ATOM      8  C   UNL     1      -4.201  10.568  15.377  0.00  0.00    +0.000 C 
ATOM      9  C   UNL     1      -3.628  11.212  17.707  0.00  0.00    +0.000 A 
ATOM     10  C   UNL     1      -2.732  11.351  18.747  0.00  0.00    +0.000 A 
ATOM     11  N   UNL     1      -2.922  12.422  19.494  0.00  0.00    +0.000 NA
ATOM     12  C   UNL     1      -1.910  12.777  20.285  0.00  0.00    +0.000 A 
ATOM     13  C   UNL     1      -0.979  13.768  19.956  0.00  0.00    +0.000 A 
ATOM     14  C   UNL     1      -0.482  13.813  18.515  0.00  0.00    +0.000 C 
ATOM     15  C   UNL     1      -0.130  14.235  20.967  0.00  0.00    +0.000 A 
ATOM     16  C   UNL     1      -0.122  13.555  22.180  0.00  0.00    +0.000 A 
ATOM     17  C   UNL     1      -0.660  12.270  22.183  0.00  0.00    +0.000 A 
ATOM     18  C   UNL     1      -1.284  11.818  21.002  0.00  0.00    +0.000 A 
ENDBRANCH   1   3
BRANCH   1  24
ATOM     19  C   UNL     1       1.957   9.469  18.492  0.00  0.00    +0.000 A 
ATOM     20  C   UNL     1       2.503   8.288  17.944  0.00  0.00    +0.000 A 
ATOM     21  C   UNL     1       2.507   7.088  18.653  0.00  0.00    +0.000 A 
ATOM     22  C   UNL     1       2.007   7.038  19.945  0.00  0.00    +0.000 A 
ATOM     23  C   UNL     1       1.458   8.183  20.507  0.00  0.00    +0.000 A 
ATOM     24  C   UNL     1       1.318   9.363  19.760  0.00  0.00    +0.000 A 
BRANCH  19  26
ATOM     25  C   UNL     1       2.572  11.846  18.051  0.00  0.00    +0.000 C 
ATOM     26  N   UNL     1       1.941  10.597  17.638  0.00  0.00    +0.000 N 
ATOM     27  H   UNL     1       2.314  10.335  16.721  0.00  0.00    +0.000 HD
ENDBRANCH  19  26
BRANCH  21  28
ATOM     28  N   UNL     1       3.057   5.921  18.055  0.00  0.00    +0.000 N 
ATOM     29  H   UNL     1       2.619   5.038  18.332  0.00  0.00    +0.000 HD
BRANCH  28  30
ATOM     30  S   UNL     1       4.734   5.730  18.158  0.00  0.00    +0.000 S 
ATOM     31  C   UNL     1       4.963   4.229  17.237  0.00  0.00    +0.000 C 
ATOM     32  O   UNL     1       5.424   6.809  17.474  0.00  0.00    +0.000 OA
ATOM     33  O   UNL     1       5.010   5.423  19.545  0.00  0.00    +0.000 OA
ENDBRANCH  28  30
ENDBRANCH  21  28
ENDBRANCH   1  24
TORSDOF 5
ENDMDL
