MODEL 1
REMARK VINA RESULT:      -7.6      0.000      0.000
REMARK  Name = 
REMARK  5 active torsions:
REMARK  status: ('A' for Active; 'I' for Inactive)
REMARK    1  A    between atoms: C_1  and  C_2
REMARK    2  A    between atoms: C_2  and  C_3
REMARK    3  A    between atoms: C_3  and  C_4
REMARK    4  A    between atoms: C_3  and  C_5
REMARK    5  A    between atoms: N_9  and  C_10
REMARK                            x       y       z     vdW  Elec       q    Type
REMARK                         _______ _______ _______ _____ _____    ______ ____
ROOT
ATOM      1  C   UNL     1       2.875   1.894  18.773  0.00  0.00    +0.000 C 
ATOM      2  N   UNL     1       4.086   2.154  19.505  0.00  0.00    +0.000 N 
ATOM      3  C   UNL     1       4.710   3.305  19.097  0.00  0.00    +0.000 C 
ATOM      4  O   UNL     1       5.709   3.739  19.649  0.00  0.00    +0.000 OA
ATOM      5  N   UNL     1       4.037   3.822  18.031  0.00  0.00    +0.000 N 
ATOM      6  C   UNL     1       3.023   2.958  17.683  0.00  0.00    +0.000 C 
ATOM      7  O   UNL     1       2.323   3.043  16.683  0.00  0.00    +0.000 OA
ATOM      8  H   UNL     1       4.414   1.640  20.313  0.00  0.00    +0.000 HD
ENDROOT
BRANCH   5   9
ATOM      9  C   UNL     1       4.417   4.957  17.180  0.00  0.00    +0.000 C 
ATOM     10  C   UNL     1       4.897   4.622  15.756  0.00  0.00    +0.000 C 
ATOM     11  C   UNL     1       6.347   4.179  15.876  0.00  0.00    +0.000 C 
ATOM     12  S   UNL     1       7.053   5.328  17.036  0.00  0.00    +0.000 S 
ATOM     13  O   UNL     1       7.572   6.462  16.301  0.00  0.00    +0.000 OA
ATOM     14  O   UNL     1       7.853   4.594  17.993  0.00  0.00    +0.000 OA
ATOM     15  C   UNL     1       5.525   5.818  17.814  0.00  0.00    +0.000 C 
ENDBRANCH   5   9
BRANCH   1  16
ATOM     16  C   UNL     1       1.630   2.070  19.666  0.00  0.00    +0.000 C 
ATOM     17  C   UNL     1       0.606   2.980  18.981  0.00  0.00    +0.000 C 
BRANCH  16  19
ATOM     18  C   UNL     1       1.876   4.072  21.258  0.00  0.00    +0.000 C 
ATOM     19  C   UNL     1       1.974   2.562  21.091  0.00  0.00    +0.000 C 
ENDBRANCH  16  19
ENDBRANCH   1  16
TORSDOF 3
ENDMDL
MODEL 2
REMARK VINA RESULT:      -7.6      1.164      1.434
REMARK  Name = 
REMARK  5 active torsions:
REMARK  status: ('A' for Active; 'I' for Inactive)
REMARK    1  A    between atoms: C_1  and  C_2
REMARK    2  A    between atoms: C_2  and  C_3
REMARK    3  A    between atoms: C_3  and  C_4
REMARK    4  A    between atoms: C_3  and  C_5
REMARK    5  A    between atoms: N_9  and  C_10
REMARK                            x       y       z     vdW  Elec       q    Type
REMARK                         _______ _______ _______ _____ _____    ______ ____
ROOT
ATOM      1  C   UNL     1       3.229   2.972  19.739  0.00  0.00    +0.000 C 
ATOM      2  N   UNL     1       4.617   3.192  20.048  0.00  0.00    +0.000 N 
ATOM      3  C   UNL     1       5.223   4.050  19.166  0.00  0.00    +0.000 C 
ATOM      4  O   UNL     1       6.377   4.424  19.304  0.00  0.00    +0.000 OA
ATOM      5  N   UNL     1       4.338   4.372  18.180  0.00  0.00    +0.000 N 
ATOM      6  C   UNL     1       3.180   3.651  18.368  0.00  0.00    +0.000 C 
ATOM      7  O   UNL     1       2.242   3.588  17.586  0.00  0.00    +0.000 OA
ATOM      8  H   UNL     1       5.101   2.867  20.875  0.00  0.00    +0.000 HD
ENDROOT
BRANCH   5   9
ATOM      9  C   UNL     1       4.585   5.140  16.952  0.00  0.00    +0.000 C 
ATOM     10  C   UNL     1       4.574   4.350  15.632  0.00  0.00    +0.000 C 
ATOM     11  C   UNL     1       5.928   3.666  15.520  0.00  0.00    +0.000 C 
ATOM     12  S   UNL     1       7.083   4.909  16.053  0.00  0.00    +0.000 S 
ATOM     13  O   UNL     1       7.497   5.677  14.897  0.00  0.00    +0.000 OA
ATOM     14  O   UNL     1       8.035   4.305  16.961  0.00  0.00    +0.000 OA
ATOM     15  C   UNL     1       5.929   5.890  16.993  0.00  0.00    +0.000 C 
ENDBRANCH   5   9
BRANCH   1  16
ATOM     16  C   UNL     1       2.310   3.615  20.798  0.00  0.00    +0.000 C 
ATOM     17  C   UNL     1       1.514   2.538  21.540  0.00  0.00    +0.000 C 
BRANCH  16  19
ATOM     18  C   UNL     1       1.812   6.126  20.576  0.00  0.00    +0.000 C 
ATOM     19  C   UNL     1       1.389   4.711  20.212  0.00  0.00    +0.000 C 
ENDBRANCH  16  19
ENDBRANCH   1  16
TORSDOF 3
ENDMDL
MODEL 3
REMARK VINA RESULT:      -7.5      2.591      5.469
REMARK  Name = 
REMARK  5 active torsions:
REMARK  status: ('A' for Active; 'I' for Inactive)
REMARK    1  A    between atoms: C_1  and  C_2
REMARK    2  A    between atoms: C_2  and  C_3
REMARK    3  A    between atoms: C_3  and  C_4
REMARK    4  A    between atoms: C_3  and  C_5
REMARK    5  A    between atoms: N_9  and  C_10
REMARK                            x       y       z     vdW  Elec       q    Type
REMARK                         _______ _______ _______ _____ _____    ______ ____
ROOT
ATOM      1  C   UNL     1       6.061   5.643  18.781  0.00  0.00    +0.000 C 
ATOM      2  N   UNL     1       6.008   4.465  19.605  0.00  0.00    +0.000 N 
ATOM      3  C   UNL     1       5.017   3.597  19.220  0.00  0.00    +0.000 C 
ATOM      4  O   UNL     1       4.863   2.506  19.744  0.00  0.00    +0.000 OA
ATOM      5  N   UNL     1       4.297   4.165  18.211  0.00  0.00    +0.000 N 
ATOM      6  C   UNL     1       4.762   5.444  17.998  0.00  0.00    +0.000 C 
ATOM      7  O   UNL     1       4.244   6.280  17.270  0.00  0.00    +0.000 OA
ATOM      8  H   UNL     1       6.678   4.208  20.319  0.00  0.00    +0.000 HD
ENDROOT
BRANCH   5   9
ATOM      9  C   UNL     1       3.062   3.673  17.587  0.00  0.00    +0.000 C 
ATOM     10  C   UNL     1       1.818   4.569  17.718  0.00  0.00    +0.000 C 
ATOM     11  C   UNL     1       1.252   4.334  19.110  0.00  0.00    +0.000 C 
ATOM     12  S   UNL     1       1.370   2.573  19.330  0.00  0.00    +0.000 S 
ATOM     13  O   UNL     1       0.147   1.968  18.848  0.00  0.00    +0.000 OA
ATOM     14  O   UNL     1       1.901   2.301  20.649  0.00  0.00    +0.000 OA
ATOM     15  C   UNL     1       2.650   2.288  18.121  0.00  0.00    +0.000 C 
ENDBRANCH   5   9
BRANCH   1  16
ATOM     16  C   UNL     1       7.331   5.661  17.907  0.00  0.00    +0.000 C 
ATOM     17  C   UNL     1       7.543   7.050  17.300  0.00  0.00    +0.000 C 
BRANCH  16  19
ATOM     18  C   UNL     1       7.136   5.078  15.413  0.00  0.00    +0.000 C 
ATOM     19  C   UNL     1       7.337   4.554  16.827  0.00  0.00    +0.000 C 
ENDBRANCH  16  19
ENDBRANCH   1  16
TORSDOF 3
ENDMDL
MODEL 4
REMARK VINA RESULT:      -7.5      1.062      1.576
REMARK  Name = 
REMARK  5 active torsions:
REMARK  status: ('A' for Active; 'I' for Inactive)
REMARK    1  A    between atoms: C_1  and  C_2
REMARK    2  A    between atoms: C_2  and  C_3
REMARK    3  A    between atoms: C_3  and  C_4
REMARK    4  A    between atoms: C_3  and  C_5
REMARK    5  A    between atoms: N_9  and  C_10
REMARK                            x       y       z     vdW  Elec       q    Type
REMARK                         _______ _______ _______ _____ _____    ______ ____
ROOT
ATOM      1  C   UNL     1       3.096   3.113  19.284  0.00  0.00    +0.000 C 
ATOM      2  N   UNL     1       4.414   3.397  19.787  0.00  0.00    +0.000 N 
ATOM      3  C   UNL     1       5.103   4.276  18.991  0.00  0.00    +0.000 C 
ATOM      4  O   UNL     1       6.207   4.702  19.290  0.00  0.00    +0.000 OA
ATOM      5  N   UNL     1       4.357   4.552  17.884  0.00  0.00    +0.000 N 
ATOM      6  C   UNL     1       3.216   3.780  17.912  0.00  0.00    +0.000 C 
ATOM      7  O   UNL     1       2.405   3.671  17.004  0.00  0.00    +0.000 OA
ATOM      8  H   UNL     1       4.786   3.099  20.680  0.00  0.00    +0.000 HD
ENDROOT
BRANCH   5   9
ATOM      9  C   UNL     1       4.745   5.322  16.695  0.00  0.00    +0.000 C 
ATOM     10  C   UNL     1       4.763   4.562  15.357  0.00  0.00    +0.000 C 
ATOM     11  C   UNL     1       6.065   3.776  15.318  0.00  0.00    +0.000 C 
ATOM     12  S   UNL     1       7.274   4.913  15.957  0.00  0.00    +0.000 S 
ATOM     13  O   UNL     1       7.823   5.669  14.851  0.00  0.00    +0.000 OA
ATOM     14  O   UNL     1       8.112   4.217  16.911  0.00  0.00    +0.000 OA
ATOM     15  C   UNL     1       6.137   5.963  16.844  0.00  0.00    +0.000 C 
ENDBRANCH   5   9
BRANCH   1  16
ATOM     16  C   UNL     1       2.006   3.721  20.191  0.00  0.00    +0.000 C 
ATOM     17  C   UNL     1       2.291   3.396  21.660  0.00  0.00    +0.000 C 
BRANCH  16  19
ATOM     18  C   UNL     1       0.514   1.982  19.028  0.00  0.00    +0.000 C 
ATOM     19  C   UNL     1       0.575   3.305  19.777  0.00  0.00    +0.000 C 
ENDBRANCH  16  19
ENDBRANCH   1  16
TORSDOF 3
ENDMDL
MODEL 5
REMARK VINA RESULT:      -7.5      2.717      5.518
REMARK  Name = 
REMARK  5 active torsions:
REMARK  status: ('A' for Active; 'I' for Inactive)
REMARK    1  A    between atoms: C_1  and  C_2
REMARK    2  A    between atoms: C_2  and  C_3
REMARK    3  A    between atoms: C_3  and  C_4
REMARK    4  A    between atoms: C_3  and  C_5
REMARK    5  A    between atoms: N_9  and  C_10
REMARK                            x       y       z     vdW  Elec       q    Type
REMARK                         _______ _______ _______ _____ _____    ______ ____
ROOT
ATOM      1  C   UNL     1       5.860   5.839  18.742  0.00  0.00    +0.000 C 
ATOM      2  N   UNL     1       5.901   4.637  19.533  0.00  0.00    +0.000 N 
ATOM      3  C   UNL     1       4.968   3.713  19.136  0.00  0.00    +0.000 C 
ATOM      4  O   UNL     1       4.898   2.600  19.631  0.00  0.00    +0.000 OA
ATOM      5  N   UNL     1       4.196   4.256  18.153  0.00  0.00    +0.000 N 
ATOM      6  C   UNL     1       4.566   5.570  17.970  0.00  0.00    +0.000 C 
ATOM      7  O   UNL     1       3.981   6.387  17.272  0.00  0.00    +0.000 OA
ATOM      8  H   UNL     1       6.598   4.408  20.231  0.00  0.00    +0.000 HD
ENDROOT
BRANCH   5   9
ATOM      9  C   UNL     1       2.989   3.695  17.531  0.00  0.00    +0.000 C 
ATOM     10  C   UNL     1       1.697   4.520  17.665  0.00  0.00    +0.000 C 
ATOM     11  C   UNL     1       1.148   4.252  19.058  0.00  0.00    +0.000 C 
ATOM     12  S   UNL     1       1.366   2.500  19.275  0.00  0.00    +0.000 S 
ATOM     13  O   UNL     1       0.177   1.827  18.795  0.00  0.00    +0.000 OA
ATOM     14  O   UNL     1       1.913   2.257  20.593  0.00  0.00    +0.000 OA
ATOM     15  C   UNL     1       2.657   2.289  18.064  0.00  0.00    +0.000 C 
ENDBRANCH   5   9
BRANCH   1  16
ATOM     16  C   UNL     1       7.113   5.969  17.853  0.00  0.00    +0.000 C 
ATOM     17  C   UNL     1       7.813   4.614  17.714  0.00  0.00    +0.000 C 
BRANCH  16  19
ATOM     18  C   UNL     1       7.848   8.425  17.682  0.00  0.00    +0.000 C 
ATOM     19  C   UNL     1       8.084   7.071  18.336  0.00  0.00    +0.000 C 
ENDBRANCH  16  19
ENDBRANCH   1  16
TORSDOF 3
ENDMDL
MODEL 6
REMARK VINA RESULT:      -7.5      1.930      2.644
REMARK  Name = 
REMARK  5 active torsions:
REMARK  status: ('A' for Active; 'I' for Inactive)
REMARK    1  A    between atoms: C_1  and  C_2
REMARK    2  A    between atoms: C_2  and  C_3
REMARK    3  A    between atoms: C_3  and  C_4
REMARK    4  A    between atoms: C_3  and  C_5
REMARK    5  A    between atoms: N_9  and  C_10
REMARK                            x       y       z     vdW  Elec       q    Type
REMARK                         _______ _______ _______ _____ _____    ______ ____
ROOT
ATOM      1  C   UNL     1       3.199   4.177  19.873  0.00  0.00    +0.000 C 
ATOM      2  N   UNL     1       3.258   5.506  19.324  0.00  0.00    +0.000 N 
ATOM      3  C   UNL     1       4.322   5.679  18.475  0.00  0.00    +0.000 C 
ATOM      4  O   UNL     1       4.499   6.711  17.849  0.00  0.00    +0.000 OA
ATOM      5  N   UNL     1       5.080   4.546  18.478  0.00  0.00    +0.000 N 
ATOM      6  C   UNL     1       4.561   3.664  19.400  0.00  0.00    +0.000 C 
ATOM      7  O   UNL     1       5.082   2.618  19.761  0.00  0.00    +0.000 OA
ATOM      8  H   UNL     1       2.554   6.225  19.430  0.00  0.00    +0.000 HD
ENDROOT
BRANCH   5   9
ATOM      9  C   UNL     1       6.383   4.323  17.838  0.00  0.00    +0.000 C 
ATOM     10  C   UNL     1       7.434   5.434  18.008  0.00  0.00    +0.000 C 
ATOM     11  C   UNL     1       7.086   6.523  17.004  0.00  0.00    +0.000 C 
ATOM     12  S   UNL     1       6.657   5.626  15.529  0.00  0.00    +0.000 S 
ATOM     13  O   UNL     1       7.858   5.436  14.743  0.00  0.00    +0.000 OA
ATOM     14  O   UNL     1       5.449   6.195  14.970  0.00  0.00    +0.000 OA
ATOM     15  C   UNL     1       6.256   4.081  16.323  0.00  0.00    +0.000 C 
ENDBRANCH   5   9
BRANCH   1  16
ATOM     16  C   UNL     1       1.997   3.391  19.312  0.00  0.00    +0.000 C 
ATOM     17  C   UNL     1       1.460   4.067  18.046  0.00  0.00    +0.000 C 
BRANCH  16  19
ATOM     18  C   UNL     1       1.398   2.691  21.710  0.00  0.00    +0.000 C 
ATOM     19  C   UNL     1       0.882   3.164  20.359  0.00  0.00    +0.000 C 
ENDBRANCH  16  19
ENDBRANCH   1  16
TORSDOF 3
ENDMDL
MODEL 7
REMARK VINA RESULT:      -7.4      2.523      5.493
REMARK  Name = 
REMARK  5 active torsions:
REMARK  status: ('A' for Active; 'I' for Inactive)
REMARK    1  A    between atoms: C_1  and  C_2
REMARK    2  A    between atoms: C_2  and  C_3
REMARK    3  A    between atoms: C_3  and  C_4
REMARK    4  A    between atoms: C_3  and  C_5
REMARK    5  A    between atoms: N_9  and  C_10
REMARK                            x       y       z     vdW  Elec       q    Type
REMARK                         _______ _______ _______ _____ _____    ______ ____
ROOT
ATOM      1  C   UNL     1       5.337   4.621  17.388  0.00  0.00    +0.000 C 
ATOM      2  N   UNL     1       4.259   4.339  16.478  0.00  0.00    +0.000 N 
ATOM      3  C   UNL     1       3.281   3.560  17.045  0.00  0.00    +0.000 C 
ATOM      4  O   UNL     1       2.248   3.279  16.461  0.00  0.00    +0.000 OA
ATOM      5  N   UNL     1       3.676   3.195  18.298  0.00  0.00    +0.000 N 
ATOM      6  C   UNL     1       4.954   3.660  18.516  0.00  0.00    +0.000 C 
ATOM      7  O   UNL     1       5.661   3.383  19.475  0.00  0.00    +0.000 OA
ATOM      8  H   UNL     1       4.135   4.744  15.559  0.00  0.00    +0.000 HD
ENDROOT
BRANCH   5   9
ATOM      9  C   UNL     1       3.024   2.252  19.216  0.00  0.00    +0.000 C 
ATOM     10  C   UNL     1       1.494   2.129  19.107  0.00  0.00    +0.000 C 
ATOM     11  C   UNL     1       0.904   3.318  19.850  0.00  0.00    +0.000 C 
ATOM     12  S   UNL     1       1.899   3.443  21.319  0.00  0.00    +0.000 S 
ATOM     13  O   UNL     1       1.291   2.633  22.354  0.00  0.00    +0.000 OA
ATOM     14  O   UNL     1       2.250   4.831  21.530  0.00  0.00    +0.000 OA
ATOM     15  C   UNL     1       3.324   2.574  20.692  0.00  0.00    +0.000 C 
ENDBRANCH   5   9
BRANCH   1  16
ATOM     16  C   UNL     1       5.352   6.107  17.799  0.00  0.00    +0.000 C 
ATOM     17  C   UNL     1       4.234   6.870  17.082  0.00  0.00    +0.000 C 
BRANCH  16  19
ATOM     18  C   UNL     1       7.777   6.348  18.610  0.00  0.00    +0.000 C 
ATOM     19  C   UNL     1       6.730   6.777  17.593  0.00  0.00    +0.000 C 
ENDBRANCH  16  19
ENDBRANCH   1  16
TORSDOF 3
ENDMDL
MODEL 8
REMARK VINA RESULT:      -7.4      1.900      2.401
REMARK  Name = 
REMARK  5 active torsions:
REMARK  status: ('A' for Active; 'I' for Inactive)
REMARK    1  A    between atoms: C_1  and  C_2
REMARK    2  A    between atoms: C_2  and  C_3
REMARK    3  A    between atoms: C_3  and  C_4
REMARK    4  A    between atoms: C_3  and  C_5
REMARK    5  A    between atoms: N_9  and  C_10
REMARK                            x       y       z     vdW  Elec       q    Type
REMARK                         _______ _______ _______ _____ _____    ______ ____
ROOT
ATOM      1  C   UNL     1       1.631   4.494  18.427  0.00  0.00    +0.000 C 
ATOM      2  N   UNL     1       2.324   3.313  17.985  0.00  0.00    +0.000 N 
ATOM      3  C   UNL     1       3.666   3.528  17.801  0.00  0.00    +0.000 C 
ATOM      4  O   UNL     1       4.438   2.630  17.505  0.00  0.00    +0.000 OA
ATOM      5  N   UNL     1       3.936   4.849  18.001  0.00  0.00    +0.000 N 
ATOM      6  C   UNL     1       2.752   5.516  18.227  0.00  0.00    +0.000 C 
ATOM      7  O   UNL     1       2.618   6.730  18.297  0.00  0.00    +0.000 OA
ATOM      8  H   UNL     1       1.931   2.382  17.919  0.00  0.00    +0.000 HD
ENDROOT
BRANCH   5   9
ATOM      9  C   UNL     1       5.199   5.563  17.775  0.00  0.00    +0.000 C 
ATOM     10  C   UNL     1       5.159   6.738  16.782  0.00  0.00    +0.000 C 
ATOM     11  C   UNL     1       5.208   6.135  15.387  0.00  0.00    +0.000 C 
ATOM     12  S   UNL     1       6.424   4.843  15.520  0.00  0.00    +0.000 S 
ATOM     13  O   UNL     1       7.723   5.402  15.206  0.00  0.00    +0.000 OA
ATOM     14  O   UNL     1       5.917   3.654  14.869  0.00  0.00    +0.000 OA
ATOM     15  C   UNL     1       6.320   4.627  17.286  0.00  0.00    +0.000 C 
ENDBRANCH   5   9
BRANCH   1  16
ATOM     16  C   UNL     1       1.155   4.353  19.887  0.00  0.00    +0.000 C 
ATOM     17  C   UNL     1       2.075   5.136  20.827  0.00  0.00    +0.000 C 
BRANCH  16  19
ATOM     18  C   UNL     1       1.755   2.542  21.607  0.00  0.00    +0.000 C 
ATOM     19  C   UNL     1       0.998   2.880  20.331  0.00  0.00    +0.000 C 
ENDBRANCH  16  19
ENDBRANCH   1  16
TORSDOF 3
ENDMDL
MODEL 9
REMARK VINA RESULT:      -7.3      2.520      5.559
REMARK  Name = 
REMARK  5 active torsions:
REMARK  status: ('A' for Active; 'I' for Inactive)
REMARK    1  A    between atoms: C_1  and  C_2
REMARK    2  A    between atoms: C_2  and  C_3
REMARK    3  A    between atoms: C_3  and  C_4
REMARK    4  A    between atoms: C_3  and  C_5
REMARK    5  A    between atoms: N_9  and  C_10
REMARK                            x       y       z     vdW  Elec       q    Type
REMARK                         _______ _______ _______ _____ _____    ______ ____
ROOT
ATOM      1  C   UNL     1       4.702   4.618  16.566  0.00  0.00    +0.000 C 
ATOM      2  N   UNL     1       5.354   4.979  17.797  0.00  0.00    +0.000 N 
ATOM      3  C   UNL     1       5.022   4.144  18.834  0.00  0.00    +0.000 C 
ATOM      4  O   UNL     1       5.532   4.237  19.938  0.00  0.00    +0.000 OA
ATOM      5  N   UNL     1       4.076   3.260  18.407  0.00  0.00    +0.000 N 
ATOM      6  C   UNL     1       3.723   3.576  17.113  0.00  0.00    +0.000 C 
ATOM      7  O   UNL     1       2.799   3.080  16.483  0.00  0.00    +0.000 OA
ATOM      8  H   UNL     1       6.073   5.683  17.904  0.00  0.00    +0.000 HD
ENDROOT
BRANCH   5   9
ATOM      9  C   UNL     1       3.322   2.282  19.201  0.00  0.00    +0.000 C 
ATOM     10  C   UNL     1       1.809   2.193  18.931  0.00  0.00    +0.000 C 
ATOM     11  C   UNL     1       1.162   3.350  19.676  0.00  0.00    +0.000 C 
ATOM     12  S   UNL     1       2.004   3.376  21.243  0.00  0.00    +0.000 S 
ATOM     13  O   UNL     1       1.283   2.523  22.164  0.00  0.00    +0.000 OA
ATOM     14  O   UNL     1       2.349   4.745  21.565  0.00  0.00    +0.000 OA
ATOM     15  C   UNL     1       3.474   2.517  20.715  0.00  0.00    +0.000 C 
ENDBRANCH   5   9
BRANCH   1  16
ATOM     16  C   UNL     1       5.708   4.063  15.539  0.00  0.00    +0.000 C 
ATOM     17  C   UNL     1       7.098   4.663  15.774  0.00  0.00    +0.000 C 
BRANCH  16  19
ATOM     18  C   UNL     1       6.208   3.676  13.048  0.00  0.00    +0.000 C 
ATOM     19  C   UNL     1       5.242   4.249  14.076  0.00  0.00    +0.000 C 
ENDBRANCH  16  19
ENDBRANCH   1  16
TORSDOF 3
ENDMDL
