MODEL 1
REMARK VINA RESULT:      -7.4      0.000      0.000
REMARK  Name = 
REMARK  16 active torsions:
REMARK  status: ('A' for Active; 'I' for Inactive)
REMARK    1  A    between atoms: C_1  and  N_2
REMARK    2  A    between atoms: N_2  and  C_3
REMARK    3  A    between atoms: N_2  and  C_4
REMARK    4  A    between atoms: C_4  and  C_5
REMARK    5  A    between atoms: C_5  and  C_6
REMARK    6  A    between atoms: C_6  and  N_7
REMARK    7  A    between atoms: N_10  and  C_11
REMARK    8  A    between atoms: C_15  and  N_16
REMARK    9  A    between atoms: C_17  and  C_19
REMARK   10  A    between atoms: C_22  and  C_23
REMARK   11  A    between atoms: N_25  and  C_26
REMARK   12  A    between atoms: C_26  and  C_27
REMARK   13  A    between atoms: C_27  and  C_28
REMARK   14  A    between atoms: C_28  and  N_29
REMARK   15  A    between atoms: N_29  and  C_30
REMARK   16  A    between atoms: N_29  and  C_31
REMARK                            x       y       z     vdW  Elec       q    Type
REMARK                         _______ _______ _______ _____ _____    ______ ____
ROOT
ATOM      1  N   UNL     1       1.747   6.340  20.845  0.00  0.00    +0.000 N 
ATOM      2  C   UNL     1       1.896   7.354  19.912  0.00  0.00    +0.000 C 
ATOM      3  O   UNL     1       2.384   7.274  18.791  0.00  0.00    +0.000 OA
ATOM      4  H   UNL     1       1.156   6.525  21.647  0.00  0.00    +0.000 HD
ENDROOT
BRANCH   1   9
ATOM      5  C   UNL     1       3.684   3.425  19.575  0.00  0.00    +0.000 A 
ATOM      6  C   UNL     1       3.232   2.423  20.433  0.00  0.00    +0.000 A 
ATOM      7  C   UNL     1       2.273   2.694  21.400  0.00  0.00    +0.000 A 
ATOM      8  C   UNL     1       1.766   3.982  21.541  0.00  0.00    +0.000 A 
ATOM      9  C   UNL     1       2.231   5.017  20.727  0.00  0.00    +0.000 A 
ATOM     10  C   UNL     1       3.191   4.732  19.740  0.00  0.00    +0.000 A 
BRANCH   5  14
ATOM     11  N   UNL     1       5.648   3.301  16.509  0.00  0.00    +0.000 N 
ATOM     12  C   UNL     1       4.680   3.812  17.337  0.00  0.00    +0.000 C 
ATOM     13  O   UNL     1       3.998   4.772  17.003  0.00  0.00    +0.000 OA
ATOM     14  N   UNL     1       4.629   3.157  18.556  0.00  0.00    +0.000 N 
ATOM     15  H   UNL     1       6.011   2.374  16.667  0.00  0.00    +0.000 HD
ATOM     16  H   UNL     1       5.453   2.636  18.809  0.00  0.00    +0.000 HD
BRANCH  11  17
ATOM     17  C   UNL     1       5.890   3.925  15.220  0.00  0.00    +0.000 C 
BRANCH  17  18
ATOM     18  C   UNL     1       7.049   4.920  15.283  0.00  0.00    +0.000 C 
BRANCH  18  19
ATOM     19  C   UNL     1       6.689   6.212  16.030  0.00  0.00    +0.000 C 
BRANCH  19  21
ATOM     20  C   UNL     1       7.519   8.002  17.456  0.00  0.00    +0.000 C 
ATOM     21  N   UNL     1       7.673   6.601  17.056  0.00  0.00    +0.000 NA
ATOM     22  C   UNL     1       7.549   5.732  18.228  0.00  0.00    +0.000 C 
ENDBRANCH  19  21
ENDBRANCH  18  19
ENDBRANCH  17  18
ENDBRANCH  11  17
ENDBRANCH   5  14
ENDBRANCH   1   9
BRANCH   2  23
ATOM     23  C   UNL     1       1.325   8.664  20.310  0.00  0.00    +0.000 A 
ATOM     24  C   UNL     1       1.104   9.677  19.373  0.00  0.00    +0.000 A 
ATOM     25  C   UNL     1       0.587  10.902  19.797  0.00  0.00    +0.000 A 
ATOM     26  C   UNL     1       0.279  11.128  21.150  0.00  0.00    +0.000 A 
ATOM     27  C   UNL     1       0.470  10.094  22.076  0.00  0.00    +0.000 A 
ATOM     28  C   UNL     1       0.987   8.865  21.653  0.00  0.00    +0.000 A 
BRANCH  26  29
ATOM     29  C   UNL     1      -0.238  12.482  21.510  0.00  0.00    +0.000 C 
ATOM     30  O   UNL     1       0.529  13.311  21.990  0.00  0.00    +0.000 OA
ATOM     31  N   UNL     1      -1.571  12.746  21.286  0.00  0.00    +0.000 N 
ATOM     32  H   UNL     1      -2.166  12.100  20.792  0.00  0.00    +0.000 HD
BRANCH  31  33
ATOM     33  C   UNL     1      -2.121  14.066  21.516  0.00  0.00    +0.000 C 
BRANCH  33  34
ATOM     34  C   UNL     1      -3.402  14.013  22.345  0.00  0.00    +0.000 C 
BRANCH  34  35
ATOM     35  C   UNL     1      -4.190  12.707  22.168  0.00  0.00    +0.000 C 
BRANCH  35  36
ATOM     36  N   UNL     1      -5.001  12.322  23.337  0.00  0.00    +0.000 NA
ATOM     37  C   UNL     1      -4.256  12.464  24.590  0.00  0.00    +0.000 C 
ATOM     38  C   UNL     1      -6.219  13.137  23.394  0.00  0.00    +0.000 C 
ENDBRANCH  35  36
ENDBRANCH  34  35
ENDBRANCH  33  34
ENDBRANCH  31  33
ENDBRANCH  26  29
ENDBRANCH   2  23
TORSDOF 12
ENDMDL
MODEL 2
REMARK VINA RESULT:      -7.4      1.072      1.303
REMARK  Name = 
REMARK  16 active torsions:
REMARK  status: ('A' for Active; 'I' for Inactive)
REMARK    1  A    between atoms: C_1  and  N_2
REMARK    2  A    between atoms: N_2  and  C_3
REMARK    3  A    between atoms: N_2  and  C_4
REMARK    4  A    between atoms: C_4  and  C_5
REMARK    5  A    between atoms: C_5  and  C_6
REMARK    6  A    between atoms: C_6  and  N_7
REMARK    7  A    between atoms: N_10  and  C_11
REMARK    8  A    between atoms: C_15  and  N_16
REMARK    9  A    between atoms: C_17  and  C_19
REMARK   10  A    between atoms: C_22  and  C_23
REMARK   11  A    between atoms: N_25  and  C_26
REMARK   12  A    between atoms: C_26  and  C_27
REMARK   13  A    between atoms: C_27  and  C_28
REMARK   14  A    between atoms: C_28  and  N_29
REMARK   15  A    between atoms: N_29  and  C_30
REMARK   16  A    between atoms: N_29  and  C_31
REMARK                            x       y       z     vdW  Elec       q    Type
REMARK                         _______ _______ _______ _____ _____    ______ ____
ROOT
ATOM      1  N   UNL     1       1.539   6.216  21.127  0.00  0.00    +0.000 N 
ATOM      2  C   UNL     1       1.735   7.385  20.406  0.00  0.00    +0.000 C 
ATOM      3  O   UNL     1       2.373   7.526  19.369  0.00  0.00    +0.000 OA
ATOM      4  H   UNL     1       0.835   6.229  21.854  0.00  0.00    +0.000 HD
ENDROOT
BRANCH   1   9
ATOM      5  C   UNL     1       3.799   3.660  19.636  0.00  0.00    +0.000 A 
ATOM      6  C   UNL     1       3.349   2.510  20.284  0.00  0.00    +0.000 A 
ATOM      7  C   UNL     1       2.288   2.567  21.178  0.00  0.00    +0.000 A 
ATOM      8  C   UNL     1       1.674   3.784  21.459  0.00  0.00    +0.000 A 
ATOM      9  C   UNL     1       2.131   4.960  20.861  0.00  0.00    +0.000 A 
ATOM     10  C   UNL     1       3.195   4.893  19.944  0.00  0.00    +0.000 A 
BRANCH   5  14
ATOM     11  N   UNL     1       5.858   3.500  16.636  0.00  0.00    +0.000 N 
ATOM     12  C   UNL     1       4.674   3.631  17.316  0.00  0.00    +0.000 C 
ATOM     13  O   UNL     1       3.615   3.794  16.724  0.00  0.00    +0.000 OA
ATOM     14  N   UNL     1       4.850   3.613  18.690  0.00  0.00    +0.000 N 
ATOM     15  H   UNL     1       6.665   3.108  17.096  0.00  0.00    +0.000 HD
ATOM     16  H   UNL     1       5.781   3.816  19.015  0.00  0.00    +0.000 HD
BRANCH  11  17
ATOM     17  C   UNL     1       5.865   3.579  15.186  0.00  0.00    +0.000 C 
BRANCH  17  18
ATOM     18  C   UNL     1       6.147   5.000  14.699  0.00  0.00    +0.000 C 
BRANCH  18  19
ATOM     19  C   UNL     1       7.216   5.718  15.535  0.00  0.00    +0.000 C 
BRANCH  19  21
ATOM     20  C   UNL     1       5.221   6.880  16.310  0.00  0.00    +0.000 C 
ATOM     21  N   UNL     1       6.681   6.797  16.386  0.00  0.00    +0.000 NA
ATOM     22  C   UNL     1       7.098   6.595  17.775  0.00  0.00    +0.000 C 
ENDBRANCH  19  21
ENDBRANCH  18  19
ENDBRANCH  17  18
ENDBRANCH  11  17
ENDBRANCH   5  14
ENDBRANCH   1   9
BRANCH   2  23
ATOM     23  C   UNL     1       1.022   8.574  20.929  0.00  0.00    +0.000 A 
ATOM     24  C   UNL     1       0.591   9.597  20.081  0.00  0.00    +0.000 A 
ATOM     25  C   UNL     1      -0.056  10.709  20.622  0.00  0.00    +0.000 A 
ATOM     26  C   UNL     1      -0.287  10.811  22.004  0.00  0.00    +0.000 A 
ATOM     27  C   UNL     1       0.116   9.764  22.843  0.00  0.00    +0.000 A 
ATOM     28  C   UNL     1       0.763   8.648  22.303  0.00  0.00    +0.000 A 
BRANCH  26  29
ATOM     29  C   UNL     1      -0.956  12.055  22.490  0.00  0.00    +0.000 C 
ATOM     30  O   UNL     1      -0.280  12.942  23.003  0.00  0.00    +0.000 OA
ATOM     31  N   UNL     1      -2.322  12.155  22.341  0.00  0.00    +0.000 N 
ATOM     32  H   UNL     1      -2.852  11.473  21.822  0.00  0.00    +0.000 HD
BRANCH  31  33
ATOM     33  C   UNL     1      -3.026  13.370  22.695  0.00  0.00    +0.000 C 
BRANCH  33  34
ATOM     34  C   UNL     1      -4.467  13.090  23.117  0.00  0.00    +0.000 C 
BRANCH  34  35
ATOM     35  C   UNL     1      -5.506  13.865  22.293  0.00  0.00    +0.000 C 
BRANCH  35  36
ATOM     36  N   UNL     1      -6.574  14.491  23.095  0.00  0.00    +0.000 NA
ATOM     37  C   UNL     1      -7.175  13.544  24.037  0.00  0.00    +0.000 C 
ATOM     38  C   UNL     1      -6.042  15.644  23.828  0.00  0.00    +0.000 C 
ENDBRANCH  35  36
ENDBRANCH  34  35
ENDBRANCH  33  34
ENDBRANCH  31  33
ENDBRANCH  26  29
ENDBRANCH   2  23
TORSDOF 12
ENDMDL
MODEL 3
REMARK VINA RESULT:      -7.2      3.292     12.158
REMARK  Name = 
REMARK  16 active torsions:
REMARK  status: ('A' for Active; 'I' for Inactive)
REMARK    1  A    between atoms: C_1  and  N_2
REMARK    2  A    between atoms: N_2  and  C_3
REMARK    3  A    between atoms: N_2  and  C_4
REMARK    4  A    between atoms: C_4  and  C_5
REMARK    5  A    between atoms: C_5  and  C_6
REMARK    6  A    between atoms: C_6  and  N_7
REMARK    7  A    between atoms: N_10  and  C_11
REMARK    8  A    between atoms: C_15  and  N_16
REMARK    9  A    between atoms: C_17  and  C_19
REMARK   10  A    between atoms: C_22  and  C_23
REMARK   11  A    between atoms: N_25  and  C_26
REMARK   12  A    between atoms: C_26  and  C_27
REMARK   13  A    between atoms: C_27  and  C_28
REMARK   14  A    between atoms: C_28  and  N_29
REMARK   15  A    between atoms: N_29  and  C_30
REMARK   16  A    between atoms: N_29  and  C_31
REMARK                            x       y       z     vdW  Elec       q    Type
REMARK                         _______ _______ _______ _____ _____    ______ ____
ROOT
ATOM      1  N   UNL     1       0.888   9.699  19.186  0.00  0.00    +0.000 N 
ATOM      2  C   UNL     1       1.166   8.573  19.947  0.00  0.00    +0.000 C 
ATOM      3  O   UNL     1       0.631   8.227  20.994  0.00  0.00    +0.000 OA
ATOM      4  H   UNL     1       1.285   9.744  18.256  0.00  0.00    +0.000 HD
ENDROOT
BRANCH   1   9
ATOM      5  C   UNL     1      -2.019  12.017  18.986  0.00  0.00    +0.000 A 
ATOM      6  C   UNL     1      -1.819  12.779  20.135  0.00  0.00    +0.000 A 
ATOM      7  C   UNL     1      -0.719  12.558  20.953  0.00  0.00    +0.000 A 
ATOM      8  C   UNL     1       0.189  11.549  20.646  0.00  0.00    +0.000 A 
ATOM      9  C   UNL     1      -0.008  10.738  19.527  0.00  0.00    +0.000 A 
ATOM     10  C   UNL     1      -1.115  10.978  18.694  0.00  0.00    +0.000 A 
BRANCH   5  14
ATOM     11  N   UNL     1      -5.284  12.291  17.393  0.00  0.00    +0.000 N 
ATOM     12  C   UNL     1      -4.440  12.047  18.447  0.00  0.00    +0.000 C 
ATOM     13  O   UNL     1      -4.872  11.729  19.548  0.00  0.00    +0.000 OA
ATOM     14  N   UNL     1      -3.111  12.257  18.118  0.00  0.00    +0.000 N 
ATOM     15  H   UNL     1      -4.929  12.287  16.449  0.00  0.00    +0.000 HD
ATOM     16  H   UNL     1      -2.945  12.831  17.307  0.00  0.00    +0.000 HD
BRANCH  11  17
ATOM     17  C   UNL     1      -6.720  12.196  17.588  0.00  0.00    +0.000 C 
BRANCH  17  18
ATOM     18  C   UNL     1      -7.425  13.506  17.236  0.00  0.00    +0.000 C 
BRANCH  18  19
ATOM     19  C   UNL     1      -7.673  14.400  18.460  0.00  0.00    +0.000 C 
BRANCH  19  21
ATOM     20  C   UNL     1      -6.387  16.452  18.701  0.00  0.00    +0.000 C 
ATOM     21  N   UNL     1      -6.452  15.021  19.003  0.00  0.00    +0.000 NA
ATOM     22  C   UNL     1      -6.381  14.812  20.450  0.00  0.00    +0.000 C 
ENDBRANCH  19  21
ENDBRANCH  18  19
ENDBRANCH  17  18
ENDBRANCH  11  17
ENDBRANCH   5  14
ENDBRANCH   1   9
BRANCH   2  23
ATOM     23  C   UNL     1       2.182   7.660  19.371  0.00  0.00    +0.000 A 
ATOM     24  C   UNL     1       2.553   6.480  20.022  0.00  0.00    +0.000 A 
ATOM     25  C   UNL     1       3.531   5.663  19.454  0.00  0.00    +0.000 A 
ATOM     26  C   UNL     1       4.142   6.005  18.234  0.00  0.00    +0.000 A 
ATOM     27  C   UNL     1       3.738   7.170  17.572  0.00  0.00    +0.000 A 
ATOM     28  C   UNL     1       2.756   7.991  18.138  0.00  0.00    +0.000 A 
BRANCH  26  29
ATOM     29  C   UNL     1       5.201   5.083  17.725  0.00  0.00    +0.000 C 
ATOM     30  O   UNL     1       5.337   3.978  18.240  0.00  0.00    +0.000 OA
ATOM     31  N   UNL     1       5.992   5.520  16.685  0.00  0.00    +0.000 N 
ATOM     32  H   UNL     1       5.803   6.381  16.197  0.00  0.00    +0.000 HD
BRANCH  31  33
ATOM     33  C   UNL     1       6.971   4.646  16.072  0.00  0.00    +0.000 C 
BRANCH  33  34
ATOM     34  C   UNL     1       6.925   4.720  14.548  0.00  0.00    +0.000 C 
BRANCH  34  35
ATOM     35  C   UNL     1       5.710   4.004  13.938  0.00  0.00    +0.000 C 
BRANCH  35  36
ATOM     36  N   UNL     1       5.985   3.320  12.661  0.00  0.00    +0.000 NA
ATOM     37  C   UNL     1       4.808   3.298  11.789  0.00  0.00    +0.000 C 
ATOM     38  C   UNL     1       7.098   3.977  11.968  0.00  0.00    +0.000 C 
ENDBRANCH  35  36
ENDBRANCH  34  35
ENDBRANCH  33  34
ENDBRANCH  31  33
ENDBRANCH  26  29
ENDBRANCH   2  23
TORSDOF 12
ENDMDL
MODEL 4
REMARK VINA RESULT:      -7.2      2.801     11.374
REMARK  Name = 
REMARK  16 active torsions:
REMARK  status: ('A' for Active; 'I' for Inactive)
REMARK    1  A    between atoms: C_1  and  N_2
REMARK    2  A    between atoms: N_2  and  C_3
REMARK    3  A    between atoms: N_2  and  C_4
REMARK    4  A    between atoms: C_4  and  C_5
REMARK    5  A    between atoms: C_5  and  C_6
REMARK    6  A    between atoms: C_6  and  N_7
REMARK    7  A    between atoms: N_10  and  C_11
REMARK    8  A    between atoms: C_15  and  N_16
REMARK    9  A    between atoms: C_17  and  C_19
REMARK   10  A    between atoms: C_22  and  C_23
REMARK   11  A    between atoms: N_25  and  C_26
REMARK   12  A    between atoms: C_26  and  C_27
REMARK   13  A    between atoms: C_27  and  C_28
REMARK   14  A    between atoms: C_28  and  N_29
REMARK   15  A    between atoms: N_29  and  C_30
REMARK   16  A    between atoms: N_29  and  C_31
REMARK                            x       y       z     vdW  Elec       q    Type
REMARK                         _______ _______ _______ _____ _____    ______ ____
ROOT
ATOM      1  N   UNL     1       0.833  11.298  19.947  0.00  0.00    +0.000 N 
ATOM      2  C   UNL     1       0.686  10.077  20.589  0.00  0.00    +0.000 C 
ATOM      3  O   UNL     1       0.041   9.838  21.603  0.00  0.00    +0.000 OA
ATOM      4  H   UNL     1       1.241  11.292  19.020  0.00  0.00    +0.000 HD
ENDROOT
BRANCH   1   9
ATOM      5  C   UNL     1      -1.490  14.153  20.508  0.00  0.00    +0.000 A 
ATOM      6  C   UNL     1      -0.679  14.999  21.263  0.00  0.00    +0.000 A 
ATOM      7  C   UNL     1       0.632  14.650  21.559  0.00  0.00    +0.000 A 
ATOM      8  C   UNL     1       1.148  13.435  21.121  0.00  0.00    +0.000 A 
ATOM      9  C   UNL     1       0.348  12.546  20.401  0.00  0.00    +0.000 A 
ATOM     10  C   UNL     1      -0.975  12.912  20.093  0.00  0.00    +0.000 A 
BRANCH   5  14
ATOM     11  N   UNL     1      -5.105  14.466  20.184  0.00  0.00    +0.000 N 
ATOM     12  C   UNL     1      -3.952  14.003  20.766  0.00  0.00    +0.000 C 
ATOM     13  O   UNL     1      -3.984  13.264  21.742  0.00  0.00    +0.000 OA
ATOM     14  N   UNL     1      -2.814  14.512  20.161  0.00  0.00    +0.000 N 
ATOM     15  H   UNL     1      -5.083  14.842  19.248  0.00  0.00    +0.000 HD
ATOM     16  H   UNL     1      -2.944  15.348  19.616  0.00  0.00    +0.000 HD
BRANCH  11  17
ATOM     17  C   UNL     1      -6.391  14.095  20.746  0.00  0.00    +0.000 C 
BRANCH  17  18
ATOM     18  C   UNL     1      -6.804  12.684  20.329  0.00  0.00    +0.000 C 
BRANCH  18  19
ATOM     19  C   UNL     1      -7.271  12.603  18.869  0.00  0.00    +0.000 C 
BRANCH  19  21
ATOM     20  C   UNL     1      -5.501  11.975  17.321  0.00  0.00    +0.000 C 
ATOM     21  N   UNL     1      -6.272  13.079  17.896  0.00  0.00    +0.000 NA
ATOM     22  C   UNL     1      -6.929  13.837  16.830  0.00  0.00    +0.000 C 
ENDBRANCH  19  21
ENDBRANCH  18  19
ENDBRANCH  17  18
ENDBRANCH  11  17
ENDBRANCH   5  14
ENDBRANCH   1   9
BRANCH   2  23
ATOM     23  C   UNL     1       1.333   8.928  19.911  0.00  0.00    +0.000 A 
ATOM     24  C   UNL     1       1.660   8.973  18.554  0.00  0.00    +0.000 A 
ATOM     25  C   UNL     1       2.247   7.859  17.953  0.00  0.00    +0.000 A 
ATOM     26  C   UNL     1       2.521   6.696  18.695  0.00  0.00    +0.000 A 
ATOM     27  C   UNL     1       2.223   6.674  20.063  0.00  0.00    +0.000 A 
ATOM     28  C   UNL     1       1.635   7.790  20.668  0.00  0.00    +0.000 A 
BRANCH  26  29
ATOM     29  C   UNL     1       3.119   5.545  17.955  0.00  0.00    +0.000 C 
ATOM     30  O   UNL     1       4.309   5.574  17.655  0.00  0.00    +0.000 OA
ATOM     31  N   UNL     1       2.299   4.486  17.635  0.00  0.00    +0.000 N 
ATOM     32  H   UNL     1       1.354   4.421  17.979  0.00  0.00    +0.000 HD
BRANCH  31  33
ATOM     33  C   UNL     1       2.829   3.292  17.008  0.00  0.00    +0.000 C 
BRANCH  33  34
ATOM     34  C   UNL     1       2.800   2.093  17.953  0.00  0.00    +0.000 C 
BRANCH  34  35
ATOM     35  C   UNL     1       1.783   2.240  19.094  0.00  0.00    +0.000 C 
BRANCH  35  36
ATOM     36  N   UNL     1       2.290   2.968  20.272  0.00  0.00    +0.000 NA
ATOM     37  C   UNL     1       1.462   2.732  21.457  0.00  0.00    +0.000 C 
ATOM     38  C   UNL     1       3.673   2.568  20.552  0.00  0.00    +0.000 C 
ENDBRANCH  35  36
ENDBRANCH  34  35
ENDBRANCH  33  34
ENDBRANCH  31  33
ENDBRANCH  26  29
ENDBRANCH   2  23
TORSDOF 12
ENDMDL
MODEL 5
REMARK VINA RESULT:      -7.1      4.825      8.509
REMARK  Name = 
REMARK  16 active torsions:
REMARK  status: ('A' for Active; 'I' for Inactive)
REMARK    1  A    between atoms: C_1  and  N_2
REMARK    2  A    between atoms: N_2  and  C_3
REMARK    3  A    between atoms: N_2  and  C_4
REMARK    4  A    between atoms: C_4  and  C_5
REMARK    5  A    between atoms: C_5  and  C_6
REMARK    6  A    between atoms: C_6  and  N_7
REMARK    7  A    between atoms: N_10  and  C_11
REMARK    8  A    between atoms: C_15  and  N_16
REMARK    9  A    between atoms: C_17  and  C_19
REMARK   10  A    between atoms: C_22  and  C_23
REMARK   11  A    between atoms: N_25  and  C_26
REMARK   12  A    between atoms: C_26  and  C_27
REMARK   13  A    between atoms: C_27  and  C_28
REMARK   14  A    between atoms: C_28  and  N_29
REMARK   15  A    between atoms: N_29  and  C_30
REMARK   16  A    between atoms: N_29  and  C_31
REMARK                            x       y       z     vdW  Elec       q    Type
REMARK                         _______ _______ _______ _____ _____    ______ ____
ROOT
ATOM      1  N   UNL     1       7.284   7.305  16.756  0.00  0.00    +0.000 N 
ATOM      2  C   UNL     1       7.885   7.574  17.977  0.00  0.00    +0.000 C 
ATOM      3  O   UNL     1       8.156   6.778  18.869  0.00  0.00    +0.000 OA
ATOM      4  H   UNL     1       7.300   8.036  16.056  0.00  0.00    +0.000 HD
ENDROOT
BRANCH   1   9
ATOM      5  C   UNL     1       5.196   4.222  16.716  0.00  0.00    +0.000 A 
ATOM      6  C   UNL     1       5.685   3.596  15.570  0.00  0.00    +0.000 A 
ATOM      7  C   UNL     1       6.716   4.165  14.835  0.00  0.00    +0.000 A 
ATOM      8  C   UNL     1       7.261   5.385  15.221  0.00  0.00    +0.000 A 
ATOM      9  C   UNL     1       6.763   6.059  16.337  0.00  0.00    +0.000 A 
ATOM     10  C   UNL     1       5.728   5.471  17.087  0.00  0.00    +0.000 A 
BRANCH   5  14
ATOM     11  N   UNL     1       3.131   2.831  19.375  0.00  0.00    +0.000 N 
ATOM     12  C   UNL     1       4.220   3.502  18.879  0.00  0.00    +0.000 C 
ATOM     13  O   UNL     1       5.082   3.955  19.622  0.00  0.00    +0.000 OA
ATOM     14  N   UNL     1       4.175   3.636  17.501  0.00  0.00    +0.000 N 
ATOM     15  H   UNL     1       2.581   2.243  18.769  0.00  0.00    +0.000 HD
ATOM     16  H   UNL     1       3.268   3.524  17.080  0.00  0.00    +0.000 HD
BRANCH  11  17
ATOM     17  C   UNL     1       2.980   2.672  20.811  0.00  0.00    +0.000 C 
BRANCH  17  18
ATOM     18  C   UNL     1       1.776   3.450  21.341  0.00  0.00    +0.000 C 
BRANCH  18  19
ATOM     19  C   UNL     1       1.282   4.527  20.365  0.00  0.00    +0.000 C 
BRANCH  19  21
ATOM     20  C   UNL     1       2.353   6.291  19.073  0.00  0.00    +0.000 C 
ATOM     21  N   UNL     1       2.060   5.778  20.413  0.00  0.00    +0.000 NA
ATOM     22  C   UNL     1       1.340   6.790  21.188  0.00  0.00    +0.000 C 
ENDBRANCH  19  21
ENDBRANCH  18  19
ENDBRANCH  17  18
ENDBRANCH  11  17
ENDBRANCH   5  14
ENDBRANCH   1   9
BRANCH   2  23
ATOM     23  C   UNL     1       8.305   8.982  18.175  0.00  0.00    +0.000 A 
ATOM     24  C   UNL     1       9.240   9.333  19.151  0.00  0.00    +0.000 A 
ATOM     25  C   UNL     1       9.588  10.674  19.317  0.00  0.00    +0.000 A 
ATOM     26  C   UNL     1       9.017  11.675  18.512  0.00  0.00    +0.000 A 
ATOM     27  C   UNL     1       8.107  11.310  17.511  0.00  0.00    +0.000 A 
ATOM     28  C   UNL     1       7.758   9.966  17.342  0.00  0.00    +0.000 A 
BRANCH  26  29
ATOM     29  C   UNL     1       9.428  13.084  18.788  0.00  0.00    +0.000 C 
ATOM     30  O   UNL     1       9.633  13.435  19.946  0.00  0.00    +0.000 OA
ATOM     31  N   UNL     1       9.559  13.941  17.718  0.00  0.00    +0.000 N 
ATOM     32  H   UNL     1       9.496  13.617  16.766  0.00  0.00    +0.000 HD
BRANCH  31  33
ATOM     33  C   UNL     1      10.050  15.292  17.897  0.00  0.00    +0.000 C 
BRANCH  33  34
ATOM     34  C   UNL     1       8.969  16.333  17.615  0.00  0.00    +0.000 C 
BRANCH  34  35
ATOM     35  C   UNL     1       8.226  16.799  18.875  0.00  0.00    +0.000 C 
BRANCH  35  36
ATOM     36  N   UNL     1       7.251  15.825  19.402  0.00  0.00    +0.000 NA
ATOM     37  C   UNL     1       6.511  16.359  20.547  0.00  0.00    +0.000 C 
ATOM     38  C   UNL     1       6.311  15.434  18.347  0.00  0.00    +0.000 C 
ENDBRANCH  35  36
ENDBRANCH  34  35
ENDBRANCH  33  34
ENDBRANCH  31  33
ENDBRANCH  26  29
ENDBRANCH   2  23
TORSDOF 12
ENDMDL
MODEL 6
REMARK VINA RESULT:      -7.0      1.852      2.982
REMARK  Name = 
REMARK  16 active torsions:
REMARK  status: ('A' for Active; 'I' for Inactive)
REMARK    1  A    between atoms: C_1  and  N_2
REMARK    2  A    between atoms: N_2  and  C_3
REMARK    3  A    between atoms: N_2  and  C_4
REMARK    4  A    between atoms: C_4  and  C_5
REMARK    5  A    between atoms: C_5  and  C_6
REMARK    6  A    between atoms: C_6  and  N_7
REMARK    7  A    between atoms: N_10  and  C_11
REMARK    8  A    between atoms: C_15  and  N_16
REMARK    9  A    between atoms: C_17  and  C_19
REMARK   10  A    between atoms: C_22  and  C_23
REMARK   11  A    between atoms: N_25  and  C_26
REMARK   12  A    between atoms: C_26  and  C_27
REMARK   13  A    between atoms: C_27  and  C_28
REMARK   14  A    between atoms: C_28  and  N_29
REMARK   15  A    between atoms: N_29  and  C_30
REMARK   16  A    between atoms: N_29  and  C_31
REMARK                            x       y       z     vdW  Elec       q    Type
REMARK                         _______ _______ _______ _____ _____    ______ ____
ROOT
ATOM      1  N   UNL     1       1.678   6.113  20.829  0.00  0.00    +0.000 N 
ATOM      2  C   UNL     1       2.007   7.213  20.051  0.00  0.00    +0.000 C 
ATOM      3  O   UNL     1       2.776   7.252  19.097  0.00  0.00    +0.000 OA
ATOM      4  H   UNL     1       0.889   6.203  21.456  0.00  0.00    +0.000 HD
ENDROOT
BRANCH   1   9
ATOM      5  C   UNL     1       3.730   3.278  19.557  0.00  0.00    +0.000 A 
ATOM      6  C   UNL     1       3.427   2.298  20.501  0.00  0.00    +0.000 A 
ATOM      7  C   UNL     1       2.529   2.554  21.529  0.00  0.00    +0.000 A 
ATOM      8  C   UNL     1       1.937   3.808  21.644  0.00  0.00    +0.000 A 
ATOM      9  C   UNL     1       2.254   4.824  20.741  0.00  0.00    +0.000 A 
ATOM     10  C   UNL     1       3.152   4.553  19.693  0.00  0.00    +0.000 A 
BRANCH   5  14
ATOM     11  N   UNL     1       5.541   3.234  16.397  0.00  0.00    +0.000 N 
ATOM     12  C   UNL     1       4.645   3.747  17.300  0.00  0.00    +0.000 C 
ATOM     13  O   UNL     1       4.009   4.766  17.059  0.00  0.00    +0.000 OA
ATOM     14  N   UNL     1       4.609   3.020  18.479  0.00  0.00    +0.000 N 
ATOM     15  H   UNL     1       5.853   2.279  16.480  0.00  0.00    +0.000 HD
ATOM     16  H   UNL     1       5.410   2.437  18.658  0.00  0.00    +0.000 HD
BRANCH  11  17
ATOM     17  C   UNL     1       5.763   3.923  15.137  0.00  0.00    +0.000 C 
BRANCH  17  18
ATOM     18  C   UNL     1       6.817   5.021  15.273  0.00  0.00    +0.000 C 
BRANCH  18  19
ATOM     19  C   UNL     1       7.676   4.875  16.536  0.00  0.00    +0.000 C 
BRANCH  19  21
ATOM     20  C   UNL     1       6.530   6.950  17.092  0.00  0.00    +0.000 C 
ATOM     21  N   UNL     1       7.640   6.053  17.422  0.00  0.00    +0.000 NA
ATOM     22  C   UNL     1       7.541   5.630  18.820  0.00  0.00    +0.000 C 
ENDBRANCH  19  21
ENDBRANCH  18  19
ENDBRANCH  17  18
ENDBRANCH  11  17
ENDBRANCH   5  14
ENDBRANCH   1   9
BRANCH   2  23
ATOM     23  C   UNL     1       1.277   8.460  20.383  0.00  0.00    +0.000 A 
ATOM     24  C   UNL     1       0.996   9.421  19.410  0.00  0.00    +0.000 A 
ATOM     25  C   UNL     1       0.327  10.590  19.774  0.00  0.00    +0.000 A 
ATOM     26  C   UNL     1      -0.076  10.810  21.103  0.00  0.00    +0.000 A 
ATOM     27  C   UNL     1       0.179   9.825  22.065  0.00  0.00    +0.000 A 
ATOM     28  C   UNL     1       0.848   8.652  21.702  0.00  0.00    +0.000 A 
BRANCH  26  29
ATOM     29  C   UNL     1      -0.755  12.107  21.399  0.00  0.00    +0.000 C 
ATOM     30  O   UNL     1      -1.847  12.345  20.892  0.00  0.00    +0.000 OA
ATOM     31  N   UNL     1      -0.119  12.992  22.241  0.00  0.00    +0.000 N 
ATOM     32  H   UNL     1       0.721  12.744  22.739  0.00  0.00    +0.000 HD
BRANCH  31  33
ATOM     33  C   UNL     1      -0.761  14.223  22.655  0.00  0.00    +0.000 C 
BRANCH  33  34
ATOM     34  C   UNL     1       0.041  15.452  22.233  0.00  0.00    +0.000 C 
BRANCH  34  35
ATOM     35  C   UNL     1       1.508  15.141  21.904  0.00  0.00    +0.000 C 
BRANCH  35  36
ATOM     36  N   UNL     1       1.760  14.821  20.486  0.00  0.00    +0.000 NA
ATOM     37  C   UNL     1       2.234  15.988  19.739  0.00  0.00    +0.000 C 
ATOM     38  C   UNL     1       2.743  13.738  20.383  0.00  0.00    +0.000 C 
ENDBRANCH  35  36
ENDBRANCH  34  35
ENDBRANCH  33  34
ENDBRANCH  31  33
ENDBRANCH  26  29
ENDBRANCH   2  23
TORSDOF 12
ENDMDL
MODEL 7
REMARK VINA RESULT:      -7.0      5.397     10.798
REMARK  Name = 
REMARK  16 active torsions:
REMARK  status: ('A' for Active; 'I' for Inactive)
REMARK    1  A    between atoms: C_1  and  N_2
REMARK    2  A    between atoms: N_2  and  C_3
REMARK    3  A    between atoms: N_2  and  C_4
REMARK    4  A    between atoms: C_4  and  C_5
REMARK    5  A    between atoms: C_5  and  C_6
REMARK    6  A    between atoms: C_6  and  N_7
REMARK    7  A    between atoms: N_10  and  C_11
REMARK    8  A    between atoms: C_15  and  N_16
REMARK    9  A    between atoms: C_17  and  C_19
REMARK   10  A    between atoms: C_22  and  C_23
REMARK   11  A    between atoms: N_25  and  C_26
REMARK   12  A    between atoms: C_26  and  C_27
REMARK   13  A    between atoms: C_27  and  C_28
REMARK   14  A    between atoms: C_28  and  N_29
REMARK   15  A    between atoms: N_29  and  C_30
REMARK   16  A    between atoms: N_29  and  C_31
REMARK                            x       y       z     vdW  Elec       q    Type
REMARK                         _______ _______ _______ _____ _____    ______ ____
ROOT
ATOM      1  N   UNL     1       8.950   9.238  19.005  0.00  0.00    +0.000 N 
ATOM      2  C   UNL     1       8.006   9.237  17.988  0.00  0.00    +0.000 C 
ATOM      3  O   UNL     1       7.692  10.170  17.259  0.00  0.00    +0.000 OA
ATOM      4  H   UNL     1       9.226   8.342  19.387  0.00  0.00    +0.000 HD
ENDROOT
BRANCH   1   9
ATOM      5  C   UNL     1       9.995  12.051  21.210  0.00  0.00    +0.000 A 
ATOM      6  C   UNL     1      11.051  12.579  20.469  0.00  0.00    +0.000 A 
ATOM      7  C   UNL     1      11.397  12.038  19.238  0.00  0.00    +0.000 A 
ATOM      8  C   UNL     1      10.704  10.940  18.737  0.00  0.00    +0.000 A 
ATOM      9  C   UNL     1       9.671  10.359  19.475  0.00  0.00    +0.000 A 
ATOM     10  C   UNL     1       9.316  10.922  20.715  0.00  0.00    +0.000 A 
BRANCH   5  14
ATOM     11  N   UNL     1       8.572  14.069  23.888  0.00  0.00    +0.000 N 
ATOM     12  C   UNL     1       8.717  13.674  22.582  0.00  0.00    +0.000 C 
ATOM     13  O   UNL     1       8.074  14.200  21.682  0.00  0.00    +0.000 OA
ATOM     14  N   UNL     1       9.601  12.616  22.445  0.00  0.00    +0.000 N 
ATOM     15  H   UNL     1       9.276  13.830  24.569  0.00  0.00    +0.000 HD
ATOM     16  H   UNL     1       9.779  12.083  23.281  0.00  0.00    +0.000 HD
BRANCH  11  17
ATOM     17  C   UNL     1       7.620  15.115  24.219  0.00  0.00    +0.000 C 
BRANCH  17  18
ATOM     18  C   UNL     1       6.738  14.720  25.403  0.00  0.00    +0.000 C 
BRANCH  18  19
ATOM     19  C   UNL     1       5.491  13.929  24.983  0.00  0.00    +0.000 C 
BRANCH  19  21
ATOM     20  C   UNL     1       6.045  11.682  24.228  0.00  0.00    +0.000 C 
ATOM     21  N   UNL     1       5.545  12.499  25.336  0.00  0.00    +0.000 NA
ATOM     22  C   UNL     1       6.384  12.303  26.520  0.00  0.00    +0.000 C 
ENDBRANCH  19  21
ENDBRANCH  18  19
ENDBRANCH  17  18
ENDBRANCH  11  17
ENDBRANCH   5  14
ENDBRANCH   1   9
BRANCH   2  23
ATOM     23  C   UNL     1       7.367   7.926  17.725  0.00  0.00    +0.000 A 
ATOM     24  C   UNL     1       6.257   7.813  16.884  0.00  0.00    +0.000 A 
ATOM     25  C   UNL     1       5.674   6.561  16.683  0.00  0.00    +0.000 A 
ATOM     26  C   UNL     1       6.191   5.413  17.308  0.00  0.00    +0.000 A 
ATOM     27  C   UNL     1       7.326   5.530  18.120  0.00  0.00    +0.000 A 
ATOM     28  C   UNL     1       7.913   6.783  18.322  0.00  0.00    +0.000 A 
BRANCH  26  29
ATOM     29  C   UNL     1       5.478   4.125  17.057  0.00  0.00    +0.000 C 
ATOM     30  O   UNL     1       5.797   3.436  16.093  0.00  0.00    +0.000 OA
ATOM     31  N   UNL     1       4.477   3.760  17.930  0.00  0.00    +0.000 N 
ATOM     32  H   UNL     1       4.297   4.274  18.778  0.00  0.00    +0.000 HD
BRANCH  31  33
ATOM     33  C   UNL     1       3.810   2.480  17.811  0.00  0.00    +0.000 C 
BRANCH  33  34
ATOM     34  C   UNL     1       2.301   2.604  18.009  0.00  0.00    +0.000 C 
BRANCH  34  35
ATOM     35  C   UNL     1       1.864   3.983  18.525  0.00  0.00    +0.000 C 
BRANCH  35  36
ATOM     36  N   UNL     1       2.148   4.217  19.953  0.00  0.00    +0.000 NA
ATOM     37  C   UNL     1       2.068   5.638  20.300  0.00  0.00    +0.000 C 
ATOM     38  C   UNL     1       1.210   3.455  20.783  0.00  0.00    +0.000 C 
ENDBRANCH  35  36
ENDBRANCH  34  35
ENDBRANCH  33  34
ENDBRANCH  31  33
ENDBRANCH  26  29
ENDBRANCH   2  23
TORSDOF 12
ENDMDL
MODEL 8
REMARK VINA RESULT:      -7.0      2.482     11.887
REMARK  Name = 
REMARK  16 active torsions:
REMARK  status: ('A' for Active; 'I' for Inactive)
REMARK    1  A    between atoms: C_1  and  N_2
REMARK    2  A    between atoms: N_2  and  C_3
REMARK    3  A    between atoms: N_2  and  C_4
REMARK    4  A    between atoms: C_4  and  C_5
REMARK    5  A    between atoms: C_5  and  C_6
REMARK    6  A    between atoms: C_6  and  N_7
REMARK    7  A    between atoms: N_10  and  C_11
REMARK    8  A    between atoms: C_15  and  N_16
REMARK    9  A    between atoms: C_17  and  C_19
REMARK   10  A    between atoms: C_22  and  C_23
REMARK   11  A    between atoms: N_25  and  C_26
REMARK   12  A    between atoms: C_26  and  C_27
REMARK   13  A    between atoms: C_27  and  C_28
REMARK   14  A    between atoms: C_28  and  N_29
REMARK   15  A    between atoms: N_29  and  C_30
REMARK   16  A    between atoms: N_29  and  C_31
REMARK                            x       y       z     vdW  Elec       q    Type
REMARK                         _______ _______ _______ _____ _____    ______ ____
ROOT
ATOM      1  N   UNL     1       0.854  11.181  20.964  0.00  0.00    +0.000 N 
ATOM      2  C   UNL     1       0.256  10.409  19.979  0.00  0.00    +0.000 C 
ATOM      3  O   UNL     1      -0.817  10.608  19.421  0.00  0.00    +0.000 OA
ATOM      4  H   UNL     1       1.822  10.986  21.186  0.00  0.00    +0.000 HD
ENDROOT
BRANCH   1   9
ATOM      5  C   UNL     1      -1.412  13.218  23.104  0.00  0.00    +0.000 A 
ATOM      6  C   UNL     1      -0.885  14.491  22.896  0.00  0.00    +0.000 A 
ATOM      7  C   UNL     1       0.185  14.686  22.034  0.00  0.00    +0.000 A 
ATOM      8  C   UNL     1       0.764  13.602  21.381  0.00  0.00    +0.000 A 
ATOM      9  C   UNL     1       0.288  12.308  21.602  0.00  0.00    +0.000 A 
ATOM     10  C   UNL     1      -0.807  12.120  22.465  0.00  0.00    +0.000 A 
BRANCH   5  14
ATOM     11  N   UNL     1      -4.706  12.586  24.526  0.00  0.00    +0.000 N 
ATOM     12  C   UNL     1      -3.793  12.651  23.504  0.00  0.00    +0.000 C 
ATOM     13  O   UNL     1      -4.104  12.367  22.354  0.00  0.00    +0.000 OA
ATOM     14  N   UNL     1      -2.530  13.007  23.946  0.00  0.00    +0.000 N 
ATOM     15  H   UNL     1      -4.526  13.064  25.396  0.00  0.00    +0.000 HD
ATOM     16  H   UNL     1      -2.356  12.874  24.929  0.00  0.00    +0.000 HD
BRANCH  11  17
ATOM     17  C   UNL     1      -6.063  12.149  24.249  0.00  0.00    +0.000 C 
BRANCH  17  18
ATOM     18  C   UNL     1      -7.020  13.332  24.108  0.00  0.00    +0.000 C 
BRANCH  18  19
ATOM     19  C   UNL     1      -7.916  13.234  22.866  0.00  0.00    +0.000 C 
BRANCH  19  21
ATOM     20  C   UNL     1      -7.903  11.237  21.473  0.00  0.00    +0.000 C 
ATOM     21  N   UNL     1      -7.285  12.539  21.729  0.00  0.00    +0.000 NA
ATOM     22  C   UNL     1      -7.359  13.372  20.527  0.00  0.00    +0.000 C 
ENDBRANCH  19  21
ENDBRANCH  18  19
ENDBRANCH  17  18
ENDBRANCH  11  17
ENDBRANCH   5  14
ENDBRANCH   1   9
BRANCH   2  23
ATOM     23  C   UNL     1       1.058   9.253  19.512  0.00  0.00    +0.000 A 
ATOM     24  C   UNL     1       1.384   8.199  20.368  0.00  0.00    +0.000 A 
ATOM     25  C   UNL     1       2.161   7.143  19.890  0.00  0.00    +0.000 A 
ATOM     26  C   UNL     1       2.613   7.121  18.559  0.00  0.00    +0.000 A 
ATOM     27  C   UNL     1       2.251   8.164  17.698  0.00  0.00    +0.000 A 
ATOM     28  C   UNL     1       1.471   9.223  18.174  0.00  0.00    +0.000 A 
BRANCH  26  29
ATOM     29  C   UNL     1       3.466   5.965  18.152  0.00  0.00    +0.000 C 
ATOM     30  O   UNL     1       4.678   6.012  18.346  0.00  0.00    +0.000 OA
ATOM     31  N   UNL     1       2.851   4.881  17.568  0.00  0.00    +0.000 N 
ATOM     32  H   UNL     1       1.847   4.804  17.514  0.00  0.00    +0.000 HD
BRANCH  31  33
ATOM     33  C   UNL     1       3.597   3.683  17.240  0.00  0.00    +0.000 C 
BRANCH  33  34
ATOM     34  C   UNL     1       2.913   2.424  17.766  0.00  0.00    +0.000 C 
BRANCH  34  35
ATOM     35  C   UNL     1       3.788   1.612  18.732  0.00  0.00    +0.000 C 
BRANCH  35  36
ATOM     36  N   UNL     1       4.141   2.321  19.976  0.00  0.00    +0.000 NA
ATOM     37  C   UNL     1       2.952   2.742  20.720  0.00  0.00    +0.000 C 
ATOM     38  C   UNL     1       4.973   1.462  20.824  0.00  0.00    +0.000 C 
ENDBRANCH  35  36
ENDBRANCH  34  35
ENDBRANCH  33  34
ENDBRANCH  31  33
ENDBRANCH  26  29
ENDBRANCH   2  23
TORSDOF 12
ENDMDL
MODEL 9
REMARK VINA RESULT:      -6.9      1.938      2.885
REMARK  Name = 
REMARK  16 active torsions:
REMARK  status: ('A' for Active; 'I' for Inactive)
REMARK    1  A    between atoms: C_1  and  N_2
REMARK    2  A    between atoms: N_2  and  C_3
REMARK    3  A    between atoms: N_2  and  C_4
REMARK    4  A    between atoms: C_4  and  C_5
REMARK    5  A    between atoms: C_5  and  C_6
REMARK    6  A    between atoms: C_6  and  N_7
REMARK    7  A    between atoms: N_10  and  C_11
REMARK    8  A    between atoms: C_15  and  N_16
REMARK    9  A    between atoms: C_17  and  C_19
REMARK   10  A    between atoms: C_22  and  C_23
REMARK   11  A    between atoms: N_25  and  C_26
REMARK   12  A    between atoms: C_26  and  C_27
REMARK   13  A    between atoms: C_27  and  C_28
REMARK   14  A    between atoms: C_28  and  N_29
REMARK   15  A    between atoms: N_29  and  C_30
REMARK   16  A    between atoms: N_29  and  C_31
REMARK                            x       y       z     vdW  Elec       q    Type
REMARK                         _______ _______ _______ _____ _____    ______ ____
ROOT
ATOM      1  N   UNL     1       1.428   6.072  20.757  0.00  0.00    +0.000 N 
ATOM      2  C   UNL     1       1.864   7.215  20.104  0.00  0.00    +0.000 C 
ATOM      3  O   UNL     1       2.641   7.286  19.159  0.00  0.00    +0.000 OA
ATOM      4  H   UNL     1       0.646   6.166  21.393  0.00  0.00    +0.000 HD
ENDROOT
BRANCH   1   9
ATOM      5  C   UNL     1       3.428   3.251  19.374  0.00  0.00    +0.000 A 
ATOM      6  C   UNL     1       2.828   2.171  20.019  0.00  0.00    +0.000 A 
ATOM      7  C   UNL     1       1.752   2.362  20.876  0.00  0.00    +0.000 A 
ATOM      8  C   UNL     1       1.273   3.645  21.122  0.00  0.00    +0.000 A 
ATOM      9  C   UNL     1       1.881   4.752  20.527  0.00  0.00    +0.000 A 
ATOM     10  C   UNL     1       2.960   4.550  19.647  0.00  0.00    +0.000 A 
BRANCH   5  14
ATOM     11  N   UNL     1       5.704   3.295  16.531  0.00  0.00    +0.000 N 
ATOM     12  C   UNL     1       4.608   3.712  17.242  0.00  0.00    +0.000 C 
ATOM     13  O   UNL     1       3.871   4.593  16.818  0.00  0.00    +0.000 OA
ATOM     14  N   UNL     1       4.496   3.070  18.465  0.00  0.00    +0.000 N 
ATOM     15  H   UNL     1       6.141   2.412  16.746  0.00  0.00    +0.000 HD
ATOM     16  H   UNL     1       5.338   2.640  18.812  0.00  0.00    +0.000 HD
BRANCH  11  17
ATOM     17  C   UNL     1       6.016   3.924  15.260  0.00  0.00    +0.000 C 
BRANCH  17  18
ATOM     18  C   UNL     1       7.170   4.918  15.390  0.00  0.00    +0.000 C 
BRANCH  18  19
ATOM     19  C   UNL     1       6.795   6.169  16.197  0.00  0.00    +0.000 C 
BRANCH  19  21
ATOM     20  C   UNL     1       7.716   7.914  17.623  0.00  0.00    +0.000 C 
ATOM     21  N   UNL     1       7.747   6.492  17.275  0.00  0.00    +0.000 NA
ATOM     22  C   UNL     1       7.459   5.681  18.460  0.00  0.00    +0.000 C 
ENDBRANCH  19  21
ENDBRANCH  18  19
ENDBRANCH  17  18
ENDBRANCH  11  17
ENDBRANCH   5  14
ENDBRANCH   1   9
BRANCH   2  23
ATOM     23  C   UNL     1       1.251   8.480  20.574  0.00  0.00    +0.000 A 
ATOM     24  C   UNL     1       0.960   9.521  19.689  0.00  0.00    +0.000 A 
ATOM     25  C   UNL     1       0.405  10.703  20.180  0.00  0.00    +0.000 A 
ATOM     26  C   UNL     1       0.128  10.859  21.549  0.00  0.00    +0.000 A 
ATOM     27  C   UNL     1       0.389   9.796  22.423  0.00  0.00    +0.000 A 
ATOM     28  C   UNL     1       0.944   8.610  21.934  0.00  0.00    +0.000 A 
BRANCH  26  29
ATOM     29  C   UNL     1      -0.434  12.173  21.982  0.00  0.00    +0.000 C 
ATOM     30  O   UNL     1      -1.267  12.205  22.883  0.00  0.00    +0.000 OA
ATOM     31  N   UNL     1       0.011  13.308  21.343  0.00  0.00    +0.000 N 
ATOM     32  H   UNL     1       0.772  13.284  20.683  0.00  0.00    +0.000 HD
BRANCH  31  33
ATOM     33  C   UNL     1      -0.412  14.625  21.775  0.00  0.00    +0.000 C 
BRANCH  33  34
ATOM     34  C   UNL     1      -0.979  15.448  20.620  0.00  0.00    +0.000 C 
BRANCH  34  35
ATOM     35  C   UNL     1      -0.041  15.523  19.406  0.00  0.00    +0.000 C 
BRANCH  35  36
ATOM     36  N   UNL     1       0.279  16.895  18.968  0.00  0.00    +0.000 NA
ATOM     37  C   UNL     1      -0.688  17.393  17.987  0.00  0.00    +0.000 C 
ATOM     38  C   UNL     1       0.316  17.796  20.124  0.00  0.00    +0.000 C 
ENDBRANCH  35  36
ENDBRANCH  34  35
ENDBRANCH  33  34
ENDBRANCH  31  33
ENDBRANCH  26  29
ENDBRANCH   2  23
TORSDOF 12
ENDMDL
