MODEL 1
REMARK VINA RESULT:      -6.8      0.000      0.000
REMARK  Name = 
REMARK  8 active torsions:
REMARK  status: ('A' for Active; 'I' for Inactive)
REMARK    1  A    between atoms: C_1  and  C_2
REMARK    2  A    between atoms: C_2  and  C_3
REMARK    3  A    between atoms: C_2  and  N_14
REMARK    4  A    between atoms: N_5  and  C_6
REMARK    5  A    between atoms: C_6  and  C_7
REMARK    6  A    between atoms: C_7  and  O_9
REMARK    7  A    between atoms: N_14  and  C_15
REMARK    8  A    between atoms: N_14  and  C_16
REMARK                            x       y       z     vdW  Elec       q    Type
REMARK                         _______ _______ _______ _____ _____    ______ ____
ROOT
ATOM      1  C   UNL     1       4.539   5.533  18.966  0.00  0.00    +0.000 C 
ATOM      2  O   UNL     1       5.304   5.113  19.828  0.00  0.00    +0.000 OA
ATOM      3  N   UNL     1       3.348   4.861  18.715  0.00  0.00    +0.000 N 
ATOM      4  H   UNL     1       2.967   4.950  17.780  0.00  0.00    +0.000 HD
ENDROOT
BRANCH   3   5
ATOM      5  C   UNL     1       2.874   3.688  19.494  0.00  0.00    +0.000 C 
ATOM      6  C   UNL     1       2.860   3.899  21.016  0.00  0.00    +0.000 C 
ATOM      7  C   UNL     1       1.766   2.993  21.558  0.00  0.00    +0.000 C 
ATOM      8  C   UNL     1       0.780   2.791  20.419  0.00  0.00    +0.000 C 
ATOM      9  C   UNL     1       1.387   3.453  19.183  0.00  0.00    +0.000 C 
BRANCH   5  10
ATOM     10  C   UNL     1       3.737   2.451  19.120  0.00  0.00    +0.000 C 
ATOM     11  O   UNL     1       3.465   1.652  18.237  0.00  0.00    +0.000 OA
BRANCH  10  12
ATOM     12  O   UNL     1       4.849   2.328  19.882  0.00  0.00    +0.000 OA
ATOM     13  H   UNL     1       5.119   1.386  20.018  0.00  0.00    +0.000 HD
ENDBRANCH  10  12
ENDBRANCH   5  10
ENDBRANCH   3   5
BRANCH   1  15
ATOM     14  C   UNL     1       3.479   6.993  17.408  0.00  0.00    +0.000 C 
ATOM     15  C   UNL     1       4.882   6.675  17.984  0.00  0.00    +0.000 C 
BRANCH  15  16
ATOM     16  N   UNL     1       5.887   6.311  16.914  0.00  0.00    +0.000 NA
ATOM     17  C   UNL     1       7.168   6.988  17.235  0.00  0.00    +0.000 C 
BRANCH  16  18
ATOM     18  C   UNL     1       6.154   4.841  16.735  0.00  0.00    +0.000 C 
ATOM     19  C   UNL     1       5.089   4.036  15.952  0.00  0.00    +0.000 C 
ATOM     20  C   UNL     1       5.006   4.415  14.471  0.00  0.00    +0.000 C 
ATOM     21  C   UNL     1       6.351   4.243  13.770  0.00  0.00    +0.000 C 
ATOM     22  C   UNL     1       7.458   4.978  14.517  0.00  0.00    +0.000 C 
ATOM     23  C   UNL     1       7.494   4.538  15.983  0.00  0.00    +0.000 C 
ENDBRANCH  16  18
ENDBRANCH  15  16
ENDBRANCH   1  15
TORSDOF 6
ENDMDL
MODEL 2
REMARK VINA RESULT:      -6.7      2.073      5.810
REMARK  Name = 
REMARK  8 active torsions:
REMARK  status: ('A' for Active; 'I' for Inactive)
REMARK    1  A    between atoms: C_1  and  C_2
REMARK    2  A    between atoms: C_2  and  C_3
REMARK    3  A    between atoms: C_2  and  N_14
REMARK    4  A    between atoms: N_5  and  C_6
REMARK    5  A    between atoms: C_6  and  C_7
REMARK    6  A    between atoms: C_7  and  O_9
REMARK    7  A    between atoms: N_14  and  C_15
REMARK    8  A    between atoms: N_14  and  C_16
REMARK                            x       y       z     vdW  Elec       q    Type
REMARK                         _______ _______ _______ _____ _____    ______ ____
ROOT
ATOM      1  C   UNL     1       5.325   4.337  19.191  0.00  0.00    +0.000 C 
ATOM      2  O   UNL     1       6.161   4.556  20.060  0.00  0.00    +0.000 OA
ATOM      3  N   UNL     1       5.453   4.937  17.943  0.00  0.00    +0.000 N 
ATOM      4  H   UNL     1       4.597   5.089  17.423  0.00  0.00    +0.000 HD
ENDROOT
BRANCH   3   5
ATOM      5  C   UNL     1       6.609   5.779  17.540  0.00  0.00    +0.000 C 
ATOM      6  C   UNL     1       6.242   7.222  17.158  0.00  0.00    +0.000 C 
ATOM      7  C   UNL     1       7.468   8.066  17.466  0.00  0.00    +0.000 C 
ATOM      8  C   UNL     1       8.229   7.326  18.554  0.00  0.00    +0.000 C 
ATOM      9  C   UNL     1       7.522   5.987  18.759  0.00  0.00    +0.000 C 
BRANCH   5  10
ATOM     10  C   UNL     1       7.363   5.079  16.376  0.00  0.00    +0.000 C 
ATOM     11  O   UNL     1       7.347   5.450  15.212  0.00  0.00    +0.000 OA
BRANCH  10  12
ATOM     12  O   UNL     1       8.057   3.987  16.772  0.00  0.00    +0.000 OA
ATOM     13  H   UNL     1       8.865   3.826  16.224  0.00  0.00    +0.000 HD
ENDBRANCH  10  12
ENDBRANCH   5  10
ENDBRANCH   3   5
BRANCH   1  15
ATOM     14  C   UNL     1       4.548   2.175  19.832  0.00  0.00    +0.000 C 
ATOM     15  C   UNL     1       4.005   3.570  19.430  0.00  0.00    +0.000 C 
BRANCH  15  16
ATOM     16  N   UNL     1       3.077   3.516  18.237  0.00  0.00    +0.000 NA
ATOM     17  C   UNL     1       2.898   2.093  17.855  0.00  0.00    +0.000 C 
BRANCH  16  18
ATOM     18  C   UNL     1       1.718   4.133  18.431  0.00  0.00    +0.000 C 
ATOM     19  C   UNL     1       1.220   4.260  19.892  0.00  0.00    +0.000 C 
ATOM     20  C   UNL     1       2.026   5.259  20.725  0.00  0.00    +0.000 C 
ATOM     21  C   UNL     1       2.024   6.650  20.094  0.00  0.00    +0.000 C 
ATOM     22  C   UNL     1       2.464   6.591  18.636  0.00  0.00    +0.000 C 
ATOM     23  C   UNL     1       1.607   5.588  17.860  0.00  0.00    +0.000 C 
ENDBRANCH  16  18
ENDBRANCH  15  16
ENDBRANCH   1  15
TORSDOF 6
ENDMDL
MODEL 3
REMARK VINA RESULT:      -6.6      2.302      5.498
REMARK  Name = 
REMARK  8 active torsions:
REMARK  status: ('A' for Active; 'I' for Inactive)
REMARK    1  A    between atoms: C_1  and  C_2
REMARK    2  A    between atoms: C_2  and  C_3
REMARK    3  A    between atoms: C_2  and  N_14
REMARK    4  A    between atoms: N_5  and  C_6
REMARK    5  A    between atoms: C_6  and  C_7
REMARK    6  A    between atoms: C_7  and  O_9
REMARK    7  A    between atoms: N_14  and  C_15
REMARK    8  A    between atoms: N_14  and  C_16
REMARK                            x       y       z     vdW  Elec       q    Type
REMARK                         _______ _______ _______ _____ _____    ______ ____
ROOT
ATOM      1  C   UNL     1       4.088   5.966  18.086  0.00  0.00    +0.000 C 
ATOM      2  O   UNL     1       4.066   7.124  17.683  0.00  0.00    +0.000 OA
ATOM      3  N   UNL     1       5.289   5.266  18.104  0.00  0.00    +0.000 N 
ATOM      4  H   UNL     1       5.226   4.257  18.025  0.00  0.00    +0.000 HD
ENDROOT
BRANCH   3   5
ATOM      5  C   UNL     1       6.603   5.858  17.745  0.00  0.00    +0.000 C 
ATOM      6  C   UNL     1       6.525   7.280  17.168  0.00  0.00    +0.000 C 
ATOM      7  C   UNL     1       7.841   7.953  17.520  0.00  0.00    +0.000 C 
ATOM      8  C   UNL     1       8.360   7.246  18.762  0.00  0.00    +0.000 C 
ATOM      9  C   UNL     1       7.420   6.072  19.030  0.00  0.00    +0.000 C 
BRANCH   5  10
ATOM     10  C   UNL     1       7.334   4.906  16.757  0.00  0.00    +0.000 C 
ATOM     11  O   UNL     1       7.211   4.935  15.542  0.00  0.00    +0.000 OA
BRANCH  10  12
ATOM     12  O   UNL     1       8.140   4.013  17.377  0.00  0.00    +0.000 OA
ATOM     13  H   UNL     1       7.664   3.471  18.053  0.00  0.00    +0.000 HD
ENDBRANCH  10  12
ENDBRANCH   5  10
ENDBRANCH   3   5
BRANCH   1  15
ATOM     14  C   UNL     1       1.714   6.088  17.905  0.00  0.00    +0.000 C 
ATOM     15  C   UNL     1       2.826   5.137  18.415  0.00  0.00    +0.000 C 
BRANCH  15  16
ATOM     16  N   UNL     1       2.667   4.777  19.875  0.00  0.00    +0.000 NA
ATOM     17  C   UNL     1       1.774   5.783  20.503  0.00  0.00    +0.000 C 
BRANCH  16  18
ATOM     18  C   UNL     1       2.116   3.406  20.159  0.00  0.00    +0.000 C 
ATOM     19  C   UNL     1       1.522   2.638  18.953  0.00  0.00    +0.000 C 
ATOM     20  C   UNL     1       2.570   2.232  17.913  0.00  0.00    +0.000 C 
ATOM     21  C   UNL     1       3.674   1.378  18.531  0.00  0.00    +0.000 C 
ATOM     22  C   UNL     1       4.276   2.059  19.755  0.00  0.00    +0.000 C 
ATOM     23  C   UNL     1       3.176   2.420  20.758  0.00  0.00    +0.000 C 
ENDBRANCH  16  18
ENDBRANCH  15  16
ENDBRANCH   1  15
TORSDOF 6
ENDMDL
MODEL 4
REMARK VINA RESULT:      -6.5      2.030      5.988
REMARK  Name = 
REMARK  8 active torsions:
REMARK  status: ('A' for Active; 'I' for Inactive)
REMARK    1  A    between atoms: C_1  and  C_2
REMARK    2  A    between atoms: C_2  and  C_3
REMARK    3  A    between atoms: C_2  and  N_14
REMARK    4  A    between atoms: N_5  and  C_6
REMARK    5  A    between atoms: C_6  and  C_7
REMARK    6  A    between atoms: C_7  and  O_9
REMARK    7  A    between atoms: N_14  and  C_15
REMARK    8  A    between atoms: N_14  and  C_16
REMARK                            x       y       z     vdW  Elec       q    Type
REMARK                         _______ _______ _______ _____ _____    ______ ____
ROOT
ATOM      1  C   UNL     1       5.423   4.190  18.692  0.00  0.00    +0.000 C 
ATOM      2  O   UNL     1       6.518   3.804  19.087  0.00  0.00    +0.000 OA
ATOM      3  N   UNL     1       5.332   5.356  17.941  0.00  0.00    +0.000 N 
ATOM      4  H   UNL     1       4.456   5.861  17.993  0.00  0.00    +0.000 HD
ENDROOT
BRANCH   3   5
ATOM      5  C   UNL     1       6.505   6.148  17.490  0.00  0.00    +0.000 C 
ATOM      6  C   UNL     1       6.210   7.635  17.236  0.00  0.00    +0.000 C 
ATOM      7  C   UNL     1       7.514   8.374  17.486  0.00  0.00    +0.000 C 
ATOM      8  C   UNL     1       8.312   7.512  18.450  0.00  0.00    +0.000 C 
ATOM      9  C   UNL     1       7.533   6.211  18.632  0.00  0.00    +0.000 C 
BRANCH   5  10
ATOM     10  C   UNL     1       7.105   5.484  16.219  0.00  0.00    +0.000 C 
ATOM     11  O   UNL     1       6.847   5.816  15.072  0.00  0.00    +0.000 OA
BRANCH  10  12
ATOM     12  O   UNL     1       7.960   4.474  16.500  0.00  0.00    +0.000 OA
ATOM     13  H   UNL     1       8.498   4.642  17.313  0.00  0.00    +0.000 HD
ENDBRANCH  10  12
ENDBRANCH   5  10
ENDBRANCH   3   5
BRANCH   1  15
ATOM     14  C   UNL     1       4.548   2.605  20.244  0.00  0.00    +0.000 C 
ATOM     15  C   UNL     1       4.076   3.567  19.125  0.00  0.00    +0.000 C 
BRANCH  15  16
ATOM     16  N   UNL     1       3.321   2.860  18.022  0.00  0.00    +0.000 NA
ATOM     17  C   UNL     1       3.372   1.401  18.290  0.00  0.00    +0.000 C 
BRANCH  16  18
ATOM     18  C   UNL     1       1.882   3.263  17.846  0.00  0.00    +0.000 C 
ATOM     19  C   UNL     1       0.852   2.563  18.766  0.00  0.00    +0.000 C 
ATOM     20  C   UNL     1       0.997   2.942  20.242  0.00  0.00    +0.000 C 
ATOM     21  C   UNL     1       0.882   4.450  20.451  0.00  0.00    +0.000 C 
ATOM     22  C   UNL     1       1.843   5.205  19.540  0.00  0.00    +0.000 C 
ATOM     23  C   UNL     1       1.630   4.792  18.081  0.00  0.00    +0.000 C 
ENDBRANCH  16  18
ENDBRANCH  15  16
ENDBRANCH   1  15
TORSDOF 6
ENDMDL
MODEL 5
REMARK VINA RESULT:      -6.5      2.092      5.339
REMARK  Name = 
REMARK  8 active torsions:
REMARK  status: ('A' for Active; 'I' for Inactive)
REMARK    1  A    between atoms: C_1  and  C_2
REMARK    2  A    between atoms: C_2  and  C_3
REMARK    3  A    between atoms: C_2  and  N_14
REMARK    4  A    between atoms: N_5  and  C_6
REMARK    5  A    between atoms: C_6  and  C_7
REMARK    6  A    between atoms: C_7  and  O_9
REMARK    7  A    between atoms: N_14  and  C_15
REMARK    8  A    between atoms: N_14  and  C_16
REMARK                            x       y       z     vdW  Elec       q    Type
REMARK                         _______ _______ _______ _____ _____    ______ ____
ROOT
ATOM      1  C   UNL     1       3.534   6.786  18.094  0.00  0.00    +0.000 C 
ATOM      2  O   UNL     1       3.667   7.637  17.220  0.00  0.00    +0.000 OA
ATOM      3  N   UNL     1       4.610   5.975  18.435  0.00  0.00    +0.000 N 
ATOM      4  H   UNL     1       4.387   5.061  18.810  0.00  0.00    +0.000 HD
ENDROOT
BRANCH   3   5
ATOM      5  C   UNL     1       5.976   6.122  17.869  0.00  0.00    +0.000 C 
ATOM      6  C   UNL     1       6.379   7.569  17.546  0.00  0.00    +0.000 C 
ATOM      7  C   UNL     1       7.893   7.624  17.673  0.00  0.00    +0.000 C 
ATOM      8  C   UNL     1       8.278   6.514  18.637  0.00  0.00    +0.000 C 
ATOM      9  C   UNL     1       7.004   5.728  18.941  0.00  0.00    +0.000 C 
BRANCH   5  10
ATOM     10  C   UNL     1       6.097   5.225  16.605  0.00  0.00    +0.000 C 
ATOM     11  O   UNL     1       6.005   5.626  15.455  0.00  0.00    +0.000 OA
BRANCH  10  12
ATOM     12  O   UNL     1       6.317   3.922  16.897  0.00  0.00    +0.000 OA
ATOM     13  H   UNL     1       6.191   3.717  17.856  0.00  0.00    +0.000 HD
ENDBRANCH  10  12
ENDBRANCH   5  10
ENDBRANCH   3   5
BRANCH   1  15
ATOM     14  C   UNL     1       1.894   7.683  19.574  0.00  0.00    +0.000 C 
ATOM     15  C   UNL     1       2.182   6.409  18.739  0.00  0.00    +0.000 C 
BRANCH  15  16
ATOM     16  N   UNL     1       2.209   5.151  19.579  0.00  0.00    +0.000 NA
ATOM     17  C   UNL     1       1.721   5.493  20.938  0.00  0.00    +0.000 C 
BRANCH  16  18
ATOM     18  C   UNL     1       1.398   3.995  19.057  0.00  0.00    +0.000 C 
ATOM     19  C   UNL     1       1.512   3.701  17.541  0.00  0.00    +0.000 C 
ATOM     20  C   UNL     1       2.894   3.194  17.121  0.00  0.00    +0.000 C 
ATOM     21  C   UNL     1       3.289   1.934  17.887  0.00  0.00    +0.000 C 
ATOM     22  C   UNL     1       3.157   2.142  19.392  0.00  0.00    +0.000 C 
ATOM     23  C   UNL     1       1.748   2.630  19.740  0.00  0.00    +0.000 C 
ENDBRANCH  16  18
ENDBRANCH  15  16
ENDBRANCH   1  15
TORSDOF 6
ENDMDL
MODEL 6
REMARK VINA RESULT:      -6.5      1.841      5.592
REMARK  Name = 
REMARK  8 active torsions:
REMARK  status: ('A' for Active; 'I' for Inactive)
REMARK    1  A    between atoms: C_1  and  C_2
REMARK    2  A    between atoms: C_2  and  C_3
REMARK    3  A    between atoms: C_2  and  N_14
REMARK    4  A    between atoms: N_5  and  C_6
REMARK    5  A    between atoms: C_6  and  C_7
REMARK    6  A    between atoms: C_7  and  O_9
REMARK    7  A    between atoms: N_14  and  C_15
REMARK    8  A    between atoms: N_14  and  C_16
REMARK                            x       y       z     vdW  Elec       q    Type
REMARK                         _______ _______ _______ _____ _____    ______ ____
ROOT
ATOM      1  C   UNL     1       3.794   6.414  17.683  0.00  0.00    +0.000 C 
ATOM      2  O   UNL     1       4.470   7.410  17.445  0.00  0.00    +0.000 OA
ATOM      3  N   UNL     1       4.204   5.173  17.209  0.00  0.00    +0.000 N 
ATOM      4  H   UNL     1       3.475   4.488  17.044  0.00  0.00    +0.000 HD
ENDROOT
BRANCH   3   5
ATOM      5  C   UNL     1       5.482   4.938  16.489  0.00  0.00    +0.000 C 
ATOM      6  C   UNL     1       5.607   3.545  15.853  0.00  0.00    +0.000 C 
ATOM      7  C   UNL     1       6.531   3.707  14.657  0.00  0.00    +0.000 C 
ATOM      8  C   UNL     1       6.411   5.159  14.223  0.00  0.00    +0.000 C 
ATOM      9  C   UNL     1       5.539   5.863  15.262  0.00  0.00    +0.000 C 
BRANCH   5  10
ATOM     10  C   UNL     1       6.665   5.205  17.460  0.00  0.00    +0.000 C 
ATOM     11  O   UNL     1       7.033   4.439  18.338  0.00  0.00    +0.000 OA
BRANCH  10  12
ATOM     12  O   UNL     1       7.270   6.397  17.247  0.00  0.00    +0.000 OA
ATOM     13  H   UNL     1       7.270   6.976  18.049  0.00  0.00    +0.000 HD
ENDBRANCH  10  12
ENDBRANCH   5  10
ENDBRANCH   3   5
BRANCH   1  15
ATOM     14  C   UNL     1       2.244   7.969  18.613  0.00  0.00    +0.000 C 
ATOM     15  C   UNL     1       2.392   6.452  18.331  0.00  0.00    +0.000 C 
BRANCH  15  16
ATOM     16  N   UNL     1       2.246   5.607  19.577  0.00  0.00    +0.000 NA
ATOM     17  C   UNL     1       1.935   6.509  20.713  0.00  0.00    +0.000 C 
BRANCH  16  18
ATOM     18  C   UNL     1       1.197   4.529  19.522  0.00  0.00    +0.000 C 
ATOM     19  C   UNL     1       1.246   3.580  18.299  0.00  0.00    +0.000 C 
ATOM     20  C   UNL     1       2.480   2.673  18.281  0.00  0.00    +0.000 C 
ATOM     21  C   UNL     1       2.577   1.829  19.550  0.00  0.00    +0.000 C 
ATOM     22  C   UNL     1       2.490   2.701  20.797  0.00  0.00    +0.000 C 
ATOM     23  C   UNL     1       1.227   3.566  20.757  0.00  0.00    +0.000 C 
ENDBRANCH  16  18
ENDBRANCH  15  16
ENDBRANCH   1  15
TORSDOF 6
ENDMDL
MODEL 7
REMARK VINA RESULT:      -6.5      2.140      5.415
REMARK  Name = 
REMARK  8 active torsions:
REMARK  status: ('A' for Active; 'I' for Inactive)
REMARK    1  A    between atoms: C_1  and  C_2
REMARK    2  A    between atoms: C_2  and  C_3
REMARK    3  A    between atoms: C_2  and  N_14
REMARK    4  A    between atoms: N_5  and  C_6
REMARK    5  A    between atoms: C_6  and  C_7
REMARK    6  A    between atoms: C_7  and  O_9
REMARK    7  A    between atoms: N_14  and  C_15
REMARK    8  A    between atoms: N_14  and  C_16
REMARK                            x       y       z     vdW  Elec       q    Type
REMARK                         _______ _______ _______ _____ _____    ______ ____
ROOT
ATOM      1  C   UNL     1       3.544   6.643  17.892  0.00  0.00    +0.000 C 
ATOM      2  O   UNL     1       3.679   7.598  17.134  0.00  0.00    +0.000 OA
ATOM      3  N   UNL     1       4.468   5.605  17.865  0.00  0.00    +0.000 N 
ATOM      4  H   UNL     1       4.133   4.693  18.154  0.00  0.00    +0.000 HD
ENDROOT
BRANCH   3   5
ATOM      5  C   UNL     1       5.694   5.604  17.026  0.00  0.00    +0.000 C 
ATOM      6  C   UNL     1       6.367   4.229  16.885  0.00  0.00    +0.000 C 
ATOM      7  C   UNL     1       7.083   4.246  15.544  0.00  0.00    +0.000 C 
ATOM      8  C   UNL     1       6.345   5.256  14.681  0.00  0.00    +0.000 C 
ATOM      9  C   UNL     1       5.304   5.927  15.575  0.00  0.00    +0.000 C 
BRANCH   5  10
ATOM     10  C   UNL     1       6.696   6.648  17.594  0.00  0.00    +0.000 C 
ATOM     11  O   UNL     1       6.945   7.727  17.078  0.00  0.00    +0.000 OA
BRANCH  10  12
ATOM     12  O   UNL     1       7.289   6.246  18.742  0.00  0.00    +0.000 OA
ATOM     13  H   UNL     1       7.913   6.921  19.108  0.00  0.00    +0.000 HD
ENDBRANCH  10  12
ENDBRANCH   5  10
ENDBRANCH   3   5
BRANCH   1  15
ATOM     14  C   UNL     1       2.259   7.725  19.584  0.00  0.00    +0.000 C 
ATOM     15  C   UNL     1       2.297   6.405  18.773  0.00  0.00    +0.000 C 
BRANCH  15  16
ATOM     16  N   UNL     1       2.367   5.177  19.653  0.00  0.00    +0.000 NA
ATOM     17  C   UNL     1       2.050   5.587  21.043  0.00  0.00    +0.000 C 
BRANCH  16  18
ATOM     18  C   UNL     1       1.457   4.041  19.270  0.00  0.00    +0.000 C 
ATOM     19  C   UNL     1       1.376   3.699  17.762  0.00  0.00    +0.000 C 
ATOM     20  C   UNL     1       2.678   3.125  17.197  0.00  0.00    +0.000 C 
ATOM     21  C   UNL     1       3.115   1.872  17.952  0.00  0.00    +0.000 C 
ATOM     22  C   UNL     1       3.173   2.127  19.453  0.00  0.00    +0.000 C 
ATOM     23  C   UNL     1       1.836   2.682  19.952  0.00  0.00    +0.000 C 
ENDBRANCH  16  18
ENDBRANCH  15  16
ENDBRANCH   1  15
TORSDOF 6
ENDMDL
MODEL 8
REMARK VINA RESULT:      -6.5      2.193      6.263
REMARK  Name = 
REMARK  8 active torsions:
REMARK  status: ('A' for Active; 'I' for Inactive)
REMARK    1  A    between atoms: C_1  and  C_2
REMARK    2  A    between atoms: C_2  and  C_3
REMARK    3  A    between atoms: C_2  and  N_14
REMARK    4  A    between atoms: N_5  and  C_6
REMARK    5  A    between atoms: C_6  and  C_7
REMARK    6  A    between atoms: C_7  and  O_9
REMARK    7  A    between atoms: N_14  and  C_15
REMARK    8  A    between atoms: N_14  and  C_16
REMARK                            x       y       z     vdW  Elec       q    Type
REMARK                         _______ _______ _______ _____ _____    ______ ____
ROOT
ATOM      1  C   UNL     1       4.637   4.751  17.899  0.00  0.00    +0.000 C 
ATOM      2  O   UNL     1       4.526   4.934  16.692  0.00  0.00    +0.000 OA
ATOM      3  N   UNL     1       5.768   5.209  18.565  0.00  0.00    +0.000 N 
ATOM      4  H   UNL     1       6.033   4.708  19.405  0.00  0.00    +0.000 HD
ENDROOT
BRANCH   3   5
ATOM      5  C   UNL     1       6.846   6.006  17.924  0.00  0.00    +0.000 C 
ATOM      6  C   UNL     1       6.389   7.364  17.369  0.00  0.00    +0.000 C 
ATOM      7  C   UNL     1       7.606   8.272  17.420  0.00  0.00    +0.000 C 
ATOM      8  C   UNL     1       8.497   7.725  18.523  0.00  0.00    +0.000 C 
ATOM      9  C   UNL     1       7.865   6.419  18.998  0.00  0.00    +0.000 C 
BRANCH   5  10
ATOM     10  C   UNL     1       7.508   5.152  16.807  0.00  0.00    +0.000 C 
ATOM     11  O   UNL     1       8.178   4.149  17.001  0.00  0.00    +0.000 OA
BRANCH  10  12
ATOM     12  O   UNL     1       7.275   5.631  15.563  0.00  0.00    +0.000 OA
ATOM     13  H   UNL     1       6.849   4.965  14.969  0.00  0.00    +0.000 HD
ENDBRANCH  10  12
ENDBRANCH   5  10
ENDBRANCH   3   5
BRANCH   1  15
ATOM     14  C   UNL     1       4.533   2.587  18.894  0.00  0.00    +0.000 C 
ATOM     15  C   UNL     1       3.680   3.871  18.735  0.00  0.00    +0.000 C 
BRANCH  15  16
ATOM     16  N   UNL     1       2.337   3.607  18.091  0.00  0.00    +0.000 NA
ATOM     17  C   UNL     1       2.324   2.203  17.610  0.00  0.00    +0.000 C 
BRANCH  16  18
ATOM     18  C   UNL     1       1.133   3.822  18.969  0.00  0.00    +0.000 C 
ATOM     19  C   UNL     1       0.687   2.619  19.835  0.00  0.00    +0.000 C 
ATOM     20  C   UNL     1       1.687   2.257  20.936  0.00  0.00    +0.000 C 
ATOM     21  C   UNL     1       1.960   3.440  21.861  0.00  0.00    +0.000 C 
ATOM     22  C   UNL     1       2.364   4.677  21.065  0.00  0.00    +0.000 C 
ATOM     23  C   UNL     1       1.313   4.990  19.997  0.00  0.00    +0.000 C 
ENDBRANCH  16  18
ENDBRANCH  15  16
ENDBRANCH   1  15
TORSDOF 6
ENDMDL
MODEL 9
REMARK VINA RESULT:      -6.5      2.325      5.730
REMARK  Name = 
REMARK  8 active torsions:
REMARK  status: ('A' for Active; 'I' for Inactive)
REMARK    1  A    between atoms: C_1  and  C_2
REMARK    2  A    between atoms: C_2  and  C_3
REMARK    3  A    between atoms: C_2  and  N_14
REMARK    4  A    between atoms: N_5  and  C_6
REMARK    5  A    between atoms: C_6  and  C_7
REMARK    6  A    between atoms: C_7  and  O_9
REMARK    7  A    between atoms: N_14  and  C_15
REMARK    8  A    between atoms: N_14  and  C_16
REMARK                            x       y       z     vdW  Elec       q    Type
REMARK                         _______ _______ _______ _____ _____    ______ ____
ROOT
ATOM      1  C   UNL     1       4.222   5.699  18.120  0.00  0.00    +0.000 C 
ATOM      2  O   UNL     1       4.095   6.648  17.353  0.00  0.00    +0.000 OA
ATOM      3  N   UNL     1       5.492   5.228  18.430  0.00  0.00    +0.000 N 
ATOM      4  H   UNL     1       5.562   4.251  18.690  0.00  0.00    +0.000 HD
ENDROOT
BRANCH   3   5
ATOM      5  C   UNL     1       6.752   5.859  17.960  0.00  0.00    +0.000 C 
ATOM      6  C   UNL     1       6.567   7.238  17.306  0.00  0.00    +0.000 C 
ATOM      7  C   UNL     1       7.866   7.993  17.539  0.00  0.00    +0.000 C 
ATOM      8  C   UNL     1       8.490   7.389  18.786  0.00  0.00    +0.000 C 
ATOM      9  C   UNL     1       7.628   6.190  19.179  0.00  0.00    +0.000 C 
BRANCH   5  10
ATOM     10  C   UNL     1       7.473   4.885  16.987  0.00  0.00    +0.000 C 
ATOM     11  O   UNL     1       7.348   4.894  15.771  0.00  0.00    +0.000 OA
BRANCH  10  12
ATOM     12  O   UNL     1       8.272   3.995  17.620  0.00  0.00    +0.000 OA
ATOM     13  H   UNL     1       8.743   4.388  18.397  0.00  0.00    +0.000 HD
ENDBRANCH  10  12
ENDBRANCH   5  10
ENDBRANCH   3   5
BRANCH   1  15
ATOM     14  C   UNL     1       1.845   5.561  17.976  0.00  0.00    +0.000 C 
ATOM     15  C   UNL     1       3.046   4.845  18.645  0.00  0.00    +0.000 C 
BRANCH  15  16
ATOM     16  N   UNL     1       2.928   4.786  20.152  0.00  0.00    +0.000 NA
ATOM     17  C   UNL     1       1.735   5.573  20.553  0.00  0.00    +0.000 C 
BRANCH  16  18
ATOM     18  C   UNL     1       2.814   3.409  20.749  0.00  0.00    +0.000 C 
ATOM     19  C   UNL     1       1.382   2.839  20.902  0.00  0.00    +0.000 C 
ATOM     20  C   UNL     1       0.698   2.545  19.565  0.00  0.00    +0.000 C 
ATOM     21  C   UNL     1       1.514   1.573  18.716  0.00  0.00    +0.000 C 
ATOM     22  C   UNL     1       2.953   2.054  18.562  0.00  0.00    +0.000 C 
ATOM     23  C   UNL     1       3.579   2.311  19.935  0.00  0.00    +0.000 C 
ENDBRANCH  16  18
ENDBRANCH  15  16
ENDBRANCH   1  15
TORSDOF 6
ENDMDL
