MODEL 1
REMARK VINA RESULT:      -7.9      0.000      0.000
REMARK  Name = 
REMARK  12 active torsions:
REMARK  status: ('A' for Active; 'I' for Inactive)
REMARK    1  A    between atoms: C_2  and  C_3
REMARK    2  A    between atoms: C_3  and  C_4
REMARK    3  A    between atoms: C_9  and  O_10
REMARK    4  A    between atoms: O_10  and  C_11
REMARK    5  A    between atoms: C_11  and  C_12
REMARK    6  A    between atoms: C_12  and  S_13
REMARK    7  A    between atoms: S_13  and  C_14
REMARK    8  A    between atoms: C_16  and  C_17
REMARK    9  A    between atoms: C_20  and  C_21
REMARK   10  A    between atoms: C_21  and  C_22
REMARK   11  A    between atoms: C_21  and  C_23
REMARK   12  A    between atoms: C_21  and  C_24
REMARK                            x       y       z     vdW  Elec       q    Type
REMARK                         _______ _______ _______ _____ _____    ______ ____
ROOT
ATOM      1  C   UNL     1       5.140   5.631  18.601  0.00  0.00    +0.000 A 
ATOM      2  N   UNL     1       4.292   6.614  18.548  0.00  0.00    +0.000 NA
ATOM      3  C   UNL     1       3.084   6.448  19.228  0.00  0.00    +0.000 A 
ATOM      4  N   UNL     1       2.716   5.367  19.865  0.00  0.00    +0.000 NA
ATOM      5  C   UNL     1       3.620   4.349  19.819  0.00  0.00    +0.000 A 
ATOM      6  C   UNL     1       3.384   3.079  20.170  0.00  0.00    +0.000 A 
ATOM      7  C   UNL     1       4.626   2.360  19.793  0.00  0.00    +0.000 A 
ATOM      8  O   UNL     1       4.875   1.204  20.073  0.00  0.00    +0.000 OA
ATOM      9  N   UNL     1       5.440   3.255  19.114  0.00  0.00    +0.000 N 
ATOM     10  N   UNL     1       4.883   4.494  19.310  0.00  0.00    +0.000 N 
ATOM     11  H   UNL     1       6.441   3.130  19.056  0.00  0.00    +0.000 HD
ENDROOT
BRANCH   3  12
ATOM     12  C   UNL     1       2.176   7.637  19.192  0.00  0.00    +0.000 A 
ATOM     13  C   UNL     1       1.939   8.311  17.992  0.00  0.00    +0.000 A 
ATOM     14  C   UNL     1       1.112   9.440  17.960  0.00  0.00    +0.000 A 
ATOM     15  C   UNL     1       0.491   9.927  19.121  0.00  0.00    +0.000 A 
ATOM     16  C   UNL     1       0.735   9.231  20.321  0.00  0.00    +0.000 A 
ATOM     17  C   UNL     1       1.561   8.100  20.359  0.00  0.00    +0.000 A 
BRANCH  15  18
ATOM     18  C   UNL     1      -0.439  11.154  19.100  0.00  0.00    +0.000 C 
ATOM     19  C   UNL     1      -1.116  11.433  20.462  0.00  0.00    +0.000 C 
ATOM     20  C   UNL     1       0.374  12.412  18.727  0.00  0.00    +0.000 C 
ATOM     21  C   UNL     1      -1.566  10.959  18.063  0.00  0.00    +0.000 C 
ENDBRANCH  15  18
ENDBRANCH   3  12
BRANCH   1  22
ATOM     22  S   UNL     1       6.685   5.835  17.783  0.00  0.00    +0.000 S 
BRANCH  22  23
ATOM     23  C   UNL     1       6.634   7.648  17.494  0.00  0.00    +0.000 C 
BRANCH  23  24
ATOM     24  C   UNL     1       7.985   8.267  17.848  0.00  0.00    +0.000 C 
BRANCH  24  25
ATOM     25  O   UNL     1       8.130   9.597  17.361  0.00  0.00    +0.000 OA
BRANCH  25  31
ATOM     26  C   UNL     1       8.520  11.938  18.212  0.00  0.00    +0.000 A 
ATOM     27  C   UNL     1       9.082  12.678  19.280  0.00  0.00    +0.000 A 
ATOM     28  C   UNL     1       9.790  12.063  20.309  0.00  0.00    +0.000 A 
ATOM     29  C   UNL     1       9.953  10.686  20.296  0.00  0.00    +0.000 A 
ATOM     30  C   UNL     1       9.375   9.930  19.274  0.00  0.00    +0.000 A 
ATOM     31  C   UNL     1       8.631  10.531  18.242  0.00  0.00    +0.000 A 
BRANCH  26  32
ATOM     32  C   UNL     1       7.894  12.773  17.112  0.00  0.00    +0.000 C 
BRANCH  32  34
ATOM     33  C   UNL     1       6.130  14.432  17.788  0.00  0.00    +0.000 C 
ATOM     34  C   UNL     1       7.416  14.125  17.574  0.00  0.00    +0.000 C 
ENDBRANCH  32  34
ENDBRANCH  26  32
ENDBRANCH  25  31
ENDBRANCH  24  25
ENDBRANCH  23  24
ENDBRANCH  22  23
ENDBRANCH   1  22
TORSDOF 9
ENDMDL
MODEL 2
REMARK VINA RESULT:      -7.9      5.277     10.027
REMARK  Name = 
REMARK  12 active torsions:
REMARK  status: ('A' for Active; 'I' for Inactive)
REMARK    1  A    between atoms: C_2  and  C_3
REMARK    2  A    between atoms: C_3  and  C_4
REMARK    3  A    between atoms: C_9  and  O_10
REMARK    4  A    between atoms: O_10  and  C_11
REMARK    5  A    between atoms: C_11  and  C_12
REMARK    6  A    between atoms: C_12  and  S_13
REMARK    7  A    between atoms: S_13  and  C_14
REMARK    8  A    between atoms: C_16  and  C_17
REMARK    9  A    between atoms: C_20  and  C_21
REMARK   10  A    between atoms: C_21  and  C_22
REMARK   11  A    between atoms: C_21  and  C_23
REMARK   12  A    between atoms: C_21  and  C_24
REMARK                            x       y       z     vdW  Elec       q    Type
REMARK                         _______ _______ _______ _____ _____    ______ ____
ROOT
ATOM      1  C   UNL     1       0.162   9.954  19.022  0.00  0.00    +0.000 A 
ATOM      2  N   UNL     1       1.031   9.197  18.423  0.00  0.00    +0.000 NA
ATOM      3  C   UNL     1       1.710   8.263  19.209  0.00  0.00    +0.000 A 
ATOM      4  N   UNL     1       1.582   8.129  20.503  0.00  0.00    +0.000 NA
ATOM      5  C   UNL     1       0.711   9.004  21.080  0.00  0.00    +0.000 A 
ATOM      6  C   UNL     1       0.592   9.236  22.392  0.00  0.00    +0.000 A 
ATOM      7  C   UNL     1      -0.370  10.363  22.476  0.00  0.00    +0.000 A 
ATOM      8  O   UNL     1      -0.857  10.787  23.506  0.00  0.00    +0.000 OA
ATOM      9  N   UNL     1      -0.626  10.794  21.184  0.00  0.00    +0.000 N 
ATOM     10  N   UNL     1      -0.102   9.834  20.355  0.00  0.00    +0.000 N 
ATOM     11  H   UNL     1      -1.472  11.293  20.944  0.00  0.00    +0.000 HD
ENDROOT
BRANCH   3  12
ATOM     12  C   UNL     1       2.645   7.371  18.456  0.00  0.00    +0.000 A 
ATOM     13  C   UNL     1       2.517   5.982  18.534  0.00  0.00    +0.000 A 
ATOM     14  C   UNL     1       3.407   5.144  17.852  0.00  0.00    +0.000 A 
ATOM     15  C   UNL     1       4.447   5.664  17.066  0.00  0.00    +0.000 A 
ATOM     16  C   UNL     1       4.558   7.067  16.992  0.00  0.00    +0.000 A 
ATOM     17  C   UNL     1       3.669   7.910  17.672  0.00  0.00    +0.000 A 
BRANCH  15  18
ATOM     18  C   UNL     1       5.422   4.758  16.292  0.00  0.00    +0.000 C 
ATOM     19  C   UNL     1       5.538   5.121  14.793  0.00  0.00    +0.000 C 
ATOM     20  C   UNL     1       6.835   4.879  16.902  0.00  0.00    +0.000 C 
ATOM     21  C   UNL     1       4.966   3.285  16.369  0.00  0.00    +0.000 C 
ENDBRANCH  15  18
ENDBRANCH   3  12
BRANCH   1  22
ATOM     22  S   UNL     1      -0.732  11.110  18.043  0.00  0.00    +0.000 S 
BRANCH  22  23
ATOM     23  C   UNL     1      -1.909   9.963  17.223  0.00  0.00    +0.000 C 
BRANCH  23  24
ATOM     24  C   UNL     1      -3.293  10.604  17.150  0.00  0.00    +0.000 C 
BRANCH  24  25
ATOM     25  O   UNL     1      -3.448  11.693  18.054  0.00  0.00    +0.000 OA
BRANCH  25  31
ATOM     26  C   UNL     1      -4.901  12.427  19.978  0.00  0.00    +0.000 A 
ATOM     27  C   UNL     1      -6.217  12.357  20.499  0.00  0.00    +0.000 A 
ATOM     28  C   UNL     1      -7.203  11.577  19.901  0.00  0.00    +0.000 A 
ATOM     29  C   UNL     1      -6.899  10.848  18.762  0.00  0.00    +0.000 A 
ATOM     30  C   UNL     1      -5.620  10.932  18.207  0.00  0.00    +0.000 A 
ATOM     31  C   UNL     1      -4.618  11.737  18.780  0.00  0.00    +0.000 A 
BRANCH  26  32
ATOM     32  C   UNL     1      -3.920  13.217  20.821  0.00  0.00    +0.000 C 
BRANCH  32  34
ATOM     33  C   UNL     1      -3.638  13.247  23.319  0.00  0.00    +0.000 C 
ATOM     34  C   UNL     1      -3.618  12.585  22.155  0.00  0.00    +0.000 C 
ENDBRANCH  32  34
ENDBRANCH  26  32
ENDBRANCH  25  31
ENDBRANCH  24  25
ENDBRANCH  23  24
ENDBRANCH  22  23
ENDBRANCH   1  22
TORSDOF 9
ENDMDL
MODEL 3
REMARK VINA RESULT:      -7.9      5.522     10.217
REMARK  Name = 
REMARK  12 active torsions:
REMARK  status: ('A' for Active; 'I' for Inactive)
REMARK    1  A    between atoms: C_2  and  C_3
REMARK    2  A    between atoms: C_3  and  C_4
REMARK    3  A    between atoms: C_9  and  O_10
REMARK    4  A    between atoms: O_10  and  C_11
REMARK    5  A    between atoms: C_11  and  C_12
REMARK    6  A    between atoms: C_12  and  S_13
REMARK    7  A    between atoms: S_13  and  C_14
REMARK    8  A    between atoms: C_16  and  C_17
REMARK    9  A    between atoms: C_20  and  C_21
REMARK   10  A    between atoms: C_21  and  C_22
REMARK   11  A    between atoms: C_21  and  C_23
REMARK   12  A    between atoms: C_21  and  C_24
REMARK                            x       y       z     vdW  Elec       q    Type
REMARK                         _______ _______ _______ _____ _____    ______ ____
ROOT
ATOM      1  C   UNL     1       0.066  10.411  19.322  0.00  0.00    +0.000 A 
ATOM      2  N   UNL     1       0.933   9.591  18.809  0.00  0.00    +0.000 NA
ATOM      3  C   UNL     1       1.443   8.598  19.650  0.00  0.00    +0.000 A 
ATOM      4  N   UNL     1       1.161   8.464  20.919  0.00  0.00    +0.000 NA
ATOM      5  C   UNL     1       0.304   9.403  21.411  0.00  0.00    +0.000 A 
ATOM      6  C   UNL     1       0.058   9.634  22.706  0.00  0.00    +0.000 A 
ATOM      7  C   UNL     1      -0.813  10.835  22.703  0.00  0.00    +0.000 A 
ATOM      8  O   UNL     1      -1.377  11.289  23.679  0.00  0.00    +0.000 OA
ATOM      9  N   UNL     1      -0.888  11.295  21.397  0.00  0.00    +0.000 N 
ATOM     10  N   UNL     1      -0.354  10.302  20.615  0.00  0.00    +0.000 N 
ATOM     11  H   UNL     1      -1.659  11.864  21.074  0.00  0.00    +0.000 HD
ENDROOT
BRANCH   3  12
ATOM     12  C   UNL     1       2.381   7.639  18.989  0.00  0.00    +0.000 A 
ATOM     13  C   UNL     1       2.646   6.395  19.568  0.00  0.00    +0.000 A 
ATOM     14  C   UNL     1       3.544   5.506  18.966  0.00  0.00    +0.000 A 
ATOM     15  C   UNL     1       4.201   5.826  17.767  0.00  0.00    +0.000 A 
ATOM     16  C   UNL     1       3.918   7.082  17.194  0.00  0.00    +0.000 A 
ATOM     17  C   UNL     1       3.018   7.975  17.792  0.00  0.00    +0.000 A 
BRANCH  15  18
ATOM     18  C   UNL     1       5.176   4.852  17.081  0.00  0.00    +0.000 C 
ATOM     19  C   UNL     1       6.517   4.693  17.836  0.00  0.00    +0.000 C 
ATOM     20  C   UNL     1       4.532   3.452  16.993  0.00  0.00    +0.000 C 
ATOM     21  C   UNL     1       5.512   5.341  15.655  0.00  0.00    +0.000 C 
ENDBRANCH  15  18
ENDBRANCH   3  12
BRANCH   1  22
ATOM     22  S   UNL     1      -0.617  11.645  18.270  0.00  0.00    +0.000 S 
BRANCH  22  23
ATOM     23  C   UNL     1      -1.702  10.586  17.231  0.00  0.00    +0.000 C 
BRANCH  23  24
ATOM     24  C   UNL     1      -3.090  10.493  17.860  0.00  0.00    +0.000 C 
BRANCH  24  25
ATOM     25  O   UNL     1      -3.553  11.738  18.370  0.00  0.00    +0.000 OA
BRANCH  25  31
ATOM     26  C   UNL     1      -5.248  12.482  20.082  0.00  0.00    +0.000 A 
ATOM     27  C   UNL     1      -6.604  12.349  20.470  0.00  0.00    +0.000 A 
ATOM     28  C   UNL     1      -7.469  11.467  19.828  0.00  0.00    +0.000 A 
ATOM     29  C   UNL     1      -6.999  10.694  18.777  0.00  0.00    +0.000 A 
ATOM     30  C   UNL     1      -5.676  10.835  18.352  0.00  0.00    +0.000 A 
ATOM     31  C   UNL     1      -4.795  11.743  18.968  0.00  0.00    +0.000 A 
BRANCH  26  32
ATOM     32  C   UNL     1      -4.415  13.389  20.965  0.00  0.00    +0.000 C 
BRANCH  32  34
ATOM     33  C   UNL     1      -4.732  13.112  23.444  0.00  0.00    +0.000 C 
ATOM     34  C   UNL     1      -4.090  12.795  22.312  0.00  0.00    +0.000 C 
ENDBRANCH  32  34
ENDBRANCH  26  32
ENDBRANCH  25  31
ENDBRANCH  24  25
ENDBRANCH  23  24
ENDBRANCH  22  23
ENDBRANCH   1  22
TORSDOF 9
ENDMDL
MODEL 4
REMARK VINA RESULT:      -7.9      5.791      9.995
REMARK  Name = 
REMARK  12 active torsions:
REMARK  status: ('A' for Active; 'I' for Inactive)
REMARK    1  A    between atoms: C_2  and  C_3
REMARK    2  A    between atoms: C_3  and  C_4
REMARK    3  A    between atoms: C_9  and  O_10
REMARK    4  A    between atoms: O_10  and  C_11
REMARK    5  A    between atoms: C_11  and  C_12
REMARK    6  A    between atoms: C_12  and  S_13
REMARK    7  A    between atoms: S_13  and  C_14
REMARK    8  A    between atoms: C_16  and  C_17
REMARK    9  A    between atoms: C_20  and  C_21
REMARK   10  A    between atoms: C_21  and  C_22
REMARK   11  A    between atoms: C_21  and  C_23
REMARK   12  A    between atoms: C_21  and  C_24
REMARK                            x       y       z     vdW  Elec       q    Type
REMARK                         _______ _______ _______ _____ _____    ______ ____
ROOT
ATOM      1  C   UNL     1      -1.057  11.074  17.977  0.00  0.00    +0.000 A 
ATOM      2  N   UNL     1      -0.338   9.994  18.021  0.00  0.00    +0.000 NA
ATOM      3  C   UNL     1       0.916  10.090  18.629  0.00  0.00    +0.000 A 
ATOM      4  N   UNL     1       1.444  11.186  19.105  0.00  0.00    +0.000 NA
ATOM      5  C   UNL     1       0.668  12.297  18.959  0.00  0.00    +0.000 A 
ATOM      6  C   UNL     1       1.074  13.561  19.131  0.00  0.00    +0.000 A 
ATOM      7  C   UNL     1      -0.090  14.378  18.709  0.00  0.00    +0.000 A 
ATOM      8  O   UNL     1      -0.182  15.582  18.845  0.00  0.00    +0.000 OA
ATOM      9  N   UNL     1      -1.040  13.515  18.184  0.00  0.00    +0.000 N 
ATOM     10  N   UNL     1      -0.627  12.250  18.520  0.00  0.00    +0.000 N 
ATOM     11  H   UNL     1      -2.021  13.757  18.147  0.00  0.00    +0.000 HD
ENDROOT
BRANCH   3  12
ATOM     12  C   UNL     1       1.671   8.801  18.716  0.00  0.00    +0.000 A 
ATOM     13  C   UNL     1       2.398   8.330  17.620  0.00  0.00    +0.000 A 
ATOM     14  C   UNL     1       3.083   7.112  17.689  0.00  0.00    +0.000 A 
ATOM     15  C   UNL     1       3.069   6.328  18.853  0.00  0.00    +0.000 A 
ATOM     16  C   UNL     1       2.336   6.819  19.951  0.00  0.00    +0.000 A 
ATOM     17  C   UNL     1       1.650   8.040  19.888  0.00  0.00    +0.000 A 
BRANCH  15  18
ATOM     18  C   UNL     1       3.834   4.995  18.954  0.00  0.00    +0.000 C 
ATOM     19  C   UNL     1       3.226   4.016  19.986  0.00  0.00    +0.000 C 
ATOM     20  C   UNL     1       3.816   4.284  17.583  0.00  0.00    +0.000 C 
ATOM     21  C   UNL     1       5.299   5.244  19.371  0.00  0.00    +0.000 C 
ENDBRANCH  15  18
ENDBRANCH   3  12
BRANCH   1  22
ATOM     22  S   UNL     1      -2.656  10.966  17.250  0.00  0.00    +0.000 S 
BRANCH  22  23
ATOM     23  C   UNL     1      -3.668  10.808  18.774  0.00  0.00    +0.000 C 
BRANCH  23  24
ATOM     24  C   UNL     1      -4.221  12.174  19.174  0.00  0.00    +0.000 C 
BRANCH  24  25
ATOM     25  O   UNL     1      -3.323  12.919  19.988  0.00  0.00    +0.000 OA
BRANCH  25  31
ATOM     26  C   UNL     1      -2.529  12.568  22.355  0.00  0.00    +0.000 A 
ATOM     27  C   UNL     1      -2.951  12.572  23.707  0.00  0.00    +0.000 A 
ATOM     28  C   UNL     1      -4.287  12.747  24.059  0.00  0.00    +0.000 A 
ATOM     29  C   UNL     1      -5.237  12.925  23.064  0.00  0.00    +0.000 A 
ATOM     30  C   UNL     1      -4.839  12.964  21.726  0.00  0.00    +0.000 A 
ATOM     31  C   UNL     1      -3.490  12.819  21.352  0.00  0.00    +0.000 A 
BRANCH  26  32
ATOM     32  C   UNL     1      -1.065  12.238  22.142  0.00  0.00    +0.000 C 
BRANCH  32  34
ATOM     33  C   UNL     1      -0.465   9.930  22.941  0.00  0.00    +0.000 C 
ATOM     34  C   UNL     1      -0.795  10.767  21.949  0.00  0.00    +0.000 C 
ENDBRANCH  32  34
ENDBRANCH  26  32
ENDBRANCH  25  31
ENDBRANCH  24  25
ENDBRANCH  23  24
ENDBRANCH  22  23
ENDBRANCH   1  22
TORSDOF 9
ENDMDL
MODEL 5
REMARK VINA RESULT:      -7.8      5.742     10.483
REMARK  Name = 
REMARK  12 active torsions:
REMARK  status: ('A' for Active; 'I' for Inactive)
REMARK    1  A    between atoms: C_2  and  C_3
REMARK    2  A    between atoms: C_3  and  C_4
REMARK    3  A    between atoms: C_9  and  O_10
REMARK    4  A    between atoms: O_10  and  C_11
REMARK    5  A    between atoms: C_11  and  C_12
REMARK    6  A    between atoms: C_12  and  S_13
REMARK    7  A    between atoms: S_13  and  C_14
REMARK    8  A    between atoms: C_16  and  C_17
REMARK    9  A    between atoms: C_20  and  C_21
REMARK   10  A    between atoms: C_21  and  C_22
REMARK   11  A    between atoms: C_21  and  C_23
REMARK   12  A    between atoms: C_21  and  C_24
REMARK                            x       y       z     vdW  Elec       q    Type
REMARK                         _______ _______ _______ _____ _____    ______ ____
ROOT
ATOM      1  C   UNL     1      -0.428  11.151  19.434  0.00  0.00    +0.000 A 
ATOM      2  N   UNL     1       0.446  10.312  18.968  0.00  0.00    +0.000 NA
ATOM      3  C   UNL     1       0.874   9.297  19.827  0.00  0.00    +0.000 A 
ATOM      4  N   UNL     1       0.509   9.158  21.074  0.00  0.00    +0.000 NA
ATOM      5  C   UNL     1      -0.351  10.116  21.522  0.00  0.00    +0.000 A 
ATOM      6  C   UNL     1      -0.672  10.340  22.801  0.00  0.00    +0.000 A 
ATOM      7  C   UNL     1      -1.508  11.565  22.758  0.00  0.00    +0.000 A 
ATOM      8  O   UNL     1      -2.119  12.025  23.702  0.00  0.00    +0.000 OA
ATOM      9  N   UNL     1      -1.487  12.041  21.456  0.00  0.00    +0.000 N 
ATOM     10  N   UNL     1      -0.932  11.041  20.697  0.00  0.00    +0.000 N 
ATOM     11  H   UNL     1      -2.220  12.635  21.091  0.00  0.00    +0.000 HD
ENDROOT
BRANCH   3  12
ATOM     12  C   UNL     1       1.826   8.318  19.215  0.00  0.00    +0.000 A 
ATOM     13  C   UNL     1       2.144   7.130  19.878  0.00  0.00    +0.000 A 
ATOM     14  C   UNL     1       3.054   6.224  19.321  0.00  0.00    +0.000 A 
ATOM     15  C   UNL     1       3.671   6.471  18.085  0.00  0.00    +0.000 A 
ATOM     16  C   UNL     1       3.334   7.671  17.426  0.00  0.00    +0.000 A 
ATOM     17  C   UNL     1       2.422   8.580  17.979  0.00  0.00    +0.000 A 
BRANCH  15  18
ATOM     18  C   UNL     1       4.659   5.477  17.448  0.00  0.00    +0.000 C 
ATOM     19  C   UNL     1       5.254   5.976  16.110  0.00  0.00    +0.000 C 
ATOM     20  C   UNL     1       5.840   5.233  18.411  0.00  0.00    +0.000 C 
ATOM     21  C   UNL     1       3.959   4.131  17.160  0.00  0.00    +0.000 C 
ENDBRANCH  15  18
ENDBRANCH   3  12
BRANCH   1  22
ATOM     22  S   UNL     1      -1.009  12.414  18.356  0.00  0.00    +0.000 S 
BRANCH  22  23
ATOM     23  C   UNL     1      -1.980  11.385  17.184  0.00  0.00    +0.000 C 
BRANCH  23  24
ATOM     24  C   UNL     1      -3.439  11.327  17.632  0.00  0.00    +0.000 C 
BRANCH  24  25
ATOM     25  O   UNL     1      -3.682  12.058  18.828  0.00  0.00    +0.000 OA
BRANCH  25  31
ATOM     26  C   UNL     1      -5.420  12.458  20.610  0.00  0.00    +0.000 A 
ATOM     27  C   UNL     1      -6.760  12.177  20.973  0.00  0.00    +0.000 A 
ATOM     28  C   UNL     1      -7.558  11.316  20.224  0.00  0.00    +0.000 A 
ATOM     29  C   UNL     1      -7.036  10.714  19.090  0.00  0.00    +0.000 A 
ATOM     30  C   UNL     1      -5.730  11.005  18.691  0.00  0.00    +0.000 A 
ATOM     31  C   UNL     1      -4.917  11.896  19.417  0.00  0.00    +0.000 A 
BRANCH  26  32
ATOM     32  C   UNL     1      -4.653  13.312  21.601  0.00  0.00    +0.000 C 
BRANCH  32  34
ATOM     33  C   UNL     1      -5.515  14.691  23.519  0.00  0.00    +0.000 C 
ATOM     34  C   UNL     1      -5.472  14.422  22.207  0.00  0.00    +0.000 C 
ENDBRANCH  32  34
ENDBRANCH  26  32
ENDBRANCH  25  31
ENDBRANCH  24  25
ENDBRANCH  23  24
ENDBRANCH  22  23
ENDBRANCH   1  22
TORSDOF 9
ENDMDL
MODEL 6
REMARK VINA RESULT:      -7.8      5.777     10.731
REMARK  Name = 
REMARK  12 active torsions:
REMARK  status: ('A' for Active; 'I' for Inactive)
REMARK    1  A    between atoms: C_2  and  C_3
REMARK    2  A    between atoms: C_3  and  C_4
REMARK    3  A    between atoms: C_9  and  O_10
REMARK    4  A    between atoms: O_10  and  C_11
REMARK    5  A    between atoms: C_11  and  C_12
REMARK    6  A    between atoms: C_12  and  S_13
REMARK    7  A    between atoms: S_13  and  C_14
REMARK    8  A    between atoms: C_16  and  C_17
REMARK    9  A    between atoms: C_20  and  C_21
REMARK   10  A    between atoms: C_21  and  C_22
REMARK   11  A    between atoms: C_21  and  C_23
REMARK   12  A    between atoms: C_21  and  C_24
REMARK                            x       y       z     vdW  Elec       q    Type
REMARK                         _______ _______ _______ _____ _____    ______ ____
ROOT
ATOM      1  C   UNL     1      -1.030  10.722  17.962  0.00  0.00    +0.000 A 
ATOM      2  N   UNL     1      -0.171   9.751  17.885  0.00  0.00    +0.000 NA
ATOM      3  C   UNL     1       0.823   9.703  18.865  0.00  0.00    +0.000 A 
ATOM      4  N   UNL     1       0.991  10.583  19.816  0.00  0.00    +0.000 NA
ATOM      5  C   UNL     1       0.102  11.616  19.794  0.00  0.00    +0.000 A 
ATOM      6  C   UNL     1       0.209  12.754  20.490  0.00  0.00    +0.000 A 
ATOM      7  C   UNL     1      -0.916  13.588  20.001  0.00  0.00    +0.000 A 
ATOM      8  O   UNL     1      -1.257  14.651  20.483  0.00  0.00    +0.000 OA
ATOM      9  N   UNL     1      -1.510  12.914  18.945  0.00  0.00    +0.000 N 
ATOM     10  N   UNL     1      -0.988  11.645  18.966  0.00  0.00    +0.000 N 
ATOM     11  H   UNL     1      -2.467  13.086  18.670  0.00  0.00    +0.000 HD
ENDROOT
BRANCH   3  12
ATOM     12  C   UNL     1       1.741   8.525  18.770  0.00  0.00    +0.000 A 
ATOM     13  C   UNL     1       2.568   8.360  17.656  0.00  0.00    +0.000 A 
ATOM     14  C   UNL     1       3.408   7.245  17.551  0.00  0.00    +0.000 A 
ATOM     15  C   UNL     1       3.455   6.265  18.555  0.00  0.00    +0.000 A 
ATOM     16  C   UNL     1       2.620   6.451  19.674  0.00  0.00    +0.000 A 
ATOM     17  C   UNL     1       1.778   7.566  19.785  0.00  0.00    +0.000 A 
BRANCH  15  18
ATOM     18  C   UNL     1       4.388   5.044  18.465  0.00  0.00    +0.000 C 
ATOM     19  C   UNL     1       3.939   3.862  19.357  0.00  0.00    +0.000 C 
ATOM     20  C   UNL     1       4.429   4.529  17.011  0.00  0.00    +0.000 C 
ATOM     21  C   UNL     1       5.819   5.425  18.903  0.00  0.00    +0.000 C 
ENDBRANCH  15  18
ENDBRANCH   3  12
BRANCH   1  22
ATOM     22  S   UNL     1      -2.313  10.779  16.760  0.00  0.00    +0.000 S 
BRANCH  22  23
ATOM     23  C   UNL     1      -3.726  10.239  17.803  0.00  0.00    +0.000 C 
BRANCH  23  24
ATOM     24  C   UNL     1      -4.748  11.368  17.915  0.00  0.00    +0.000 C 
BRANCH  24  25
ATOM     25  O   UNL     1      -4.503  12.230  19.021  0.00  0.00    +0.000 OA
BRANCH  25  31
ATOM     26  C   UNL     1      -5.478  12.994  21.217  0.00  0.00    +0.000 A 
ATOM     27  C   UNL     1      -6.604  12.863  22.066  0.00  0.00    +0.000 A 
ATOM     28  C   UNL     1      -7.635  11.969  21.787  0.00  0.00    +0.000 A 
ATOM     29  C   UNL     1      -7.566  11.183  20.647  0.00  0.00    +0.000 A 
ATOM     30  C   UNL     1      -6.484  11.321  19.775  0.00  0.00    +0.000 A 
ATOM     31  C   UNL     1      -5.448  12.240  20.024  0.00  0.00    +0.000 A 
BRANCH  26  32
ATOM     32  C   UNL     1      -4.390  13.915  21.732  0.00  0.00    +0.000 C 
BRANCH  32  34
ATOM     33  C   UNL     1      -2.897  12.218  22.832  0.00  0.00    +0.000 C 
ATOM     34  C   UNL     1      -3.612  13.349  22.891  0.00  0.00    +0.000 C 
ENDBRANCH  32  34
ENDBRANCH  26  32
ENDBRANCH  25  31
ENDBRANCH  24  25
ENDBRANCH  23  24
ENDBRANCH  22  23
ENDBRANCH   1  22
TORSDOF 9
ENDMDL
MODEL 7
REMARK VINA RESULT:      -7.8      5.774     10.574
REMARK  Name = 
REMARK  12 active torsions:
REMARK  status: ('A' for Active; 'I' for Inactive)
REMARK    1  A    between atoms: C_2  and  C_3
REMARK    2  A    between atoms: C_3  and  C_4
REMARK    3  A    between atoms: C_9  and  O_10
REMARK    4  A    between atoms: O_10  and  C_11
REMARK    5  A    between atoms: C_11  and  C_12
REMARK    6  A    between atoms: C_12  and  S_13
REMARK    7  A    between atoms: S_13  and  C_14
REMARK    8  A    between atoms: C_16  and  C_17
REMARK    9  A    between atoms: C_20  and  C_21
REMARK   10  A    between atoms: C_21  and  C_22
REMARK   11  A    between atoms: C_21  and  C_23
REMARK   12  A    between atoms: C_21  and  C_24
REMARK                            x       y       z     vdW  Elec       q    Type
REMARK                         _______ _______ _______ _____ _____    ______ ____
ROOT
ATOM      1  C   UNL     1      -0.390  11.156  19.405  0.00  0.00    +0.000 A 
ATOM      2  N   UNL     1       0.485  10.310  18.953  0.00  0.00    +0.000 NA
ATOM      3  C   UNL     1       0.907   9.304  19.827  0.00  0.00    +0.000 A 
ATOM      4  N   UNL     1       0.536   9.181  21.073  0.00  0.00    +0.000 NA
ATOM      5  C   UNL     1      -0.325  10.146  21.505  0.00  0.00    +0.000 A 
ATOM      6  C   UNL     1      -0.652  10.386  22.780  0.00  0.00    +0.000 A 
ATOM      7  C   UNL     1      -1.485  11.612  22.718  0.00  0.00    +0.000 A 
ATOM      8  O   UNL     1      -2.100  12.085  23.654  0.00  0.00    +0.000 OA
ATOM      9  N   UNL     1      -1.458  12.072  21.411  0.00  0.00    +0.000 N 
ATOM     10  N   UNL     1      -0.900  11.062  20.667  0.00  0.00    +0.000 N 
ATOM     11  H   UNL     1      -2.187  12.663  21.035  0.00  0.00    +0.000 HD
ENDROOT
BRANCH   3  12
ATOM     12  C   UNL     1       1.860   8.316  19.231  0.00  0.00    +0.000 A 
ATOM     13  C   UNL     1       2.442   8.556  17.985  0.00  0.00    +0.000 A 
ATOM     14  C   UNL     1       3.313   7.621  17.413  0.00  0.00    +0.000 A 
ATOM     15  C   UNL     1       3.636   6.423  18.069  0.00  0.00    +0.000 A 
ATOM     16  C   UNL     1       3.045   6.200  19.328  0.00  0.00    +0.000 A 
ATOM     17  C   UNL     1       2.173   7.133  19.905  0.00  0.00    +0.000 A 
BRANCH  15  18
ATOM     18  C   UNL     1       4.608   5.393  17.464  0.00  0.00    +0.000 C 
ATOM     19  C   UNL     1       3.945   4.028  17.163  0.00  0.00    +0.000 C 
ATOM     20  C   UNL     1       5.170   5.933  16.132  0.00  0.00    +0.000 C 
ATOM     21  C   UNL     1       5.780   5.126  18.433  0.00  0.00    +0.000 C 
ENDBRANCH  15  18
ENDBRANCH   3  12
BRANCH   1  22
ATOM     22  S   UNL     1      -0.964  12.407  18.309  0.00  0.00    +0.000 S 
BRANCH  22  23
ATOM     23  C   UNL     1      -2.279  11.464  17.440  0.00  0.00    +0.000 C 
BRANCH  23  24
ATOM     24  C   UNL     1      -3.486  11.290  18.359  0.00  0.00    +0.000 C 
BRANCH  24  25
ATOM     25  O   UNL     1      -4.014  12.529  18.820  0.00  0.00    +0.000 OA
BRANCH  25  31
ATOM     26  C   UNL     1      -6.466  12.251  19.336  0.00  0.00    +0.000 A 
ATOM     27  C   UNL     1      -7.401  12.171  20.397  0.00  0.00    +0.000 A 
ATOM     28  C   UNL     1      -7.026  12.364  21.724  0.00  0.00    +0.000 A 
ATOM     29  C   UNL     1      -5.701  12.641  22.025  0.00  0.00    +0.000 A 
ATOM     30  C   UNL     1      -4.754  12.688  21.000  0.00  0.00    +0.000 A 
ATOM     31  C   UNL     1      -5.108  12.466  19.656  0.00  0.00    +0.000 A 
BRANCH  26  32
ATOM     32  C   UNL     1      -7.063  12.143  17.947  0.00  0.00    +0.000 C 
BRANCH  32  34
ATOM     33  C   UNL     1      -6.823  14.300  16.677  0.00  0.00    +0.000 C 
ATOM     34  C   UNL     1      -7.568  13.453  17.399  0.00  0.00    +0.000 C 
ENDBRANCH  32  34
ENDBRANCH  26  32
ENDBRANCH  25  31
ENDBRANCH  24  25
ENDBRANCH  23  24
ENDBRANCH  22  23
ENDBRANCH   1  22
TORSDOF 9
ENDMDL
MODEL 8
REMARK VINA RESULT:      -7.8      5.628     10.959
REMARK  Name = 
REMARK  12 active torsions:
REMARK  status: ('A' for Active; 'I' for Inactive)
REMARK    1  A    between atoms: C_2  and  C_3
REMARK    2  A    between atoms: C_3  and  C_4
REMARK    3  A    between atoms: C_9  and  O_10
REMARK    4  A    between atoms: O_10  and  C_11
REMARK    5  A    between atoms: C_11  and  C_12
REMARK    6  A    between atoms: C_12  and  S_13
REMARK    7  A    between atoms: S_13  and  C_14
REMARK    8  A    between atoms: C_16  and  C_17
REMARK    9  A    between atoms: C_20  and  C_21
REMARK   10  A    between atoms: C_21  and  C_22
REMARK   11  A    between atoms: C_21  and  C_23
REMARK   12  A    between atoms: C_21  and  C_24
REMARK                            x       y       z     vdW  Elec       q    Type
REMARK                         _______ _______ _______ _____ _____    ______ ____
ROOT
ATOM      1  C   UNL     1      -0.535  10.426  19.205  0.00  0.00    +0.000 A 
ATOM      2  N   UNL     1       0.374   9.627  18.734  0.00  0.00    +0.000 NA
ATOM      3  C   UNL     1       1.130   8.907  19.663  0.00  0.00    +0.000 A 
ATOM      4  N   UNL     1       1.034   9.015  20.962  0.00  0.00    +0.000 NA
ATOM      5  C   UNL     1       0.114   9.926  21.388  0.00  0.00    +0.000 A 
ATOM      6  C   UNL     1       0.001  10.396  22.635  0.00  0.00    +0.000 A 
ATOM      7  C   UNL     1      -1.035  11.453  22.533  0.00  0.00    +0.000 A 
ATOM      8  O   UNL     1      -1.533  12.034  23.478  0.00  0.00    +0.000 OA
ATOM      9  N   UNL     1      -1.343  11.611  21.191  0.00  0.00    +0.000 N 
ATOM     10  N   UNL     1      -0.767  10.546  20.544  0.00  0.00    +0.000 N 
ATOM     11  H   UNL     1      -2.225  11.999  20.885  0.00  0.00    +0.000 HD
ENDROOT
BRANCH   3  12
ATOM     12  C   UNL     1       2.113   7.950  19.065  0.00  0.00    +0.000 A 
ATOM     13  C   UNL     1       2.778   8.267  17.878  0.00  0.00    +0.000 A 
ATOM     14  C   UNL     1       3.677   7.363  17.302  0.00  0.00    +0.000 A 
ATOM     15  C   UNL     1       3.946   6.119  17.893  0.00  0.00    +0.000 A 
ATOM     16  C   UNL     1       3.272   5.817  19.093  0.00  0.00    +0.000 A 
ATOM     17  C   UNL     1       2.372   6.720  19.675  0.00  0.00    +0.000 A 
BRANCH  15  18
ATOM     18  C   UNL     1       4.948   5.120  17.284  0.00  0.00    +0.000 C 
ATOM     19  C   UNL     1       4.391   3.681  17.177  0.00  0.00    +0.000 C 
ATOM     20  C   UNL     1       5.325   5.572  15.857  0.00  0.00    +0.000 C 
ATOM     21  C   UNL     1       6.228   5.049  18.144  0.00  0.00    +0.000 C 
ENDBRANCH  15  18
ENDBRANCH   3  12
BRANCH   1  22
ATOM     22  S   UNL     1      -1.524  11.312  18.051  0.00  0.00    +0.000 S 
BRANCH  22  23
ATOM     23  C   UNL     1      -2.827  10.054  17.744  0.00  0.00    +0.000 C 
BRANCH  23  24
ATOM     24  C   UNL     1      -4.142  10.745  17.389  0.00  0.00    +0.000 C 
BRANCH  24  25
ATOM     25  O   UNL     1      -4.945  11.027  18.530  0.00  0.00    +0.000 OA
BRANCH  25  31
ATOM     26  C   UNL     1      -7.041  12.249  19.217  0.00  0.00    +0.000 A 
ATOM     27  C   UNL     1      -7.916  13.299  18.847  0.00  0.00    +0.000 A 
ATOM     28  C   UNL     1      -7.768  13.991  17.647  0.00  0.00    +0.000 A 
ATOM     29  C   UNL     1      -6.736  13.650  16.786  0.00  0.00    +0.000 A 
ATOM     30  C   UNL     1      -5.838  12.643  17.147  0.00  0.00    +0.000 A 
ATOM     31  C   UNL     1      -5.953  11.953  18.368  0.00  0.00    +0.000 A 
BRANCH  26  32
ATOM     32  C   UNL     1      -7.419  11.518  20.490  0.00  0.00    +0.000 C 
BRANCH  32  34
ATOM     33  C   UNL     1      -7.873  11.988  22.918  0.00  0.00    +0.000 C 
ATOM     34  C   UNL     1      -7.518  12.414  21.698  0.00  0.00    +0.000 C 
ENDBRANCH  32  34
ENDBRANCH  26  32
ENDBRANCH  25  31
ENDBRANCH  24  25
ENDBRANCH  23  24
ENDBRANCH  22  23
ENDBRANCH   1  22
TORSDOF 9
ENDMDL
MODEL 9
REMARK VINA RESULT:      -7.7      5.717     10.252
REMARK  Name = 
REMARK  12 active torsions:
REMARK  status: ('A' for Active; 'I' for Inactive)
REMARK    1  A    between atoms: C_2  and  C_3
REMARK    2  A    between atoms: C_3  and  C_4
REMARK    3  A    between atoms: C_9  and  O_10
REMARK    4  A    between atoms: O_10  and  C_11
REMARK    5  A    between atoms: C_11  and  C_12
REMARK    6  A    between atoms: C_12  and  S_13
REMARK    7  A    between atoms: S_13  and  C_14
REMARK    8  A    between atoms: C_16  and  C_17
REMARK    9  A    between atoms: C_20  and  C_21
REMARK   10  A    between atoms: C_21  and  C_22
REMARK   11  A    between atoms: C_21  and  C_23
REMARK   12  A    between atoms: C_21  and  C_24
REMARK                            x       y       z     vdW  Elec       q    Type
REMARK                         _______ _______ _______ _____ _____    ______ ____
ROOT
ATOM      1  C   UNL     1      -0.095  10.362  19.592  0.00  0.00    +0.000 A 
ATOM      2  N   UNL     1       0.749   9.455  19.204  0.00  0.00    +0.000 NA
ATOM      3  C   UNL     1       1.167   8.525  20.159  0.00  0.00    +0.000 A 
ATOM      4  N   UNL     1       0.821   8.529  21.419  0.00  0.00    +0.000 NA
ATOM      5  C   UNL     1      -0.007   9.551  21.776  0.00  0.00    +0.000 A 
ATOM      6  C   UNL     1      -0.300   9.917  23.029  0.00  0.00    +0.000 A 
ATOM      7  C   UNL     1      -1.106  11.153  22.869  0.00  0.00    +0.000 A 
ATOM      8  O   UNL     1      -1.689  11.726  23.768  0.00  0.00    +0.000 OA
ATOM      9  N   UNL     1      -1.096  11.488  21.524  0.00  0.00    +0.000 N 
ATOM     10  N   UNL     1      -0.579  10.399  20.867  0.00  0.00    +0.000 N 
ATOM     11  H   UNL     1      -1.820  12.059  21.109  0.00  0.00    +0.000 HD
ENDROOT
BRANCH   3  12
ATOM     12  C   UNL     1       2.083   7.462  19.640  0.00  0.00    +0.000 A 
ATOM     13  C   UNL     1       2.729   7.621  18.412  0.00  0.00    +0.000 A 
ATOM     14  C   UNL     1       3.566   6.617  17.912  0.00  0.00    +0.000 A 
ATOM     15  C   UNL     1       3.789   5.427  18.622  0.00  0.00    +0.000 A 
ATOM     16  C   UNL     1       3.135   5.285  19.862  0.00  0.00    +0.000 A 
ATOM     17  C   UNL     1       2.297   6.289  20.368  0.00  0.00    +0.000 A 
BRANCH  15  18
ATOM     18  C   UNL     1       4.722   4.321  18.096  0.00  0.00    +0.000 C 
ATOM     19  C   UNL     1       6.223   4.637  18.299  0.00  0.00    +0.000 C 
ATOM     20  C   UNL     1       4.428   3.000  18.840  0.00  0.00    +0.000 C 
ATOM     21  C   UNL     1       4.503   4.105  16.583  0.00  0.00    +0.000 C 
ENDBRANCH  15  18
ENDBRANCH   3  12
BRANCH   1  22
ATOM     22  S   UNL     1      -0.664  11.520  18.395  0.00  0.00    +0.000 S 
BRANCH  22  23
ATOM     23  C   UNL     1      -1.687  10.401  17.357  0.00  0.00    +0.000 C 
BRANCH  23  24
ATOM     24  C   UNL     1      -3.147  10.844  17.401  0.00  0.00    +0.000 C 
BRANCH  24  25
ATOM     25  O   UNL     1      -3.407  11.797  18.426  0.00  0.00    +0.000 OA
BRANCH  25  31
ATOM     26  C   UNL     1      -5.186  12.520  20.059  0.00  0.00    +0.000 A 
ATOM     27  C   UNL     1      -6.574  12.444  20.334  0.00  0.00    +0.000 A 
ATOM     28  C   UNL     1      -7.434  11.663  19.565  0.00  0.00    +0.000 A 
ATOM     29  C   UNL     1      -6.926  10.939  18.497  0.00  0.00    +0.000 A 
ATOM     30  C   UNL     1      -5.569  11.028  18.183  0.00  0.00    +0.000 A 
ATOM     31  C   UNL     1      -4.689  11.835  18.930  0.00  0.00    +0.000 A 
BRANCH  26  32
ATOM     32  C   UNL     1      -4.376  13.310  21.067  0.00  0.00    +0.000 C 
BRANCH  32  34
ATOM     33  C   UNL     1      -4.431  13.795  23.534  0.00  0.00    +0.000 C 
ATOM     34  C   UNL     1      -4.710  12.988  22.501  0.00  0.00    +0.000 C 
ENDBRANCH  32  34
ENDBRANCH  26  32
ENDBRANCH  25  31
ENDBRANCH  24  25
ENDBRANCH  23  24
ENDBRANCH  22  23
ENDBRANCH   1  22
TORSDOF 9
ENDMDL
