MODEL 1
REMARK VINA RESULT:      -8.2      0.000      0.000
REMARK  Name = 
REMARK  6 active torsions:
REMARK  status: ('A' for Active; 'I' for Inactive)
REMARK    1  A    between atoms: C_1  and  C_2
REMARK    2  A    between atoms: C_5  and  C_6
REMARK    3  A    between atoms: C_6  and  N_7
REMARK    4  A    between atoms: C_8  and  C_10
REMARK    5  A    between atoms: N_12  and  C_13
REMARK    6  A    between atoms: C_17  and  N_18
REMARK                            x       y       z     vdW  Elec       q    Type
REMARK                         _______ _______ _______ _____ _____    ______ ____
ROOT
ATOM      1  C   UNL     1       1.262   8.906  20.713  0.00  0.00    +0.000 C 
ATOM      2  O   UNL     1       1.431   8.671  21.907  0.00  0.00    +0.000 OA
ATOM      3  N   UNL     1       1.622   8.137  19.621  0.00  0.00    +0.000 N 
ATOM      4  H   UNL     1       1.490   8.574  18.713  0.00  0.00    +0.000 HD
ENDROOT
BRANCH   3   5
ATOM      5  C   UNL     1       2.242   6.865  19.682  0.00  0.00    +0.000 A 
ATOM      6  C   UNL     1       1.775   5.863  20.533  0.00  0.00    +0.000 A 
ATOM      7  C   UNL     1       2.416   4.633  20.599  0.00  0.00    +0.000 A 
ATOM      8  C   UNL     1       3.551   4.399  19.828  0.00  0.00    +0.000 A 
ATOM      9  C   UNL     1       4.061   5.380  18.969  0.00  0.00    +0.000 A 
ATOM     10  C   UNL     1       3.366   6.606  18.877  0.00  0.00    +0.000 A 
BRANCH   9  11
ATOM     11  N   UNL     1       5.257   5.137  18.237  0.00  0.00    +0.000 N 
ATOM     12  C   UNL     1       5.298   5.014  16.801  0.00  0.00    +0.000 C 
ATOM     13  C   UNL     1       6.668   4.425  16.521  0.00  0.00    +0.000 C 
ATOM     14  C   UNL     1       7.532   4.996  17.626  0.00  0.00    +0.000 C 
ATOM     15  C   UNL     1       6.561   5.161  18.770  0.00  0.00    +0.000 C 
ATOM     16  O   UNL     1       6.930   5.354  19.918  0.00  0.00    +0.000 OA
ENDBRANCH   9  11
ENDBRANCH   3   5
BRANCH   1  18
ATOM     17  N   UNL     1      -0.714  10.105  19.979  0.00  0.00    +0.000 N 
ATOM     18  C   UNL     1       0.601  10.253  20.355  0.00  0.00    +0.000 C 
ATOM     19  O   UNL     1       1.236  11.293  20.430  0.00  0.00    +0.000 OA
ATOM     20  H   UNL     1      -1.081   9.157  19.997  0.00  0.00    +0.000 HD
BRANCH  17  21
ATOM     21  C   UNL     1      -1.575  11.181  19.563  0.00  0.00    +0.000 C 
BRANCH  21  26
ATOM     22  C   UNL     1      -3.951  10.060  14.357  0.00  0.00    +0.000 C 
ATOM     23  C   UNL     1      -3.314  10.374  15.679  0.00  0.00    +0.000 A 
ATOM     24  C   UNL     1      -2.139   9.731  16.081  0.00  0.00    +0.000 A 
ATOM     25  C   UNL     1      -1.570  10.008  17.328  0.00  0.00    +0.000 A 
ATOM     26  C   UNL     1      -2.164  10.934  18.198  0.00  0.00    +0.000 A 
ATOM     27  C   UNL     1      -3.334  11.584  17.786  0.00  0.00    +0.000 A 
ATOM     28  C   UNL     1      -3.906  11.305  16.540  0.00  0.00    +0.000 A 
ENDBRANCH  21  26
ENDBRANCH  17  21
ENDBRANCH   1  18
TORSDOF 5
ENDMDL
MODEL 2
REMARK VINA RESULT:      -8.2      2.997      8.473
REMARK  Name = 
REMARK  6 active torsions:
REMARK  status: ('A' for Active; 'I' for Inactive)
REMARK    1  A    between atoms: C_1  and  C_2
REMARK    2  A    between atoms: C_5  and  C_6
REMARK    3  A    between atoms: C_6  and  N_7
REMARK    4  A    between atoms: C_8  and  C_10
REMARK    5  A    between atoms: N_12  and  C_13
REMARK    6  A    between atoms: C_17  and  N_18
REMARK                            x       y       z     vdW  Elec       q    Type
REMARK                         _______ _______ _______ _____ _____    ______ ____
ROOT
ATOM      1  C   UNL     1       6.261   5.106  18.766  0.00  0.00    +0.000 C 
ATOM      2  O   UNL     1       6.719   5.210  19.901  0.00  0.00    +0.000 OA
ATOM      3  N   UNL     1       4.939   5.136  18.361  0.00  0.00    +0.000 N 
ATOM      4  H   UNL     1       4.774   4.916  17.383  0.00  0.00    +0.000 HD
ENDROOT
BRANCH   3   5
ATOM      5  C   UNL     1       3.825   5.342  19.212  0.00  0.00    +0.000 A 
ATOM      6  C   UNL     1       3.236   4.291  19.914  0.00  0.00    +0.000 A 
ATOM      7  C   UNL     1       2.126   4.510  20.719  0.00  0.00    +0.000 A 
ATOM      8  C   UNL     1       1.577   5.786  20.813  0.00  0.00    +0.000 A 
ATOM      9  C   UNL     1       2.129   6.868  20.117  0.00  0.00    +0.000 A 
ATOM     10  C   UNL     1       3.288   6.636  19.344  0.00  0.00    +0.000 A 
BRANCH   9  11
ATOM     11  N   UNL     1       1.513   8.150  20.182  0.00  0.00    +0.000 N 
ATOM     12  C   UNL     1       1.133   8.786  21.418  0.00  0.00    +0.000 C 
ATOM     13  C   UNL     1       0.227   9.923  20.984  0.00  0.00    +0.000 C 
ATOM     14  C   UNL     1       0.789  10.327  19.637  0.00  0.00    +0.000 C 
ATOM     15  C   UNL     1       1.354   9.036  19.098  0.00  0.00    +0.000 C 
ATOM     16  O   UNL     1       1.664   8.896  17.926  0.00  0.00    +0.000 OA
ENDBRANCH   9  11
ENDBRANCH   3   5
BRANCH   1  18
ATOM     17  N   UNL     1       6.959   5.575  16.492  0.00  0.00    +0.000 N 
ATOM     18  C   UNL     1       7.272   4.865  17.626  0.00  0.00    +0.000 C 
ATOM     19  O   UNL     1       8.226   4.119  17.793  0.00  0.00    +0.000 OA
ATOM     20  H   UNL     1       6.132   6.165  16.547  0.00  0.00    +0.000 HD
BRANCH  17  21
ATOM     21  C   UNL     1       7.704   5.528  15.261  0.00  0.00    +0.000 C 
BRANCH  21  26
ATOM     22  C   UNL     1       4.876   2.564  11.110  0.00  0.00    +0.000 C 
ATOM     23  C   UNL     1       5.592   3.360  12.162  0.00  0.00    +0.000 A 
ATOM     24  C   UNL     1       6.865   3.886  11.922  0.00  0.00    +0.000 A 
ATOM     25  C   UNL     1       7.536   4.602  12.918  0.00  0.00    +0.000 A 
ATOM     26  C   UNL     1       6.948   4.806  14.175  0.00  0.00    +0.000 A 
ATOM     27  C   UNL     1       5.667   4.288  14.407  0.00  0.00    +0.000 A 
ATOM     28  C   UNL     1       4.996   3.570  13.411  0.00  0.00    +0.000 A 
ENDBRANCH  21  26
ENDBRANCH  17  21
ENDBRANCH   1  18
TORSDOF 5
ENDMDL
MODEL 3
REMARK VINA RESULT:      -8.1      1.360      1.865
REMARK  Name = 
REMARK  6 active torsions:
REMARK  status: ('A' for Active; 'I' for Inactive)
REMARK    1  A    between atoms: C_1  and  C_2
REMARK    2  A    between atoms: C_5  and  C_6
REMARK    3  A    between atoms: C_6  and  N_7
REMARK    4  A    between atoms: C_8  and  C_10
REMARK    5  A    between atoms: N_12  and  C_13
REMARK    6  A    between atoms: C_17  and  N_18
REMARK                            x       y       z     vdW  Elec       q    Type
REMARK                         _______ _______ _______ _____ _____    ______ ____
ROOT
ATOM      1  C   UNL     1       1.860   7.641  20.050  0.00  0.00    +0.000 C 
ATOM      2  O   UNL     1       2.356   7.896  18.956  0.00  0.00    +0.000 OA
ATOM      3  N   UNL     1       1.876   6.446  20.749  0.00  0.00    +0.000 N 
ATOM      4  H   UNL     1       1.304   6.421  21.588  0.00  0.00    +0.000 HD
ENDROOT
BRANCH   3   5
ATOM      5  C   UNL     1       2.528   5.261  20.330  0.00  0.00    +0.000 A 
ATOM      6  C   UNL     1       2.328   4.045  20.983  0.00  0.00    +0.000 A 
ATOM      7  C   UNL     1       3.000   2.901  20.575  0.00  0.00    +0.000 A 
ATOM      8  C   UNL     1       3.903   2.966  19.518  0.00  0.00    +0.000 A 
ATOM      9  C   UNL     1       4.145   4.167  18.841  0.00  0.00    +0.000 A 
ATOM     10  C   UNL     1       3.413   5.309  19.237  0.00  0.00    +0.000 A 
BRANCH   9  11
ATOM     11  N   UNL     1       5.117   4.220  17.803  0.00  0.00    +0.000 N 
ATOM     12  C   UNL     1       4.788   4.147  16.402  0.00  0.00    +0.000 C 
ATOM     13  C   UNL     1       6.120   3.891  15.723  0.00  0.00    +0.000 C 
ATOM     14  C   UNL     1       7.113   4.615  16.609  0.00  0.00    +0.000 C 
ATOM     15  C   UNL     1       6.482   4.526  17.977  0.00  0.00    +0.000 C 
ATOM     16  O   UNL     1       7.101   4.768  19.001  0.00  0.00    +0.000 OA
ENDBRANCH   9  11
ENDBRANCH   3   5
BRANCH   1  18
ATOM     17  N   UNL     1       0.678   9.749  19.857  0.00  0.00    +0.000 N 
ATOM     18  C   UNL     1       1.073   8.773  20.741  0.00  0.00    +0.000 C 
ATOM     19  O   UNL     1       0.856   8.731  21.943  0.00  0.00    +0.000 OA
ATOM     20  H   UNL     1       0.934   9.601  18.884  0.00  0.00    +0.000 HD
BRANCH  17  21
ATOM     21  C   UNL     1      -0.046  10.940  20.217  0.00  0.00    +0.000 C 
BRANCH  21  26
ATOM     22  C   UNL     1      -4.942  11.454  17.091  0.00  0.00    +0.000 C 
ATOM     23  C   UNL     1      -3.664  11.345  17.870  0.00  0.00    +0.000 A 
ATOM     24  C   UNL     1      -2.659  10.453  17.482  0.00  0.00    +0.000 A 
ATOM     25  C   UNL     1      -1.485  10.339  18.231  0.00  0.00    +0.000 A 
ATOM     26  C   UNL     1      -1.290  11.113  19.384  0.00  0.00    +0.000 A 
ATOM     27  C   UNL     1      -2.294  12.015  19.762  0.00  0.00    +0.000 A 
ATOM     28  C   UNL     1      -3.471  12.128  19.014  0.00  0.00    +0.000 A 
ENDBRANCH  21  26
ENDBRANCH  17  21
ENDBRANCH   1  18
TORSDOF 5
ENDMDL
MODEL 4
REMARK VINA RESULT:      -8.1      2.778      8.453
REMARK  Name = 
REMARK  6 active torsions:
REMARK  status: ('A' for Active; 'I' for Inactive)
REMARK    1  A    between atoms: C_1  and  C_2
REMARK    2  A    between atoms: C_5  and  C_6
REMARK    3  A    between atoms: C_6  and  N_7
REMARK    4  A    between atoms: C_8  and  C_10
REMARK    5  A    between atoms: N_12  and  C_13
REMARK    6  A    between atoms: C_17  and  N_18
REMARK                            x       y       z     vdW  Elec       q    Type
REMARK                         _______ _______ _______ _____ _____    ______ ____
ROOT
ATOM      1  C   UNL     1       6.344   5.152  18.697  0.00  0.00    +0.000 C 
ATOM      2  O   UNL     1       6.802   5.339  19.821  0.00  0.00    +0.000 OA
ATOM      3  N   UNL     1       5.023   5.172  18.287  0.00  0.00    +0.000 N 
ATOM      4  H   UNL     1       4.856   4.876  17.329  0.00  0.00    +0.000 HD
ENDROOT
BRANCH   3   5
ATOM      5  C   UNL     1       3.912   5.464  19.114  0.00  0.00    +0.000 A 
ATOM      6  C   UNL     1       3.313   4.487  19.909  0.00  0.00    +0.000 A 
ATOM      7  C   UNL     1       2.206   4.788  20.690  0.00  0.00    +0.000 A 
ATOM      8  C   UNL     1       1.668   6.072  20.668  0.00  0.00    +0.000 A 
ATOM      9  C   UNL     1       2.230   7.082  19.877  0.00  0.00    +0.000 A 
ATOM     10  C   UNL     1       3.386   6.770  19.128  0.00  0.00    +0.000 A 
BRANCH   9  11
ATOM     11  N   UNL     1       1.626   8.370  19.825  0.00  0.00    +0.000 N 
ATOM     12  C   UNL     1       1.321   9.055  18.595  0.00  0.00    +0.000 C 
ATOM     13  C   UNL     1       1.034  10.480  19.028  0.00  0.00    +0.000 C 
ATOM     14  C   UNL     1       0.422  10.314  20.404  0.00  0.00    +0.000 C 
ATOM     15  C   UNL     1       1.086   9.063  20.926  0.00  0.00    +0.000 C 
ATOM     16  O   UNL     1       1.048   8.745  22.105  0.00  0.00    +0.000 OA
ENDBRANCH   9  11
ENDBRANCH   3   5
BRANCH   1  18
ATOM     17  N   UNL     1       7.011   5.362  16.375  0.00  0.00    +0.000 N 
ATOM     18  C   UNL     1       7.353   4.803  17.583  0.00  0.00    +0.000 C 
ATOM     19  O   UNL     1       8.328   4.109  17.827  0.00  0.00    +0.000 OA
ATOM     20  H   UNL     1       6.168   5.932  16.368  0.00  0.00    +0.000 HD
BRANCH  17  21
ATOM     21  C   UNL     1       7.747   5.187  15.150  0.00  0.00    +0.000 C 
BRANCH  21  26
ATOM     22  C   UNL     1       4.521   2.683  10.988  0.00  0.00    +0.000 C 
ATOM     23  C   UNL     1       5.343   3.362  12.043  0.00  0.00    +0.000 A 
ATOM     24  C   UNL     1       6.665   3.743  11.791  0.00  0.00    +0.000 A 
ATOM     25  C   UNL     1       7.432   4.349  12.790  0.00  0.00    +0.000 A 
ATOM     26  C   UNL     1       6.894   4.587  14.063  0.00  0.00    +0.000 A 
ATOM     27  C   UNL     1       5.565   4.216  14.308  0.00  0.00    +0.000 A 
ATOM     28  C   UNL     1       4.797   3.607  13.309  0.00  0.00    +0.000 A 
ENDBRANCH  21  26
ENDBRANCH  17  21
ENDBRANCH   1  18
TORSDOF 5
ENDMDL
MODEL 5
REMARK VINA RESULT:      -8.1      3.367      5.006
REMARK  Name = 
REMARK  6 active torsions:
REMARK  status: ('A' for Active; 'I' for Inactive)
REMARK    1  A    between atoms: C_1  and  C_2
REMARK    2  A    between atoms: C_5  and  C_6
REMARK    3  A    between atoms: C_6  and  N_7
REMARK    4  A    between atoms: C_8  and  C_10
REMARK    5  A    between atoms: N_12  and  C_13
REMARK    6  A    between atoms: C_17  and  N_18
REMARK                            x       y       z     vdW  Elec       q    Type
REMARK                         _______ _______ _______ _____ _____    ______ ____
ROOT
ATOM      1  C   UNL     1       3.291   4.717  19.637  0.00  0.00    +0.000 C 
ATOM      2  O   UNL     1       3.413   3.503  19.776  0.00  0.00    +0.000 OA
ATOM      3  N   UNL     1       4.137   5.604  18.995  0.00  0.00    +0.000 N 
ATOM      4  H   UNL     1       3.902   6.587  19.097  0.00  0.00    +0.000 HD
ENDROOT
BRANCH   3   5
ATOM      5  C   UNL     1       5.330   5.253  18.318  0.00  0.00    +0.000 A 
ATOM      6  C   UNL     1       6.565   5.244  18.965  0.00  0.00    +0.000 A 
ATOM      7  C   UNL     1       7.726   4.926  18.274  0.00  0.00    +0.000 A 
ATOM      8  C   UNL     1       7.668   4.636  16.914  0.00  0.00    +0.000 A 
ATOM      9  C   UNL     1       6.452   4.645  16.221  0.00  0.00    +0.000 A 
ATOM     10  C   UNL     1       5.275   4.920  16.951  0.00  0.00    +0.000 A 
BRANCH   9  11
ATOM     11  N   UNL     1       6.427   4.404  14.818  0.00  0.00    +0.000 N 
ATOM     12  C   UNL     1       5.364   3.694  14.154  0.00  0.00    +0.000 C 
ATOM     13  C   UNL     1       5.929   3.384  12.780  0.00  0.00    +0.000 C 
ATOM     14  C   UNL     1       6.843   4.560  12.501  0.00  0.00    +0.000 C 
ATOM     15  C   UNL     1       7.315   4.962  13.877  0.00  0.00    +0.000 C 
ATOM     16  O   UNL     1       8.266   5.708  14.050  0.00  0.00    +0.000 OA
ENDBRANCH   9  11
ENDBRANCH   3   5
BRANCH   1  18
ATOM     17  N   UNL     1       2.177   6.740  20.377  0.00  0.00    +0.000 N 
ATOM     18  C   UNL     1       2.058   5.373  20.293  0.00  0.00    +0.000 C 
ATOM     19  O   UNL     1       1.117   4.688  20.664  0.00  0.00    +0.000 OA
ATOM     20  H   UNL     1       3.030   7.139  19.994  0.00  0.00    +0.000 HD
BRANCH  17  21
ATOM     21  C   UNL     1       1.197   7.615  20.966  0.00  0.00    +0.000 C 
BRANCH  21  26
ATOM     22  C   UNL     1       1.283  12.866  18.430  0.00  0.00    +0.000 C 
ATOM     23  C   UNL     1       1.222  11.513  19.076  0.00  0.00    +0.000 A 
ATOM     24  C   UNL     1       0.843  11.372  20.415  0.00  0.00    +0.000 A 
ATOM     25  C   UNL     1       0.818  10.110  21.017  0.00  0.00    +0.000 A 
ATOM     26  C   UNL     1       1.171   8.963  20.292  0.00  0.00    +0.000 A 
ATOM     27  C   UNL     1       1.538   9.107  18.948  0.00  0.00    +0.000 A 
ATOM     28  C   UNL     1       1.566  10.370  18.345  0.00  0.00    +0.000 A 
ENDBRANCH  21  26
ENDBRANCH  17  21
ENDBRANCH   1  18
TORSDOF 5
ENDMDL
MODEL 6
REMARK VINA RESULT:      -8.0      2.726      3.390
REMARK  Name = 
REMARK  6 active torsions:
REMARK  status: ('A' for Active; 'I' for Inactive)
REMARK    1  A    between atoms: C_1  and  C_2
REMARK    2  A    between atoms: C_5  and  C_6
REMARK    3  A    between atoms: C_6  and  N_7
REMARK    4  A    between atoms: C_8  and  C_10
REMARK    5  A    between atoms: N_12  and  C_13
REMARK    6  A    between atoms: C_17  and  N_18
REMARK                            x       y       z     vdW  Elec       q    Type
REMARK                         _______ _______ _______ _____ _____    ______ ____
ROOT
ATOM      1  C   UNL     1       1.438   8.489  20.455  0.00  0.00    +0.000 C 
ATOM      2  O   UNL     1       1.280   8.740  19.263  0.00  0.00    +0.000 OA
ATOM      3  N   UNL     1       1.787   7.288  21.046  0.00  0.00    +0.000 N 
ATOM      4  H   UNL     1       1.752   7.271  22.061  0.00  0.00    +0.000 HD
ENDROOT
BRANCH   3   5
ATOM      5  C   UNL     1       2.077   6.087  20.353  0.00  0.00    +0.000 A 
ATOM      6  C   UNL     1       1.284   4.948  20.497  0.00  0.00    +0.000 A 
ATOM      7  C   UNL     1       1.604   3.772  19.832  0.00  0.00    +0.000 A 
ATOM      8  C   UNL     1       2.739   3.715  19.030  0.00  0.00    +0.000 A 
ATOM      9  C   UNL     1       3.570   4.830  18.865  0.00  0.00    +0.000 A 
ATOM     10  C   UNL     1       3.201   6.032  19.508  0.00  0.00    +0.000 A 
BRANCH   9  11
ATOM     11  N   UNL     1       4.758   4.728  18.087  0.00  0.00    +0.000 N 
ATOM     12  C   UNL     1       4.760   4.645  16.649  0.00  0.00    +0.000 C 
ATOM     13  C   UNL     1       6.172   4.206  16.307  0.00  0.00    +0.000 C 
ATOM     14  C   UNL     1       7.012   4.836  17.399  0.00  0.00    +0.000 C 
ATOM     15  C   UNL     1       6.071   4.873  18.578  0.00  0.00    +0.000 C 
ATOM     16  O   UNL     1       6.459   5.075  19.718  0.00  0.00    +0.000 OA
ENDBRANCH   9  11
ENDBRANCH   3   5
BRANCH   1  18
ATOM     17  N   UNL     1       0.696  10.767  20.830  0.00  0.00    +0.000 N 
ATOM     18  C   UNL     1       1.178   9.638  21.450  0.00  0.00    +0.000 C 
ATOM     19  O   UNL     1       1.391   9.483  22.643  0.00  0.00    +0.000 OA
ATOM     20  H   UNL     1       0.562  10.702  19.824  0.00  0.00    +0.000 HD
BRANCH  17  21
ATOM     21  C   UNL     1       0.389  12.004  21.499  0.00  0.00    +0.000 C 
BRANCH  21  26
ATOM     22  C   UNL     1      -5.320  12.921  22.253  0.00  0.00    +0.000 C 
ATOM     23  C   UNL     1      -3.858  12.646  22.057  0.00  0.00    +0.000 A 
ATOM     24  C   UNL     1      -3.047  12.270  23.132  0.00  0.00    +0.000 A 
ATOM     25  C   UNL     1      -1.680  12.045  22.945  0.00  0.00    +0.000 A 
ATOM     26  C   UNL     1      -1.095  12.191  21.679  0.00  0.00    +0.000 A 
ATOM     27  C   UNL     1      -1.914  12.557  20.602  0.00  0.00    +0.000 A 
ATOM     28  C   UNL     1      -3.282  12.785  20.789  0.00  0.00    +0.000 A 
ENDBRANCH  21  26
ENDBRANCH  17  21
ENDBRANCH   1  18
TORSDOF 5
ENDMDL
MODEL 7
REMARK VINA RESULT:      -8.0      6.138      9.191
REMARK  Name = 
REMARK  6 active torsions:
REMARK  status: ('A' for Active; 'I' for Inactive)
REMARK    1  A    between atoms: C_1  and  C_2
REMARK    2  A    between atoms: C_5  and  C_6
REMARK    3  A    between atoms: C_6  and  N_7
REMARK    4  A    between atoms: C_8  and  C_10
REMARK    5  A    between atoms: N_12  and  C_13
REMARK    6  A    between atoms: C_17  and  N_18
REMARK                            x       y       z     vdW  Elec       q    Type
REMARK                         _______ _______ _______ _____ _____    ______ ____
ROOT
ATOM      1  C   UNL     1       8.093   7.891  18.074  0.00  0.00    +0.000 C 
ATOM      2  O   UNL     1       8.581   7.265  19.011  0.00  0.00    +0.000 OA
ATOM      3  N   UNL     1       8.175   9.245  17.803  0.00  0.00    +0.000 N 
ATOM      4  H   UNL     1       7.599   9.574  17.033  0.00  0.00    +0.000 HD
ENDROOT
BRANCH   3   5
ATOM      5  C   UNL     1       8.899  10.192  18.567  0.00  0.00    +0.000 A 
ATOM      6  C   UNL     1       8.997  10.093  19.955  0.00  0.00    +0.000 A 
ATOM      7  C   UNL     1       9.687  11.049  20.687  0.00  0.00    +0.000 A 
ATOM      8  C   UNL     1      10.271  12.133  20.039  0.00  0.00    +0.000 A 
ATOM      9  C   UNL     1      10.189  12.279  18.649  0.00  0.00    +0.000 A 
ATOM     10  C   UNL     1       9.527  11.270  17.915  0.00  0.00    +0.000 A 
BRANCH   9  11
ATOM     11  N   UNL     1      10.743  13.427  18.016  0.00  0.00    +0.000 N 
ATOM     12  C   UNL     1      12.010  13.422  17.329  0.00  0.00    +0.000 C 
ATOM     13  C   UNL     1      12.333  14.892  17.141  0.00  0.00    +0.000 C 
ATOM     14  C   UNL     1      10.971  15.536  16.983  0.00  0.00    +0.000 C 
ATOM     15  C   UNL     1      10.075  14.652  17.814  0.00  0.00    +0.000 C 
ATOM     16  O   UNL     1       8.949  14.988  18.147  0.00  0.00    +0.000 OA
ENDBRANCH   9  11
ENDBRANCH   3   5
BRANCH   1  18
ATOM     17  N   UNL     1       5.887   7.274  17.277  0.00  0.00    +0.000 N 
ATOM     18  C   UNL     1       7.234   7.090  17.073  0.00  0.00    +0.000 C 
ATOM     19  O   UNL     1       7.766   6.400  16.217  0.00  0.00    +0.000 OA
ATOM     20  H   UNL     1       5.631   7.907  18.030  0.00  0.00    +0.000 HD
BRANCH  17  21
ATOM     21  C   UNL     1       4.846   6.634  16.516  0.00  0.00    +0.000 C 
BRANCH  21  26
ATOM     22  C   UNL     1       2.198   2.590  19.778  0.00  0.00    +0.000 C 
ATOM     23  C   UNL     1       2.855   3.622  18.909  0.00  0.00    +0.000 A 
ATOM     24  C   UNL     1       3.828   3.260  17.973  0.00  0.00    +0.000 A 
ATOM     25  C   UNL     1       4.456   4.233  17.188  0.00  0.00    +0.000 A 
ATOM     26  C   UNL     1       4.123   5.588  17.324  0.00  0.00    +0.000 A 
ATOM     27  C   UNL     1       3.138   5.946  18.255  0.00  0.00    +0.000 A 
ATOM     28  C   UNL     1       2.512   4.973  19.042  0.00  0.00    +0.000 A 
ENDBRANCH  21  26
ENDBRANCH  17  21
ENDBRANCH   1  18
TORSDOF 5
ENDMDL
MODEL 8
REMARK VINA RESULT:      -8.0      2.928      9.493
REMARK  Name = 
REMARK  6 active torsions:
REMARK  status: ('A' for Active; 'I' for Inactive)
REMARK    1  A    between atoms: C_1  and  C_2
REMARK    2  A    between atoms: C_5  and  C_6
REMARK    3  A    between atoms: C_6  and  N_7
REMARK    4  A    between atoms: C_8  and  C_10
REMARK    5  A    between atoms: N_12  and  C_13
REMARK    6  A    between atoms: C_17  and  N_18
REMARK                            x       y       z     vdW  Elec       q    Type
REMARK                         _______ _______ _______ _____ _____    ______ ____
ROOT
ATOM      1  C   UNL     1      -0.123  10.168  18.304  0.00  0.00    +0.000 C 
ATOM      2  O   UNL     1      -0.275  11.041  19.154  0.00  0.00    +0.000 OA
ATOM      3  N   UNL     1      -0.999   9.768  17.310  0.00  0.00    +0.000 N 
ATOM      4  H   UNL     1      -0.719   8.945  16.784  0.00  0.00    +0.000 HD
ENDROOT
BRANCH   3   5
ATOM      5  C   UNL     1      -2.267  10.344  17.054  0.00  0.00    +0.000 A 
ATOM      6  C   UNL     1      -2.669  10.688  15.764  0.00  0.00    +0.000 A 
ATOM      7  C   UNL     1      -3.905  11.279  15.540  0.00  0.00    +0.000 A 
ATOM      8  C   UNL     1      -4.748  11.555  16.612  0.00  0.00    +0.000 A 
ATOM      9  C   UNL     1      -4.381  11.238  17.925  0.00  0.00    +0.000 A 
ATOM     10  C   UNL     1      -3.142  10.590  18.129  0.00  0.00    +0.000 A 
BRANCH   9  11
ATOM     11  N   UNL     1      -5.235  11.585  19.011  0.00  0.00    +0.000 N 
ATOM     12  C   UNL     1      -5.087  12.794  19.780  0.00  0.00    +0.000 C 
ATOM     13  C   UNL     1      -5.959  12.563  21.001  0.00  0.00    +0.000 C 
ATOM     14  C   UNL     1      -7.083  11.695  20.472  0.00  0.00    +0.000 C 
ATOM     15  C   UNL     1      -6.422  10.913  19.364  0.00  0.00    +0.000 C 
ATOM     16  O   UNL     1      -6.933   9.922  18.866  0.00  0.00    +0.000 OA
ENDBRANCH   9  11
ENDBRANCH   3   5
BRANCH   1  18
ATOM     17  N   UNL     1       1.264   8.551  19.462  0.00  0.00    +0.000 N 
ATOM     18  C   UNL     1       1.192   9.365  18.356  0.00  0.00    +0.000 C 
ATOM     19  O   UNL     1       2.026   9.486  17.471  0.00  0.00    +0.000 OA
ATOM     20  H   UNL     1       0.459   8.567  20.083  0.00  0.00    +0.000 HD
BRANCH  17  21
ATOM     21  C   UNL     1       2.384   7.708  19.790  0.00  0.00    +0.000 C 
BRANCH  21  26
ATOM     22  C   UNL     1       1.038   2.129  18.755  0.00  0.00    +0.000 C 
ATOM     23  C   UNL     1       1.420   3.553  19.035  0.00  0.00    +0.000 A 
ATOM     24  C   UNL     1       1.297   4.091  20.320  0.00  0.00    +0.000 A 
ATOM     25  C   UNL     1       1.627   5.427  20.564  0.00  0.00    +0.000 A 
ATOM     26  C   UNL     1       2.087   6.254  19.529  0.00  0.00    +0.000 A 
ATOM     27  C   UNL     1       2.220   5.708  18.245  0.00  0.00    +0.000 A 
ATOM     28  C   UNL     1       1.888   4.371  17.999  0.00  0.00    +0.000 A 
ENDBRANCH  21  26
ENDBRANCH  17  21
ENDBRANCH   1  18
TORSDOF 5
ENDMDL
MODEL 9
REMARK VINA RESULT:      -7.9      2.932      9.376
REMARK  Name = 
REMARK  6 active torsions:
REMARK  status: ('A' for Active; 'I' for Inactive)
REMARK    1  A    between atoms: C_1  and  C_2
REMARK    2  A    between atoms: C_5  and  C_6
REMARK    3  A    between atoms: C_6  and  N_7
REMARK    4  A    between atoms: C_8  and  C_10
REMARK    5  A    between atoms: N_12  and  C_13
REMARK    6  A    between atoms: C_17  and  N_18
REMARK                            x       y       z     vdW  Elec       q    Type
REMARK                         _______ _______ _______ _____ _____    ______ ____
ROOT
ATOM      1  C   UNL     1      -0.032  10.188  18.181  0.00  0.00    +0.000 C 
ATOM      2  O   UNL     1      -0.111  11.199  18.874  0.00  0.00    +0.000 OA
ATOM      3  N   UNL     1      -0.969   9.661  17.311  0.00  0.00    +0.000 N 
ATOM      4  H   UNL     1      -0.744   8.749  16.922  0.00  0.00    +0.000 HD
ENDROOT
BRANCH   3   5
ATOM      5  C   UNL     1      -2.230  10.235  17.017  0.00  0.00    +0.000 A 
ATOM      6  C   UNL     1      -2.577  10.618  15.722  0.00  0.00    +0.000 A 
ATOM      7  C   UNL     1      -3.807  11.207  15.461  0.00  0.00    +0.000 A 
ATOM      8  C   UNL     1      -4.699  11.442  16.503  0.00  0.00    +0.000 A 
ATOM      9  C   UNL     1      -4.388  11.085  17.821  0.00  0.00    +0.000 A 
ATOM     10  C   UNL     1      -3.154  10.440  18.059  0.00  0.00    +0.000 A 
BRANCH   9  11
ATOM     11  N   UNL     1      -5.292  11.391  18.877  0.00  0.00    +0.000 N 
ATOM     12  C   UNL     1      -6.516  10.666  19.110  0.00  0.00    +0.000 C 
ATOM     13  C   UNL     1      -7.287  11.545  20.076  0.00  0.00    +0.000 C 
ATOM     14  C   UNL     1      -6.199  12.208  20.896  0.00  0.00    +0.000 C 
ATOM     15  C   UNL     1      -5.045  12.298  19.928  0.00  0.00    +0.000 C 
ATOM     16  O   UNL     1      -4.070  13.004  20.134  0.00  0.00    +0.000 OA
ENDBRANCH   9  11
ENDBRANCH   3   5
BRANCH   1  18
ATOM     17  N   UNL     1       1.264   8.574  19.444  0.00  0.00    +0.000 N 
ATOM     18  C   UNL     1       1.258   9.353  18.311  0.00  0.00    +0.000 C 
ATOM     19  O   UNL     1       2.129   9.423  17.457  0.00  0.00    +0.000 OA
ATOM     20  H   UNL     1       0.436   8.632  20.031  0.00  0.00    +0.000 HD
BRANCH  17  21
ATOM     21  C   UNL     1       2.347   7.713  19.844  0.00  0.00    +0.000 C 
BRANCH  21  26
ATOM     22  C   UNL     1       1.369   2.062  18.791  0.00  0.00    +0.000 C 
ATOM     23  C   UNL     1       1.585   3.524  19.047  0.00  0.00    +0.000 A 
ATOM     24  C   UNL     1       2.006   4.379  18.024  0.00  0.00    +0.000 A 
ATOM     25  C   UNL     1       2.233   5.735  18.280  0.00  0.00    +0.000 A 
ATOM     26  C   UNL     1       2.043   6.264  19.565  0.00  0.00    +0.000 A 
ATOM     27  C   UNL     1       1.609   5.407  20.585  0.00  0.00    +0.000 A 
ATOM     28  C   UNL     1       1.384   4.049  20.330  0.00  0.00    +0.000 A 
ENDBRANCH  21  26
ENDBRANCH  17  21
ENDBRANCH   1  18
TORSDOF 5
ENDMDL
