MODEL 1
REMARK VINA RESULT:      -7.3      0.000      0.000
REMARK  Name = 
REMARK  9 active torsions:
REMARK  status: ('A' for Active; 'I' for Inactive)
REMARK    1  A    between atoms: C_1  and  N_2
REMARK    2  A    between atoms: C_6  and  C_8
REMARK    3  A    between atoms: C_10  and  C_11
REMARK    4  A    between atoms: C_18  and  O_19
REMARK    5  A    between atoms: O_19  and  C_20
REMARK    6  A    between atoms: C_20  and  C_21
REMARK    7  A    between atoms: C_21  and  C_22
REMARK    8  A    between atoms: C_22  and  C_23
REMARK    9  A    between atoms: C_23  and  O_24
REMARK                            x       y       z     vdW  Elec       q    Type
REMARK                         _______ _______ _______ _____ _____    ______ ____
ROOT
ATOM      1  C   UNL     1       2.309   7.712  18.188  0.00  0.00    +0.000 C 
ATOM      2  C   UNL     1       3.436   7.630  17.460  0.00  0.00    +0.000 C 
ATOM      3  C   UNL     1       4.132   6.330  17.187  0.00  0.00    +0.000 C 
ATOM      4  C   UNL     1       3.224   5.141  17.526  0.00  0.00    +0.000 C 
ATOM      5  C   UNL     1       2.421   5.388  18.798  0.00  0.00    +0.000 C 
ATOM      6  O   UNL     1       1.706   6.616  18.744  0.00  0.00    +0.000 OA
ENDROOT
BRANCH   1  12
ATOM      7  C   UNL     1      -0.995  10.366  23.127  0.00  0.00    +0.000 C 
ATOM      8  N   UNL     1       0.131  10.344  22.194  0.00  0.00    +0.000 NA
ATOM      9  C   UNL     1      -0.244  10.956  20.899  0.00  0.00    +0.000 C 
ATOM     10  C   UNL     1       0.897  10.887  19.861  0.00  0.00    +0.000 C 
ATOM     11  N   UNL     1       1.408   9.520  19.698  0.00  0.00    +0.000 N 
ATOM     12  C   UNL     1       1.723   9.095  18.413  0.00  0.00    +0.000 C 
ATOM     13  O   UNL     1       1.516   9.818  17.434  0.00  0.00    +0.000 OA
ATOM     14  C   UNL     1       1.725   8.869  20.972  0.00  0.00    +0.000 C 
ATOM     15  C   UNL     1       0.557   8.953  21.964  0.00  0.00    +0.000 C 
ENDBRANCH   1  12
BRANCH   3  16
ATOM     16  C   UNL     1       5.493   6.231  17.858  0.00  0.00    +0.000 A 
ATOM     17  C   UNL     1       5.770   5.284  18.858  0.00  0.00    +0.000 A 
ATOM     18  C   UNL     1       7.031   5.206  19.445  0.00  0.00    +0.000 A 
ATOM     19  C   UNL     1       8.039   6.072  19.039  0.00  0.00    +0.000 A 
ATOM     20  C   UNL     1       7.790   7.016  18.044  0.00  0.00    +0.000 A 
ATOM     21  C   UNL     1       6.526   7.095  17.457  0.00  0.00    +0.000 A 
ENDBRANCH   3  16
BRANCH   5  22
ATOM     22  O   UNL     1       3.233   5.290  19.970  0.00  0.00    +0.000 OA
BRANCH  22  23
ATOM     23  C   UNL     1       2.539   4.670  21.052  0.00  0.00    +0.000 C 
BRANCH  23  24
ATOM     24  C   UNL     1       2.583   3.159  20.864  0.00  0.00    +0.000 C 
BRANCH  24  25
ATOM     25  C   UNL     1       1.194   2.592  20.584  0.00  0.00    +0.000 C 
BRANCH  25  26
ATOM     26  C   UNL     1       1.023   2.211  19.120  0.00  0.00    +0.000 C 
BRANCH  26  27
ATOM     27  O   UNL     1       2.211   1.591  18.645  0.00  0.00    +0.000 OA
ATOM     28  H   UNL     1       2.131   0.637  18.815  0.00  0.00    +0.000 HD
ENDBRANCH  26  27
ENDBRANCH  25  26
ENDBRANCH  24  25
ENDBRANCH  23  24
ENDBRANCH  22  23
ENDBRANCH   5  22
TORSDOF 8
ENDMDL
MODEL 2
REMARK VINA RESULT:      -7.3      1.977      4.410
REMARK  Name = 
REMARK  9 active torsions:
REMARK  status: ('A' for Active; 'I' for Inactive)
REMARK    1  A    between atoms: C_1  and  N_2
REMARK    2  A    between atoms: C_6  and  C_8
REMARK    3  A    between atoms: C_10  and  C_11
REMARK    4  A    between atoms: C_18  and  O_19
REMARK    5  A    between atoms: O_19  and  C_20
REMARK    6  A    between atoms: C_20  and  C_21
REMARK    7  A    between atoms: C_21  and  C_22
REMARK    8  A    between atoms: C_22  and  C_23
REMARK    9  A    between atoms: C_23  and  O_24
REMARK                            x       y       z     vdW  Elec       q    Type
REMARK                         _______ _______ _______ _____ _____    ______ ____
ROOT
ATOM      1  C   UNL     1       2.646   7.530  18.771  0.00  0.00    +0.000 C 
ATOM      2  C   UNL     1       2.406   6.577  19.689  0.00  0.00    +0.000 C 
ATOM      3  C   UNL     1       3.300   5.388  19.877  0.00  0.00    +0.000 C 
ATOM      4  C   UNL     1       4.644   5.596  19.167  0.00  0.00    +0.000 C 
ATOM      5  C   UNL     1       4.470   6.283  17.818  0.00  0.00    +0.000 C 
ATOM      6  O   UNL     1       3.725   7.490  17.929  0.00  0.00    +0.000 OA
ENDROOT
BRANCH   1  12
ATOM      7  C   UNL     1      -1.070  10.574  23.162  0.00  0.00    +0.000 C 
ATOM      8  N   UNL     1      -0.055  10.576  22.108  0.00  0.00    +0.000 NA
ATOM      9  C   UNL     1      -0.687  10.577  20.768  0.00  0.00    +0.000 C 
ATOM     10  C   UNL     1       0.350  10.508  19.627  0.00  0.00    +0.000 C 
ATOM     11  N   UNL     1       1.279   9.383  19.798  0.00  0.00    +0.000 N 
ATOM     12  C   UNL     1       1.645   8.666  18.666  0.00  0.00    +0.000 C 
ATOM     13  O   UNL     1       1.153   8.922  17.563  0.00  0.00    +0.000 OA
ATOM     14  C   UNL     1       1.867   9.323  21.139  0.00  0.00    +0.000 C 
ATOM     15  C   UNL     1       0.798   9.384  22.237  0.00  0.00    +0.000 C 
ENDBRANCH   1  12
BRANCH   3  16
ATOM     16  C   UNL     1       2.635   4.076  19.490  0.00  0.00    +0.000 A 
ATOM     17  C   UNL     1       1.269   3.994  19.167  0.00  0.00    +0.000 A 
ATOM     18  C   UNL     1       0.690   2.782  18.799  0.00  0.00    +0.000 A 
ATOM     19  C   UNL     1       1.467   1.630  18.745  0.00  0.00    +0.000 A 
ATOM     20  C   UNL     1       2.824   1.689  19.055  0.00  0.00    +0.000 A 
ATOM     21  C   UNL     1       3.405   2.903  19.424  0.00  0.00    +0.000 A 
ENDBRANCH   3  16
BRANCH   5  22
ATOM     22  O   UNL     1       3.921   5.402  16.836  0.00  0.00    +0.000 OA
BRANCH  22  23
ATOM     23  C   UNL     1       4.801   4.318  16.537  0.00  0.00    +0.000 C 
BRANCH  23  24
ATOM     24  C   UNL     1       5.226   4.417  15.078  0.00  0.00    +0.000 C 
BRANCH  24  25
ATOM     25  C   UNL     1       6.744   4.491  14.944  0.00  0.00    +0.000 C 
BRANCH  25  26
ATOM     26  C   UNL     1       7.409   4.885  16.255  0.00  0.00    +0.000 C 
BRANCH  26  27
ATOM     27  O   UNL     1       7.622   6.289  16.281  0.00  0.00    +0.000 OA
ATOM     28  H   UNL     1       6.785   6.708  16.548  0.00  0.00    +0.000 HD
ENDBRANCH  26  27
ENDBRANCH  25  26
ENDBRANCH  24  25
ENDBRANCH  23  24
ENDBRANCH  22  23
ENDBRANCH   5  22
TORSDOF 8
ENDMDL
MODEL 3
REMARK VINA RESULT:      -7.3      2.431      4.514
REMARK  Name = 
REMARK  9 active torsions:
REMARK  status: ('A' for Active; 'I' for Inactive)
REMARK    1  A    between atoms: C_1  and  N_2
REMARK    2  A    between atoms: C_6  and  C_8
REMARK    3  A    between atoms: C_10  and  C_11
REMARK    4  A    between atoms: C_18  and  O_19
REMARK    5  A    between atoms: O_19  and  C_20
REMARK    6  A    between atoms: C_20  and  C_21
REMARK    7  A    between atoms: C_21  and  C_22
REMARK    8  A    between atoms: C_22  and  C_23
REMARK    9  A    between atoms: C_23  and  O_24
REMARK                            x       y       z     vdW  Elec       q    Type
REMARK                         _______ _______ _______ _____ _____    ______ ____
ROOT
ATOM      1  C   UNL     1       2.683   7.525  18.799  0.00  0.00    +0.000 C 
ATOM      2  C   UNL     1       2.431   6.564  19.706  0.00  0.00    +0.000 C 
ATOM      3  C   UNL     1       3.323   5.374  19.895  0.00  0.00    +0.000 C 
ATOM      4  C   UNL     1       4.676   5.588  19.204  0.00  0.00    +0.000 C 
ATOM      5  C   UNL     1       4.519   6.286  17.859  0.00  0.00    +0.000 C 
ATOM      6  O   UNL     1       3.772   7.492  17.971  0.00  0.00    +0.000 OA
ENDROOT
BRANCH   1  12
ATOM      7  C   UNL     1      -1.075  10.545  23.171  0.00  0.00    +0.000 C 
ATOM      8  N   UNL     1      -0.050  10.553  22.126  0.00  0.00    +0.000 NA
ATOM      9  C   UNL     1      -0.670  10.561  20.781  0.00  0.00    +0.000 C 
ATOM     10  C   UNL     1       0.378  10.498  19.649  0.00  0.00    +0.000 C 
ATOM     11  N   UNL     1       1.306   9.373  19.823  0.00  0.00    +0.000 N 
ATOM     12  C   UNL     1       1.682   8.661  18.690  0.00  0.00    +0.000 C 
ATOM     13  O   UNL     1       1.201   8.923  17.584  0.00  0.00    +0.000 OA
ATOM     14  C   UNL     1       1.882   9.306  21.169  0.00  0.00    +0.000 C 
ATOM     15  C   UNL     1       0.801   9.360  22.258  0.00  0.00    +0.000 C 
ENDBRANCH   1  12
BRANCH   3  16
ATOM     16  C   UNL     1       2.664   4.065  19.488  0.00  0.00    +0.000 A 
ATOM     17  C   UNL     1       1.269   3.932  19.373  0.00  0.00    +0.000 A 
ATOM     18  C   UNL     1       0.693   2.725  18.983  0.00  0.00    +0.000 A 
ATOM     19  C   UNL     1       1.502   1.631  18.697  0.00  0.00    +0.000 A 
ATOM     20  C   UNL     1       2.887   1.742  18.798  0.00  0.00    +0.000 A 
ATOM     21  C   UNL     1       3.465   2.951  19.190  0.00  0.00    +0.000 A 
ENDBRANCH   3  16
BRANCH   5  22
ATOM     22  O   UNL     1       3.983   5.414  16.863  0.00  0.00    +0.000 OA
BRANCH  22  23
ATOM     23  C   UNL     1       4.989   4.585  16.279  0.00  0.00    +0.000 C 
BRANCH  23  24
ATOM     24  C   UNL     1       5.728   5.384  15.213  0.00  0.00    +0.000 C 
BRANCH  24  25
ATOM     25  C   UNL     1       6.669   4.496  14.405  0.00  0.00    +0.000 C 
BRANCH  25  26
ATOM     26  C   UNL     1       5.932   3.741  13.308  0.00  0.00    +0.000 C 
BRANCH  26  27
ATOM     27  O   UNL     1       6.738   3.688  12.139  0.00  0.00    +0.000 OA
ATOM     28  H   UNL     1       7.554   4.186  12.322  0.00  0.00    +0.000 HD
ENDBRANCH  26  27
ENDBRANCH  25  26
ENDBRANCH  24  25
ENDBRANCH  23  24
ENDBRANCH  22  23
ENDBRANCH   5  22
TORSDOF 8
ENDMDL
MODEL 4
REMARK VINA RESULT:      -7.2      1.840      4.366
REMARK  Name = 
REMARK  9 active torsions:
REMARK  status: ('A' for Active; 'I' for Inactive)
REMARK    1  A    between atoms: C_1  and  N_2
REMARK    2  A    between atoms: C_6  and  C_8
REMARK    3  A    between atoms: C_10  and  C_11
REMARK    4  A    between atoms: C_18  and  O_19
REMARK    5  A    between atoms: O_19  and  C_20
REMARK    6  A    between atoms: C_20  and  C_21
REMARK    7  A    between atoms: C_21  and  C_22
REMARK    8  A    between atoms: C_22  and  C_23
REMARK    9  A    between atoms: C_23  and  O_24
REMARK                            x       y       z     vdW  Elec       q    Type
REMARK                         _______ _______ _______ _____ _____    ______ ____
ROOT
ATOM      1  C   UNL     1       2.648   7.555  18.805  0.00  0.00    +0.000 C 
ATOM      2  C   UNL     1       2.403   6.610  19.730  0.00  0.00    +0.000 C 
ATOM      3  C   UNL     1       3.278   5.406  19.913  0.00  0.00    +0.000 C 
ATOM      4  C   UNL     1       4.617   5.589  19.186  0.00  0.00    +0.000 C 
ATOM      5  C   UNL     1       4.439   6.273  17.836  0.00  0.00    +0.000 C 
ATOM      6  O   UNL     1       3.716   7.493  17.951  0.00  0.00    +0.000 OA
ENDROOT
BRANCH   1  12
ATOM      7  C   UNL     1      -1.094  10.565  23.196  0.00  0.00    +0.000 C 
ATOM      8  N   UNL     1      -0.063  10.574  22.159  0.00  0.00    +0.000 NA
ATOM      9  C   UNL     1      -0.673  10.611  20.809  0.00  0.00    +0.000 C 
ATOM     10  C   UNL     1       0.382  10.549  19.684  0.00  0.00    +0.000 C 
ATOM     11  N   UNL     1       1.291   9.407  19.847  0.00  0.00    +0.000 N 
ATOM     12  C   UNL     1       1.665   8.707  18.706  0.00  0.00    +0.000 C 
ATOM     13  O   UNL     1       1.195   8.992  17.601  0.00  0.00    +0.000 OA
ATOM     14  C   UNL     1       1.857   9.312  21.196  0.00  0.00    +0.000 C 
ATOM     15  C   UNL     1       0.770   9.366  22.278  0.00  0.00    +0.000 C 
ENDBRANCH   1  12
BRANCH   3  16
ATOM     16  C   UNL     1       2.586   4.105  19.539  0.00  0.00    +0.000 A 
ATOM     17  C   UNL     1       3.300   2.918  19.297  0.00  0.00    +0.000 A 
ATOM     18  C   UNL     1       2.638   1.736  18.972  0.00  0.00    +0.000 A 
ATOM     19  C   UNL     1       1.251   1.719  18.886  0.00  0.00    +0.000 A 
ATOM     20  C   UNL     1       0.522   2.882  19.127  0.00  0.00    +0.000 A 
ATOM     21  C   UNL     1       1.185   4.067  19.453  0.00  0.00    +0.000 A 
ENDBRANCH   3  16
BRANCH   5  22
ATOM     22  O   UNL     1       3.864   5.398  16.865  0.00  0.00    +0.000 OA
BRANCH  22  23
ATOM     23  C   UNL     1       4.744   4.328  16.519  0.00  0.00    +0.000 C 
BRANCH  23  24
ATOM     24  C   UNL     1       5.489   4.696  15.242  0.00  0.00    +0.000 C 
BRANCH  24  25
ATOM     25  C   UNL     1       6.947   5.040  15.528  0.00  0.00    +0.000 C 
BRANCH  25  26
ATOM     26  C   UNL     1       7.406   4.491  16.873  0.00  0.00    +0.000 C 
BRANCH  26  27
ATOM     27  O   UNL     1       7.849   5.559  17.699  0.00  0.00    +0.000 OA
ATOM     28  H   UNL     1       8.692   5.880  17.335  0.00  0.00    +0.000 HD
ENDBRANCH  26  27
ENDBRANCH  25  26
ENDBRANCH  24  25
ENDBRANCH  23  24
ENDBRANCH  22  23
ENDBRANCH   5  22
TORSDOF 8
ENDMDL
MODEL 5
REMARK VINA RESULT:      -7.2      2.331      4.542
REMARK  Name = 
REMARK  9 active torsions:
REMARK  status: ('A' for Active; 'I' for Inactive)
REMARK    1  A    between atoms: C_1  and  N_2
REMARK    2  A    between atoms: C_6  and  C_8
REMARK    3  A    between atoms: C_10  and  C_11
REMARK    4  A    between atoms: C_18  and  O_19
REMARK    5  A    between atoms: O_19  and  C_20
REMARK    6  A    between atoms: C_20  and  C_21
REMARK    7  A    between atoms: C_21  and  C_22
REMARK    8  A    between atoms: C_22  and  C_23
REMARK    9  A    between atoms: C_23  and  O_24
REMARK                            x       y       z     vdW  Elec       q    Type
REMARK                         _______ _______ _______ _____ _____    ______ ____
ROOT
ATOM      1  C   UNL     1       2.701   7.543  18.784  0.00  0.00    +0.000 C 
ATOM      2  C   UNL     1       2.461   6.592  19.703  0.00  0.00    +0.000 C 
ATOM      3  C   UNL     1       3.349   5.397  19.884  0.00  0.00    +0.000 C 
ATOM      4  C   UNL     1       4.689   5.596  19.163  0.00  0.00    +0.000 C 
ATOM      5  C   UNL     1       4.509   6.285  17.816  0.00  0.00    +0.000 C 
ATOM      6  O   UNL     1       3.772   7.496  17.933  0.00  0.00    +0.000 OA
ENDROOT
BRANCH   1  12
ATOM      7  C   UNL     1      -1.069  10.513  23.179  0.00  0.00    +0.000 C 
ATOM      8  N   UNL     1      -0.039  10.533  22.141  0.00  0.00    +0.000 NA
ATOM      9  C   UNL     1      -0.650  10.564  20.792  0.00  0.00    +0.000 C 
ATOM     10  C   UNL     1       0.404  10.513  19.665  0.00  0.00    +0.000 C 
ATOM     11  N   UNL     1       1.326   9.381  19.827  0.00  0.00    +0.000 N 
ATOM     12  C   UNL     1       1.706   8.685  18.686  0.00  0.00    +0.000 C 
ATOM     13  O   UNL     1       1.232   8.966  17.582  0.00  0.00    +0.000 OA
ATOM     14  C   UNL     1       1.893   9.291  21.176  0.00  0.00    +0.000 C 
ATOM     15  C   UNL     1       0.807   9.334  22.259  0.00  0.00    +0.000 C 
ENDBRANCH   1  12
BRANCH   3  16
ATOM     16  C   UNL     1       2.672   4.089  19.501  0.00  0.00    +0.000 A 
ATOM     17  C   UNL     1       3.382   2.881  19.392  0.00  0.00    +0.000 A 
ATOM     18  C   UNL     1       2.733   1.695  19.055  0.00  0.00    +0.000 A 
ATOM     19  C   UNL     1       1.362   1.696  18.824  0.00  0.00    +0.000 A 
ATOM     20  C   UNL     1       0.637   2.882  18.932  0.00  0.00    +0.000 A 
ATOM     21  C   UNL     1       1.287   4.070  19.269  0.00  0.00    +0.000 A 
ENDBRANCH   3  16
BRANCH   5  22
ATOM     22  O   UNL     1       3.947   5.408  16.838  0.00  0.00    +0.000 OA
BRANCH  22  23
ATOM     23  C   UNL     1       4.844   4.355  16.483  0.00  0.00    +0.000 C 
BRANCH  23  24
ATOM     24  C   UNL     1       5.929   4.918  15.575  0.00  0.00    +0.000 C 
BRANCH  24  25
ATOM     25  C   UNL     1       6.098   4.070  14.318  0.00  0.00    +0.000 C 
BRANCH  25  26
ATOM     26  C   UNL     1       7.112   4.677  13.358  0.00  0.00    +0.000 C 
BRANCH  26  27
ATOM     27  O   UNL     1       7.954   5.581  14.059  0.00  0.00    +0.000 OA
ATOM     28  H   UNL     1       8.344   6.186  13.405  0.00  0.00    +0.000 HD
ENDBRANCH  26  27
ENDBRANCH  25  26
ENDBRANCH  24  25
ENDBRANCH  23  24
ENDBRANCH  22  23
ENDBRANCH   5  22
TORSDOF 8
ENDMDL
MODEL 6
REMARK VINA RESULT:      -7.1      2.975      7.602
REMARK  Name = 
REMARK  9 active torsions:
REMARK  status: ('A' for Active; 'I' for Inactive)
REMARK    1  A    between atoms: C_1  and  N_2
REMARK    2  A    between atoms: C_6  and  C_8
REMARK    3  A    between atoms: C_10  and  C_11
REMARK    4  A    between atoms: C_18  and  O_19
REMARK    5  A    between atoms: O_19  and  C_20
REMARK    6  A    between atoms: C_20  and  C_21
REMARK    7  A    between atoms: C_21  and  C_22
REMARK    8  A    between atoms: C_22  and  C_23
REMARK    9  A    between atoms: C_23  and  O_24
REMARK                            x       y       z     vdW  Elec       q    Type
REMARK                         _______ _______ _______ _____ _____    ______ ____
ROOT
ATOM      1  C   UNL     1       1.911   8.464  18.909  0.00  0.00    +0.000 C 
ATOM      2  C   UNL     1       1.384   9.375  18.073  0.00  0.00    +0.000 C 
ATOM      3  C   UNL     1       0.696  10.617  18.557  0.00  0.00    +0.000 C 
ATOM      4  C   UNL     1       0.992  10.864  20.042  0.00  0.00    +0.000 C 
ATOM      5  C   UNL     1       0.993   9.566  20.841  0.00  0.00    +0.000 C 
ATOM      6  O   UNL     1       1.860   8.593  20.271  0.00  0.00    +0.000 OA
ENDROOT
BRANCH   1  12
ATOM      7  C   UNL     1       3.170   2.499  21.189  0.00  0.00    +0.000 C 
ATOM      8  N   UNL     1       2.559   3.406  20.216  0.00  0.00    +0.000 NA
ATOM      9  C   UNL     1       3.540   3.810  19.183  0.00  0.00    +0.000 C 
ATOM     10  C   UNL     1       2.953   4.823  18.177  0.00  0.00    +0.000 C 
ATOM     11  N   UNL     1       2.354   5.982  18.852  0.00  0.00    +0.000 N 
ATOM     12  C   UNL     1       2.553   7.236  18.289  0.00  0.00    +0.000 C 
ATOM     13  O   UNL     1       3.266   7.380  17.291  0.00  0.00    +0.000 OA
ATOM     14  C   UNL     1       1.428   5.606  19.925  0.00  0.00    +0.000 C 
ATOM     15  C   UNL     1       2.061   4.608  20.904  0.00  0.00    +0.000 C 
ENDBRANCH   1  12
BRANCH   3  16
ATOM     16  C   UNL     1      -0.794  10.630  18.251  0.00  0.00    +0.000 A 
ATOM     17  C   UNL     1      -1.683  11.513  18.888  0.00  0.00    +0.000 A 
ATOM     18  C   UNL     1      -3.040  11.513  18.576  0.00  0.00    +0.000 A 
ATOM     19  C   UNL     1      -3.533  10.634  17.619  0.00  0.00    +0.000 A 
ATOM     20  C   UNL     1      -2.668   9.754  16.969  0.00  0.00    +0.000 A 
ATOM     21  C   UNL     1      -1.308   9.753  17.282  0.00  0.00    +0.000 A 
ENDBRANCH   3  16
BRANCH   5  22
ATOM     22  O   UNL     1      -0.328   9.059  21.038  0.00  0.00    +0.000 OA
BRANCH  22  23
ATOM     23  C   UNL     1      -0.580   8.737  22.406  0.00  0.00    +0.000 C 
BRANCH  23  24
ATOM     24  C   UNL     1      -0.317   9.971  23.258  0.00  0.00    +0.000 C 
BRANCH  24  25
ATOM     25  C   UNL     1      -1.461  10.975  23.152  0.00  0.00    +0.000 C 
BRANCH  25  26
ATOM     26  C   UNL     1      -0.989  12.317  22.611  0.00  0.00    +0.000 C 
BRANCH  26  27
ATOM     27  O   UNL     1      -1.118  13.311  23.618  0.00  0.00    +0.000 OA
ATOM     28  H   UNL     1      -2.054  13.573  23.653  0.00  0.00    +0.000 HD
ENDBRANCH  26  27
ENDBRANCH  25  26
ENDBRANCH  24  25
ENDBRANCH  23  24
ENDBRANCH  22  23
ENDBRANCH   5  22
TORSDOF 8
ENDMDL
MODEL 7
REMARK VINA RESULT:      -7.0      0.809      1.252
REMARK  Name = 
REMARK  9 active torsions:
REMARK  status: ('A' for Active; 'I' for Inactive)
REMARK    1  A    between atoms: C_1  and  N_2
REMARK    2  A    between atoms: C_6  and  C_8
REMARK    3  A    between atoms: C_10  and  C_11
REMARK    4  A    between atoms: C_18  and  O_19
REMARK    5  A    between atoms: O_19  and  C_20
REMARK    6  A    between atoms: C_20  and  C_21
REMARK    7  A    between atoms: C_21  and  C_22
REMARK    8  A    between atoms: C_22  and  C_23
REMARK    9  A    between atoms: C_23  and  O_24
REMARK                            x       y       z     vdW  Elec       q    Type
REMARK                         _______ _______ _______ _____ _____    ______ ____
ROOT
ATOM      1  C   UNL     1       2.320   7.704  18.138  0.00  0.00    +0.000 C 
ATOM      2  C   UNL     1       3.455   7.631  17.422  0.00  0.00    +0.000 C 
ATOM      3  C   UNL     1       4.148   6.333  17.130  0.00  0.00    +0.000 C 
ATOM      4  C   UNL     1       3.230   5.142  17.433  0.00  0.00    +0.000 C 
ATOM      5  C   UNL     1       2.413   5.367  18.700  0.00  0.00    +0.000 C 
ATOM      6  O   UNL     1       1.705   6.600  18.664  0.00  0.00    +0.000 OA
ENDROOT
BRANCH   1  12
ATOM      7  C   UNL     1      -0.942  10.301  23.135  0.00  0.00    +0.000 C 
ATOM      8  N   UNL     1       0.178  10.288  22.194  0.00  0.00    +0.000 NA
ATOM      9  C   UNL     1      -0.206  10.918  20.909  0.00  0.00    +0.000 C 
ATOM     10  C   UNL     1       0.927  10.860  19.862  0.00  0.00    +0.000 C 
ATOM     11  N   UNL     1       1.434   9.494  19.677  0.00  0.00    +0.000 N 
ATOM     12  C   UNL     1       1.738   9.084  18.385  0.00  0.00    +0.000 C 
ATOM     13  O   UNL     1       1.526   9.820  17.417  0.00  0.00    +0.000 OA
ATOM     14  C   UNL     1       1.759   8.826  20.941  0.00  0.00    +0.000 C 
ATOM     15  C   UNL     1       0.599   8.900  21.943  0.00  0.00    +0.000 C 
ENDBRANCH   1  12
BRANCH   3  16
ATOM     16  C   UNL     1       5.501   6.213  17.816  0.00  0.00    +0.000 A 
ATOM     17  C   UNL     1       6.577   7.061  17.505  0.00  0.00    +0.000 A 
ATOM     18  C   UNL     1       7.800   6.939  18.160  0.00  0.00    +0.000 A 
ATOM     19  C   UNL     1       7.967   5.969  19.142  0.00  0.00    +0.000 A 
ATOM     20  C   UNL     1       6.911   5.121  19.472  0.00  0.00    +0.000 A 
ATOM     21  C   UNL     1       5.686   5.243  18.814  0.00  0.00    +0.000 A 
ENDBRANCH   3  16
BRANCH   5  22
ATOM     22  O   UNL     1       3.209   5.240  19.879  0.00  0.00    +0.000 OA
BRANCH  22  23
ATOM     23  C   UNL     1       2.509   4.574  20.930  0.00  0.00    +0.000 C 
BRANCH  23  24
ATOM     24  C   UNL     1       2.963   3.121  20.983  0.00  0.00    +0.000 C 
BRANCH  24  25
ATOM     25  C   UNL     1       2.533   2.359  19.733  0.00  0.00    +0.000 C 
BRANCH  25  26
ATOM     26  C   UNL     1       3.722   1.740  19.011  0.00  0.00    +0.000 C 
BRANCH  26  27
ATOM     27  O   UNL     1       4.915   2.012  19.732  0.00  0.00    +0.000 OA
ATOM     28  H   UNL     1       4.751   2.796  20.285  0.00  0.00    +0.000 HD
ENDBRANCH  26  27
ENDBRANCH  25  26
ENDBRANCH  24  25
ENDBRANCH  23  24
ENDBRANCH  22  23
ENDBRANCH   5  22
TORSDOF 8
ENDMDL
MODEL 8
REMARK VINA RESULT:      -6.9      4.433      7.477
REMARK  Name = 
REMARK  9 active torsions:
REMARK  status: ('A' for Active; 'I' for Inactive)
REMARK    1  A    between atoms: C_1  and  N_2
REMARK    2  A    between atoms: C_6  and  C_8
REMARK    3  A    between atoms: C_10  and  C_11
REMARK    4  A    between atoms: C_18  and  O_19
REMARK    5  A    between atoms: O_19  and  C_20
REMARK    6  A    between atoms: C_20  and  C_21
REMARK    7  A    between atoms: C_21  and  C_22
REMARK    8  A    between atoms: C_22  and  C_23
REMARK    9  A    between atoms: C_23  and  O_24
REMARK                            x       y       z     vdW  Elec       q    Type
REMARK                         _______ _______ _______ _____ _____    ______ ____
ROOT
ATOM      1  C   UNL     1      -1.465  11.925  21.093  0.00  0.00    +0.000 C 
ATOM      2  C   UNL     1      -0.138  11.739  20.976  0.00  0.00    +0.000 C 
ATOM      3  C   UNL     1       0.551  11.626  19.649  0.00  0.00    +0.000 C 
ATOM      4  C   UNL     1      -0.367  12.097  18.513  0.00  0.00    +0.000 C 
ATOM      5  C   UNL     1      -1.807  11.647  18.727  0.00  0.00    +0.000 C 
ATOM      6  O   UNL     1      -2.296  12.024  20.009  0.00  0.00    +0.000 OA
ENDROOT
BRANCH   1  12
ATOM      7  C   UNL     1      -3.895  16.804  24.649  0.00  0.00    +0.000 C 
ATOM      8  N   UNL     1      -4.003  15.485  24.025  0.00  0.00    +0.000 NA
ATOM      9  C   UNL     1      -3.385  14.445  24.881  0.00  0.00    +0.000 C 
ATOM     10  C   UNL     1      -3.414  13.048  24.225  0.00  0.00    +0.000 C 
ATOM     11  N   UNL     1      -2.839  13.064  22.874  0.00  0.00    +0.000 N 
ATOM     12  C   UNL     1      -2.040  11.993  22.496  0.00  0.00    +0.000 C 
ATOM     13  O   UNL     1      -1.766  11.090  23.293  0.00  0.00    +0.000 OA
ATOM     14  C   UNL     1      -3.389  14.128  22.028  0.00  0.00    +0.000 C 
ATOM     15  C   UNL     1      -3.327  15.497  22.718  0.00  0.00    +0.000 C 
ENDBRANCH   1  12
BRANCH   3  16
ATOM     16  C   UNL     1       1.128  10.242  19.394  0.00  0.00    +0.000 A 
ATOM     17  C   UNL     1       1.715   9.889  18.167  0.00  0.00    +0.000 A 
ATOM     18  C   UNL     1       2.250   8.618  17.966  0.00  0.00    +0.000 A 
ATOM     19  C   UNL     1       2.210   7.679  18.991  0.00  0.00    +0.000 A 
ATOM     20  C   UNL     1       1.638   8.009  20.218  0.00  0.00    +0.000 A 
ATOM     21  C   UNL     1       1.102   9.282  20.419  0.00  0.00    +0.000 A 
ENDBRANCH   3  16
BRANCH   5  22
ATOM     22  O   UNL     1      -1.973  10.251  18.479  0.00  0.00    +0.000 OA
BRANCH  22  23
ATOM     23  C   UNL     1      -1.789   9.926  17.101  0.00  0.00    +0.000 C 
BRANCH  23  24
ATOM     24  C   UNL     1      -3.149   9.890  16.416  0.00  0.00    +0.000 C 
BRANCH  24  25
ATOM     25  C   UNL     1      -3.186  10.814  15.203  0.00  0.00    +0.000 C 
BRANCH  25  26
ATOM     26  C   UNL     1      -3.617  10.076  13.943  0.00  0.00    +0.000 C 
BRANCH  26  27
ATOM     27  O   UNL     1      -2.479   9.791  13.142  0.00  0.00    +0.000 OA
ATOM     28  H   UNL     1      -2.328   8.830  13.177  0.00  0.00    +0.000 HD
ENDBRANCH  26  27
ENDBRANCH  25  26
ENDBRANCH  24  25
ENDBRANCH  23  24
ENDBRANCH  22  23
ENDBRANCH   5  22
TORSDOF 8
ENDMDL
MODEL 9
REMARK VINA RESULT:      -6.9      1.869      2.659
REMARK  Name = 
REMARK  9 active torsions:
REMARK  status: ('A' for Active; 'I' for Inactive)
REMARK    1  A    between atoms: C_1  and  N_2
REMARK    2  A    between atoms: C_6  and  C_8
REMARK    3  A    between atoms: C_10  and  C_11
REMARK    4  A    between atoms: C_18  and  O_19
REMARK    5  A    between atoms: O_19  and  C_20
REMARK    6  A    between atoms: C_20  and  C_21
REMARK    7  A    between atoms: C_21  and  C_22
REMARK    8  A    between atoms: C_22  and  C_23
REMARK    9  A    between atoms: C_23  and  O_24
REMARK                            x       y       z     vdW  Elec       q    Type
REMARK                         _______ _______ _______ _____ _____    ______ ____
ROOT
ATOM      1  C   UNL     1       1.673   7.231  20.212  0.00  0.00    +0.000 C 
ATOM      2  C   UNL     1       2.360   7.273  19.057  0.00  0.00    +0.000 C 
ATOM      3  C   UNL     1       2.564   6.066  18.191  0.00  0.00    +0.000 C 
ATOM      4  C   UNL     1       1.617   4.931  18.602  0.00  0.00    +0.000 C 
ATOM      5  C   UNL     1       1.473   4.836  20.116  0.00  0.00    +0.000 C 
ATOM      6  O   UNL     1       1.105   6.082  20.693  0.00  0.00    +0.000 OA
ENDROOT
BRANCH   1  12
ATOM      7  C   UNL     1       0.538  13.407  18.500  0.00  0.00    +0.000 C 
ATOM      8  N   UNL     1       0.224  12.204  19.272  0.00  0.00    +0.000 NA
ATOM      9  C   UNL     1       1.065  12.124  20.489  0.00  0.00    +0.000 C 
ATOM     10  C   UNL     1       0.814  10.832  21.295  0.00  0.00    +0.000 C 
ATOM     11  N   UNL     1       0.938   9.631  20.458  0.00  0.00    +0.000 N 
ATOM     12  C   UNL     1       1.566   8.520  21.007  0.00  0.00    +0.000 C 
ATOM     13  O   UNL     1       2.064   8.562  22.136  0.00  0.00    +0.000 OA
ATOM     14  C   UNL     1       0.165   9.715  19.215  0.00  0.00    +0.000 C 
ATOM     15  C   UNL     1       0.457  11.009  18.445  0.00  0.00    +0.000 C 
ENDBRANCH   1  12
BRANCH   3  16
ATOM     16  C   UNL     1       4.016   5.617  18.127  0.00  0.00    +0.000 A 
ATOM     17  C   UNL     1       4.549   4.958  17.006  0.00  0.00    +0.000 A 
ATOM     18  C   UNL     1       5.887   4.573  16.969  0.00  0.00    +0.000 A 
ATOM     19  C   UNL     1       6.717   4.843  18.051  0.00  0.00    +0.000 A 
ATOM     20  C   UNL     1       6.212   5.501  19.171  0.00  0.00    +0.000 A 
ATOM     21  C   UNL     1       4.871   5.887  19.209  0.00  0.00    +0.000 A 
ENDBRANCH   3  16
BRANCH   5  22
ATOM     22  O   UNL     1       2.639   4.283  20.730  0.00  0.00    +0.000 OA
BRANCH  22  23
ATOM     23  C   UNL     1       2.390   2.992  21.287  0.00  0.00    +0.000 C 
BRANCH  23  24
ATOM     24  C   UNL     1       3.626   2.124  21.091  0.00  0.00    +0.000 C 
BRANCH  24  25
ATOM     25  C   UNL     1       4.294   2.403  19.748  0.00  0.00    +0.000 C 
BRANCH  25  26
ATOM     26  C   UNL     1       3.559   1.726  18.599  0.00  0.00    +0.000 C 
BRANCH  26  27
ATOM     27  O   UNL     1       4.152   0.463  18.330  0.00  0.00    +0.000 OA
ATOM     28  H   UNL     1       5.060   0.625  18.020  0.00  0.00    +0.000 HD
ENDBRANCH  26  27
ENDBRANCH  25  26
ENDBRANCH  24  25
ENDBRANCH  23  24
ENDBRANCH  22  23
ENDBRANCH   5  22
TORSDOF 8
ENDMDL
