MODEL 1
REMARK VINA RESULT:      -9.1      0.000      0.000
REMARK  Name = 
REMARK  8 active torsions:
REMARK  status: ('A' for Active; 'I' for Inactive)
REMARK    1  A    between atoms: C_1  and  C_2
REMARK    2  A    between atoms: C_2  and  C_3
REMARK    3  A    between atoms: C_5  and  N_6
REMARK    4  A    between atoms: N_6  and  C_7
REMARK    5  A    between atoms: C_7  and  C_8
REMARK    6  A    between atoms: C_17  and  O_18
REMARK    7  A    between atoms: O_18  and  C_19
REMARK    8  A    between atoms: C_19  and  C_20
REMARK                            x       y       z     vdW  Elec       q    Type
REMARK                         _______ _______ _______ _____ _____    ______ ____
ROOT
ATOM      1  C   UNL     1       2.569   7.702  18.417  0.00  0.00    +0.000 A 
ATOM      2  C   UNL     1       2.163   8.984  17.955  0.00  0.00    +0.000 A 
ATOM      3  C   UNL     1       1.382   9.851  18.755  0.00  0.00    +0.000 A 
ATOM      4  C   UNL     1       1.063  11.190  18.443  0.00  0.00    +0.000 A 
ATOM      5  C   UNL     1       0.389  11.930  19.397  0.00  0.00    +0.000 A 
ATOM      6  C   UNL     1      -0.062  11.364  20.565  0.00  0.00    +0.000 A 
ATOM      7  C   UNL     1       0.171  10.052  20.862  0.00  0.00    +0.000 A 
ATOM      8  C   UNL     1       0.943   9.322  19.984  0.00  0.00    +0.000 A 
ATOM      9  N   UNL     1       1.316   8.134  20.415  0.00  0.00    +0.000 NA
ATOM     10  C   UNL     1       2.182   7.373  19.711  0.00  0.00    +0.000 A 
ATOM     11  O   UNL     1      -0.655  12.261  21.395  0.00  0.00    +0.000 OA
ATOM     12  C   UNL     1      -0.234  13.478  20.757  0.00  0.00    +0.000 C 
ATOM     13  O   UNL     1       0.146  13.271  19.374  0.00  0.00    +0.000 OA
ENDROOT
BRANCH   1  14
ATOM     14  C   UNL     1       3.411   6.839  17.501  0.00  0.00    +0.000 C 
BRANCH  14  15
ATOM     15  N   UNL     1       4.743   6.524  18.036  0.00  0.00    +0.000 NA
ATOM     16  H   UNL     1       4.841   7.062  18.902  0.00  0.00    +0.000 HD
BRANCH  15  21
ATOM     17  C   UNL     1       6.526   4.320  14.258  0.00  0.00    +0.000 C 
ATOM     18  C   UNL     1       6.246   4.734  15.715  0.00  0.00    +0.000 C 
ATOM     19  C   UNL     1       5.195   3.769  16.276  0.00  0.00    +0.000 C 
ATOM     20  C   UNL     1       5.795   6.209  15.741  0.00  0.00    +0.000 C 
ATOM     21  C   UNL     1       5.847   6.884  17.126  0.00  0.00    +0.000 C 
ATOM     22  C   UNL     1       7.193   6.545  17.787  0.00  0.00    +0.000 C 
ATOM     23  C   UNL     1       7.507   5.058  17.738  0.00  0.00    +0.000 C 
ATOM     24  O   UNL     1       7.500   4.579  16.396  0.00  0.00    +0.000 OA
ENDBRANCH  15  21
ENDBRANCH  14  15
ENDBRANCH   1  14
BRANCH  10  25
ATOM     25  O   UNL     1       2.737   6.304  20.417  0.00  0.00    +0.000 OA
BRANCH  25  26
ATOM     26  C   UNL     1       1.973   5.113  20.121  0.00  0.00    +0.000 C 
BRANCH  26  27
ATOM     27  C   UNL     1       2.638   3.926  19.447  0.00  0.00    +0.000 A 
ATOM     28  C   UNL     1       1.948   3.379  18.340  0.00  0.00    +0.000 A 
ATOM     29  C   UNL     1       2.293   2.135  17.820  0.00  0.00    +0.000 A 
ATOM     30  C   UNL     1       3.343   1.427  18.392  0.00  0.00    +0.000 A 
ATOM     31  C   UNL     1       4.042   1.979  19.464  0.00  0.00    +0.000 A 
ATOM     32  F   UNL     1       5.031   1.269  20.027  0.00  0.00    +0.000 F 
ATOM     33  C   UNL     1       3.697   3.216  20.005  0.00  0.00    +0.000 A 
ENDBRANCH  26  27
ENDBRANCH  25  26
ENDBRANCH  10  25
TORSDOF 6
ENDMDL
MODEL 2
REMARK VINA RESULT:      -9.1      0.952      1.277
REMARK  Name = 
REMARK  8 active torsions:
REMARK  status: ('A' for Active; 'I' for Inactive)
REMARK    1  A    between atoms: C_1  and  C_2
REMARK    2  A    between atoms: C_2  and  C_3
REMARK    3  A    between atoms: C_5  and  N_6
REMARK    4  A    between atoms: N_6  and  C_7
REMARK    5  A    between atoms: C_7  and  C_8
REMARK    6  A    between atoms: C_17  and  O_18
REMARK    7  A    between atoms: O_18  and  C_19
REMARK    8  A    between atoms: C_19  and  C_20
REMARK                            x       y       z     vdW  Elec       q    Type
REMARK                         _______ _______ _______ _____ _____    ______ ____
ROOT
ATOM      1  C   UNL     1       2.683   7.122  18.597  0.00  0.00    +0.000 A 
ATOM      2  C   UNL     1       2.408   8.369  17.974  0.00  0.00    +0.000 A 
ATOM      3  C   UNL     1       1.680   9.388  18.634  0.00  0.00    +0.000 A 
ATOM      4  C   UNL     1       1.492  10.703  18.156  0.00  0.00    +0.000 A 
ATOM      5  C   UNL     1       0.854  11.604  18.990  0.00  0.00    +0.000 A 
ATOM      6  C   UNL     1       0.316  11.219  20.194  0.00  0.00    +0.000 A 
ATOM      7  C   UNL     1       0.422   9.937  20.649  0.00  0.00    +0.000 A 
ATOM      8  C   UNL     1       1.155   9.046  19.895  0.00  0.00    +0.000 A 
ATOM      9  N   UNL     1       1.407   7.891  20.475  0.00  0.00    +0.000 NA
ATOM     10  C   UNL     1       2.225   6.981  19.901  0.00  0.00    +0.000 A 
ATOM     11  O   UNL     1      -0.223  12.255  20.889  0.00  0.00    +0.000 OA
ATOM     12  C   UNL     1       0.326  13.349  20.134  0.00  0.00    +0.000 C 
ATOM     13  O   UNL     1       0.732  12.948  18.803  0.00  0.00    +0.000 OA
ENDROOT
BRANCH   1  14
ATOM     14  C   UNL     1       3.476   6.089  17.824  0.00  0.00    +0.000 C 
BRANCH  14  15
ATOM     15  N   UNL     1       4.804   5.812  18.386  0.00  0.00    +0.000 NA
ATOM     16  H   UNL     1       4.789   6.163  19.348  0.00  0.00    +0.000 HD
BRANCH  15  21
ATOM     17  C   UNL     1       6.859   4.800  14.256  0.00  0.00    +0.000 C 
ATOM     18  C   UNL     1       6.505   4.796  15.754  0.00  0.00    +0.000 C 
ATOM     19  C   UNL     1       5.511   3.652  15.992  0.00  0.00    +0.000 C 
ATOM     20  C   UNL     1       5.946   6.180  16.143  0.00  0.00    +0.000 C 
ATOM     21  C   UNL     1       5.906   6.467  17.658  0.00  0.00    +0.000 C 
ATOM     22  C   UNL     1       7.252   6.051  18.272  0.00  0.00    +0.000 C 
ATOM     23  C   UNL     1       7.676   4.652  17.852  0.00  0.00    +0.000 C 
ATOM     24  O   UNL     1       7.745   4.546  16.432  0.00  0.00    +0.000 OA
ENDBRANCH  15  21
ENDBRANCH  14  15
ENDBRANCH   1  14
BRANCH  10  25
ATOM     25  O   UNL     1       2.659   5.960  20.749  0.00  0.00    +0.000 OA
BRANCH  25  26
ATOM     26  C   UNL     1       1.778   4.826  20.589  0.00  0.00    +0.000 C 
BRANCH  26  27
ATOM     27  C   UNL     1       2.278   3.557  19.923  0.00  0.00    +0.000 A 
ATOM     28  C   UNL     1       3.425   2.966  20.505  0.00  0.00    +0.000 A 
ATOM     29  C   UNL     1       4.145   1.982  19.835  0.00  0.00    +0.000 A 
ATOM     30  C   UNL     1       3.720   1.563  18.579  0.00  0.00    +0.000 A 
ATOM     31  C   UNL     1       2.573   2.124  18.020  0.00  0.00    +0.000 A 
ATOM     32  F   UNL     1       2.195   1.735  16.793  0.00  0.00    +0.000 F 
ATOM     33  C   UNL     1       1.852   3.122  18.672  0.00  0.00    +0.000 A 
ENDBRANCH  26  27
ENDBRANCH  25  26
ENDBRANCH  10  25
TORSDOF 6
ENDMDL
MODEL 3
REMARK VINA RESULT:      -9.0      1.369      1.712
REMARK  Name = 
REMARK  8 active torsions:
REMARK  status: ('A' for Active; 'I' for Inactive)
REMARK    1  A    between atoms: C_1  and  C_2
REMARK    2  A    between atoms: C_2  and  C_3
REMARK    3  A    between atoms: C_5  and  N_6
REMARK    4  A    between atoms: N_6  and  C_7
REMARK    5  A    between atoms: C_7  and  C_8
REMARK    6  A    between atoms: C_17  and  O_18
REMARK    7  A    between atoms: O_18  and  C_19
REMARK    8  A    between atoms: C_19  and  C_20
REMARK                            x       y       z     vdW  Elec       q    Type
REMARK                         _______ _______ _______ _____ _____    ______ ____
ROOT
ATOM      1  C   UNL     1       2.169   8.173  18.620  0.00  0.00    +0.000 A 
ATOM      2  C   UNL     1       1.447   9.397  18.605  0.00  0.00    +0.000 A 
ATOM      3  C   UNL     1       0.727   9.852  19.736  0.00  0.00    +0.000 A 
ATOM      4  C   UNL     1       0.112  11.116  19.863  0.00  0.00    +0.000 A 
ATOM      5  C   UNL     1      -0.448  11.438  21.086  0.00  0.00    +0.000 A 
ATOM      6  C   UNL     1      -0.512  10.529  22.114  0.00  0.00    +0.000 A 
ATOM      7  C   UNL     1       0.013   9.275  21.995  0.00  0.00    +0.000 A 
ATOM      8  C   UNL     1       0.681   8.966  20.830  0.00  0.00    +0.000 A 
ATOM      9  N   UNL     1       1.348   7.830  20.847  0.00  0.00    +0.000 NA
ATOM     10  C   UNL     1       2.152   7.474  19.821  0.00  0.00    +0.000 A 
ATOM     11  O   UNL     1      -1.051  11.048  23.248  0.00  0.00    +0.000 OA
ATOM     12  C   UNL     1      -1.010  12.444  22.904  0.00  0.00    +0.000 C 
ATOM     13  O   UNL     1      -0.925  12.655  21.474  0.00  0.00    +0.000 OA
ENDROOT
BRANCH   1  14
ATOM     14  C   UNL     1       2.921   7.764  17.371  0.00  0.00    +0.000 C 
BRANCH  14  15
ATOM     15  N   UNL     1       3.930   6.720  17.596  0.00  0.00    +0.000 NA
ATOM     16  H   UNL     1       4.152   6.745  18.596  0.00  0.00    +0.000 HD
BRANCH  15  21
ATOM     17  C   UNL     1       6.179   3.944  14.507  0.00  0.00    +0.000 C 
ATOM     18  C   UNL     1       5.697   4.577  15.825  0.00  0.00    +0.000 C 
ATOM     19  C   UNL     1       4.535   3.725  16.351  0.00  0.00    +0.000 C 
ATOM     20  C   UNL     1       5.305   6.047  15.565  0.00  0.00    +0.000 C 
ATOM     21  C   UNL     1       5.173   6.921  16.828  0.00  0.00    +0.000 C 
ATOM     22  C   UNL     1       6.388   6.664  17.733  0.00  0.00    +0.000 C 
ATOM     23  C   UNL     1       6.647   5.181  17.952  0.00  0.00    +0.000 C 
ATOM     24  O   UNL     1       6.825   4.506  16.710  0.00  0.00    +0.000 OA
ENDBRANCH  15  21
ENDBRANCH  14  15
ENDBRANCH   1  14
BRANCH  10  25
ATOM     25  O   UNL     1       3.035   6.428  20.100  0.00  0.00    +0.000 OA
BRANCH  25  26
ATOM     26  C   UNL     1       2.314   5.396  20.810  0.00  0.00    +0.000 C 
BRANCH  26  27
ATOM     27  C   UNL     1       2.242   3.988  20.246  0.00  0.00    +0.000 A 
ATOM     28  C   UNL     1       3.482   3.334  20.060  0.00  0.00    +0.000 A 
ATOM     29  C   UNL     1       3.577   2.175  19.296  0.00  0.00    +0.000 A 
ATOM     30  C   UNL     1       2.428   1.645  18.720  0.00  0.00    +0.000 A 
ATOM     31  C   UNL     1       1.201   2.273  18.928  0.00  0.00    +0.000 A 
ATOM     32  F   UNL     1       0.108   1.769  18.337  0.00  0.00    +0.000 F 
ATOM     33  C   UNL     1       1.095   3.444  19.676  0.00  0.00    +0.000 A 
ENDBRANCH  26  27
ENDBRANCH  25  26
ENDBRANCH  10  25
TORSDOF 6
ENDMDL
MODEL 4
REMARK VINA RESULT:      -8.9      1.189      1.378
REMARK  Name = 
REMARK  8 active torsions:
REMARK  status: ('A' for Active; 'I' for Inactive)
REMARK    1  A    between atoms: C_1  and  C_2
REMARK    2  A    between atoms: C_2  and  C_3
REMARK    3  A    between atoms: C_5  and  N_6
REMARK    4  A    between atoms: N_6  and  C_7
REMARK    5  A    between atoms: C_7  and  C_8
REMARK    6  A    between atoms: C_17  and  O_18
REMARK    7  A    between atoms: O_18  and  C_19
REMARK    8  A    between atoms: C_19  and  C_20
REMARK                            x       y       z     vdW  Elec       q    Type
REMARK                         _______ _______ _______ _____ _____    ______ ____
ROOT
ATOM      1  C   UNL     1       2.348   8.219  18.265  0.00  0.00    +0.000 A 
ATOM      2  C   UNL     1       1.895   9.520  17.915  0.00  0.00    +0.000 A 
ATOM      3  C   UNL     1       1.206  10.342  18.839  0.00  0.00    +0.000 A 
ATOM      4  C   UNL     1       0.856  11.694  18.631  0.00  0.00    +0.000 A 
ATOM      5  C   UNL     1       0.291  12.382  19.690  0.00  0.00    +0.000 A 
ATOM      6  C   UNL     1      -0.028  11.756  20.870  0.00  0.00    +0.000 A 
ATOM      7  C   UNL     1       0.236  10.432  21.074  0.00  0.00    +0.000 A 
ATOM      8  C   UNL     1       0.905   9.750  20.081  0.00  0.00    +0.000 A 
ATOM      9  N   UNL     1       1.323   8.545  20.408  0.00  0.00    +0.000 NA
ATOM     10  C   UNL     1       2.106   7.824  19.575  0.00  0.00    +0.000 A 
ATOM     11  O   UNL     1      -0.526  12.608  21.805  0.00  0.00    +0.000 OA
ATOM     12  C   UNL     1      -0.177  13.858  21.185  0.00  0.00    +0.000 C 
ATOM     13  O   UNL     1       0.048  13.721  19.761  0.00  0.00    +0.000 OA
ENDROOT
BRANCH   1  14
ATOM     14  C   UNL     1       3.084   7.406  17.220  0.00  0.00    +0.000 C 
BRANCH  14  15
ATOM     15  N   UNL     1       4.395   6.913  17.662  0.00  0.00    +0.000 NA
ATOM     16  H   UNL     1       4.629   7.436  18.511  0.00  0.00    +0.000 HD
BRANCH  15  21
ATOM     17  C   UNL     1       6.330   3.963  14.521  0.00  0.00    +0.000 C 
ATOM     18  C   UNL     1       6.022   4.708  15.833  0.00  0.00    +0.000 C 
ATOM     19  C   UNL     1       5.045   3.843  16.639  0.00  0.00    +0.000 C 
ATOM     20  C   UNL     1       5.464   6.107  15.499  0.00  0.00    +0.000 C 
ATOM     21  C   UNL     1       5.468   7.110  16.671  0.00  0.00    +0.000 C 
ATOM     22  C   UNL     1       6.836   7.044  17.368  0.00  0.00    +0.000 C 
ATOM     23  C   UNL     1       7.259   5.618  17.687  0.00  0.00    +0.000 C 
ATOM     24  O   UNL     1       7.285   4.818  16.507  0.00  0.00    +0.000 OA
ENDBRANCH  15  21
ENDBRANCH  14  15
ENDBRANCH   1  14
BRANCH  10  25
ATOM     25  O   UNL     1       2.735   6.724  20.162  0.00  0.00    +0.000 OA
BRANCH  25  26
ATOM     26  C   UNL     1       1.717   5.819  20.648  0.00  0.00    +0.000 C 
BRANCH  26  27
ATOM     27  C   UNL     1       1.523   4.464  19.991  0.00  0.00    +0.000 A 
ATOM     28  C   UNL     1       1.340   3.373  20.872  0.00  0.00    +0.000 A 
ATOM     29  C   UNL     1       1.438   2.060  20.421  0.00  0.00    +0.000 A 
ATOM     30  C   UNL     1       1.706   1.820  19.078  0.00  0.00    +0.000 A 
ATOM     31  C   UNL     1       1.857   2.896  18.205  0.00  0.00    +0.000 A 
ATOM     32  F   UNL     1       2.148   2.649  16.919  0.00  0.00    +0.000 F 
ATOM     33  C   UNL     1       1.778   4.215  18.645  0.00  0.00    +0.000 A 
ENDBRANCH  26  27
ENDBRANCH  25  26
ENDBRANCH  10  25
TORSDOF 6
ENDMDL
MODEL 5
REMARK VINA RESULT:      -8.8      2.147      4.361
REMARK  Name = 
REMARK  8 active torsions:
REMARK  status: ('A' for Active; 'I' for Inactive)
REMARK    1  A    between atoms: C_1  and  C_2
REMARK    2  A    between atoms: C_2  and  C_3
REMARK    3  A    between atoms: C_5  and  N_6
REMARK    4  A    between atoms: N_6  and  C_7
REMARK    5  A    between atoms: C_7  and  C_8
REMARK    6  A    between atoms: C_17  and  O_18
REMARK    7  A    between atoms: O_18  and  C_19
REMARK    8  A    between atoms: C_19  and  C_20
REMARK                            x       y       z     vdW  Elec       q    Type
REMARK                         _______ _______ _______ _____ _____    ______ ____
ROOT
ATOM      1  C   UNL     1       2.107   7.530  19.766  0.00  0.00    +0.000 A 
ATOM      2  C   UNL     1       1.305   8.218  20.716  0.00  0.00    +0.000 A 
ATOM      3  C   UNL     1       0.689   9.456  20.414  0.00  0.00    +0.000 A 
ATOM      4  C   UNL     1      -0.240  10.131  21.235  0.00  0.00    +0.000 A 
ATOM      5  C   UNL     1      -0.834  11.273  20.729  0.00  0.00    +0.000 A 
ATOM      6  C   UNL     1      -0.460  11.807  19.520  0.00  0.00    +0.000 A 
ATOM      7  C   UNL     1       0.487  11.213  18.736  0.00  0.00    +0.000 A 
ATOM      8  C   UNL     1       1.010  10.011  19.161  0.00  0.00    +0.000 A 
ATOM      9  N   UNL     1       1.754   9.377  18.278  0.00  0.00    +0.000 NA
ATOM     10  C   UNL     1       2.217   8.130  18.517  0.00  0.00    +0.000 A 
ATOM     11  O   UNL     1      -1.192  12.898  19.172  0.00  0.00    +0.000 OA
ATOM     12  C   UNL     1      -2.253  12.779  20.135  0.00  0.00    +0.000 C 
ATOM     13  O   UNL     1      -1.874  11.966  21.272  0.00  0.00    +0.000 OA
ENDROOT
BRANCH   1  14
ATOM     14  C   UNL     1       2.724   6.206  20.166  0.00  0.00    +0.000 C 
BRANCH  14  15
ATOM     15  N   UNL     1       1.755   5.225  20.674  0.00  0.00    +0.000 NA
ATOM     16  H   UNL     1       1.402   5.600  21.560  0.00  0.00    +0.000 HD
BRANCH  15  21
ATOM     17  C   UNL     1       3.744   2.096  17.749  0.00  0.00    +0.000 C 
ATOM     18  C   UNL     1       2.695   2.899  18.540  0.00  0.00    +0.000 C 
ATOM     19  C   UNL     1       2.193   4.027  17.630  0.00  0.00    +0.000 C 
ATOM     20  C   UNL     1       3.333   3.409  19.848  0.00  0.00    +0.000 C 
ATOM     21  C   UNL     1       2.333   3.891  20.919  0.00  0.00    +0.000 C 
ATOM     22  C   UNL     1       1.207   2.853  21.041  0.00  0.00    +0.000 C 
ATOM     23  C   UNL     1       0.627   2.461  19.690  0.00  0.00    +0.000 C 
ATOM     24  O   UNL     1       1.644   1.964  18.824  0.00  0.00    +0.000 OA
ENDBRANCH  15  21
ENDBRANCH  14  15
ENDBRANCH   1  14
BRANCH  10  25
ATOM     25  O   UNL     1       2.706   7.457  17.395  0.00  0.00    +0.000 OA
BRANCH  25  26
ATOM     26  C   UNL     1       4.150   7.520  17.417  0.00  0.00    +0.000 C 
BRANCH  26  27
ATOM     27  C   UNL     1       4.974   6.313  17.006  0.00  0.00    +0.000 A 
ATOM     28  C   UNL     1       5.724   5.699  18.036  0.00  0.00    +0.000 A 
ATOM     29  C   UNL     1       6.728   4.780  17.745  0.00  0.00    +0.000 A 
ATOM     30  C   UNL     1       6.985   4.451  16.418  0.00  0.00    +0.000 A 
ATOM     31  C   UNL     1       6.226   5.034  15.406  0.00  0.00    +0.000 A 
ATOM     32  F   UNL     1       6.508   4.732  14.130  0.00  0.00    +0.000 F 
ATOM     33  C   UNL     1       5.229   5.968  15.682  0.00  0.00    +0.000 A 
ENDBRANCH  26  27
ENDBRANCH  25  26
ENDBRANCH  10  25
TORSDOF 6
ENDMDL
MODEL 6
REMARK VINA RESULT:      -8.7      1.137      2.085
REMARK  Name = 
REMARK  8 active torsions:
REMARK  status: ('A' for Active; 'I' for Inactive)
REMARK    1  A    between atoms: C_1  and  C_2
REMARK    2  A    between atoms: C_2  and  C_3
REMARK    3  A    between atoms: C_5  and  N_6
REMARK    4  A    between atoms: N_6  and  C_7
REMARK    5  A    between atoms: C_7  and  C_8
REMARK    6  A    between atoms: C_17  and  O_18
REMARK    7  A    between atoms: O_18  and  C_19
REMARK    8  A    between atoms: C_19  and  C_20
REMARK                            x       y       z     vdW  Elec       q    Type
REMARK                         _______ _______ _______ _____ _____    ______ ____
ROOT
ATOM      1  C   UNL     1       2.310   7.477  18.518  0.00  0.00    +0.000 A 
ATOM      2  C   UNL     1       1.880   8.774  18.124  0.00  0.00    +0.000 A 
ATOM      3  C   UNL     1       1.336   9.692  19.054  0.00  0.00    +0.000 A 
ATOM      4  C   UNL     1       1.026  11.043  18.785  0.00  0.00    +0.000 A 
ATOM      5  C   UNL     1       0.613  11.830  19.845  0.00  0.00    +0.000 A 
ATOM      6  C   UNL     1       0.398  11.304  21.096  0.00  0.00    +0.000 A 
ATOM      7  C   UNL     1       0.622   9.985  21.367  0.00  0.00    +0.000 A 
ATOM      8  C   UNL     1       1.147   9.203  20.361  0.00  0.00    +0.000 A 
ATOM      9  N   UNL     1       1.543   8.002  20.728  0.00  0.00    +0.000 NA
ATOM     10  C   UNL     1       2.196   7.186  19.872  0.00  0.00    +0.000 A 
ATOM     11  O   UNL     1       0.045  12.243  22.013  0.00  0.00    +0.000 OA
ATOM     12  C   UNL     1       0.379  13.427  21.270  0.00  0.00    +0.000 C 
ATOM     13  O   UNL     1       0.439  13.182  19.844  0.00  0.00    +0.000 OA
ENDROOT
BRANCH   1  14
ATOM     14  C   UNL     1       2.889   6.558  17.463  0.00  0.00    +0.000 C 
BRANCH  14  15
ATOM     15  N   UNL     1       4.356   6.489  17.471  0.00  0.00    +0.000 NA
ATOM     16  H   UNL     1       4.656   6.608  16.499  0.00  0.00    +0.000 HD
BRANCH  15  21
ATOM     17  C   UNL     1       8.483   5.401  19.495  0.00  0.00    +0.000 C 
ATOM     18  C   UNL     1       7.404   5.693  18.436  0.00  0.00    +0.000 C 
ATOM     19  C   UNL     1       7.537   7.168  18.033  0.00  0.00    +0.000 C 
ATOM     20  C   UNL     1       6.019   5.343  19.019  0.00  0.00    +0.000 C 
ATOM     21  C   UNL     1       4.887   5.211  17.979  0.00  0.00    +0.000 C 
ATOM     22  C   UNL     1       5.395   4.358  16.806  0.00  0.00    +0.000 C 
ATOM     23  C   UNL     1       6.747   4.827  16.289  0.00  0.00    +0.000 C 
ATOM     24  O   UNL     1       7.718   4.831  17.332  0.00  0.00    +0.000 OA
ENDBRANCH  15  21
ENDBRANCH  14  15
ENDBRANCH   1  14
BRANCH  10  25
ATOM     25  O   UNL     1       2.836   6.097  20.468  0.00  0.00    +0.000 OA
BRANCH  25  26
ATOM     26  C   UNL     1       1.924   4.975  20.471  0.00  0.00    +0.000 C 
BRANCH  26  27
ATOM     27  C   UNL     1       2.338   3.651  19.855  0.00  0.00    +0.000 A 
ATOM     28  C   UNL     1       3.417   2.988  20.486  0.00  0.00    +0.000 A 
ATOM     29  C   UNL     1       4.074   1.930  19.865  0.00  0.00    +0.000 A 
ATOM     30  C   UNL     1       3.649   1.510  18.609  0.00  0.00    +0.000 A 
ATOM     31  C   UNL     1       2.568   2.144  18.001  0.00  0.00    +0.000 A 
ATOM     32  F   UNL     1       2.192   1.750  16.775  0.00  0.00    +0.000 F 
ATOM     33  C   UNL     1       1.912   3.215  18.604  0.00  0.00    +0.000 A 
ENDBRANCH  26  27
ENDBRANCH  25  26
ENDBRANCH  10  25
TORSDOF 6
ENDMDL
MODEL 7
REMARK VINA RESULT:      -8.7      1.781      4.150
REMARK  Name = 
REMARK  8 active torsions:
REMARK  status: ('A' for Active; 'I' for Inactive)
REMARK    1  A    between atoms: C_1  and  C_2
REMARK    2  A    between atoms: C_2  and  C_3
REMARK    3  A    between atoms: C_5  and  N_6
REMARK    4  A    between atoms: N_6  and  C_7
REMARK    5  A    between atoms: C_7  and  C_8
REMARK    6  A    between atoms: C_17  and  O_18
REMARK    7  A    between atoms: O_18  and  C_19
REMARK    8  A    between atoms: C_19  and  C_20
REMARK                            x       y       z     vdW  Elec       q    Type
REMARK                         _______ _______ _______ _____ _____    ______ ____
ROOT
ATOM      1  C   UNL     1       1.720   7.317  20.147  0.00  0.00    +0.000 A 
ATOM      2  C   UNL     1       0.944   8.329  20.775  0.00  0.00    +0.000 A 
ATOM      3  C   UNL     1       0.832   9.629  20.227  0.00  0.00    +0.000 A 
ATOM      4  C   UNL     1      -0.030  10.644  20.695  0.00  0.00    +0.000 A 
ATOM      5  C   UNL     1      -0.097  11.818  19.965  0.00  0.00    +0.000 A 
ATOM      6  C   UNL     1       0.723  12.046  18.887  0.00  0.00    +0.000 A 
ATOM      7  C   UNL     1       1.617  11.109  18.455  0.00  0.00    +0.000 A 
ATOM      8  C   UNL     1       1.622   9.885  19.090  0.00  0.00    +0.000 A 
ATOM      9  N   UNL     1       2.343   8.951  18.506  0.00  0.00    +0.000 NA
ATOM     10  C   UNL     1       2.328   7.674  18.949  0.00  0.00    +0.000 A 
ATOM     11  O   UNL     1       0.473  13.231  18.272  0.00  0.00    +0.000 OA
ATOM     12  C   UNL     1      -0.788  13.548  18.887  0.00  0.00    +0.000 C 
ATOM     13  O   UNL     1      -0.983  12.839  20.135  0.00  0.00    +0.000 OA
ENDROOT
BRANCH   1  14
ATOM     14  C   UNL     1       1.781   5.949  20.794  0.00  0.00    +0.000 C 
BRANCH  14  15
ATOM     15  N   UNL     1       2.924   5.134  20.361  0.00  0.00    +0.000 NA
ATOM     16  H   UNL     1       2.903   5.128  19.337  0.00  0.00    +0.000 HD
BRANCH  15  21
ATOM     17  C   UNL     1       3.905   1.043  18.214  0.00  0.00    +0.000 C 
ATOM     18  C   UNL     1       3.160   2.302  18.695  0.00  0.00    +0.000 C 
ATOM     19  C   UNL     1       3.292   3.366  17.598  0.00  0.00    +0.000 C 
ATOM     20  C   UNL     1       3.748   2.747  20.050  0.00  0.00    +0.000 C 
ATOM     21  C   UNL     1       2.878   3.742  20.845  0.00  0.00    +0.000 C 
ATOM     22  C   UNL     1       1.425   3.239  20.837  0.00  0.00    +0.000 C 
ATOM     23  C   UNL     1       0.944   2.873  19.440  0.00  0.00    +0.000 C 
ATOM     24  O   UNL     1       1.793   1.893  18.850  0.00  0.00    +0.000 OA
ENDBRANCH  15  21
ENDBRANCH  14  15
ENDBRANCH   1  14
BRANCH  10  25
ATOM     25  O   UNL     1       2.866   6.737  18.065  0.00  0.00    +0.000 OA
BRANCH  25  26
ATOM     26  C   UNL     1       3.978   7.347  17.372  0.00  0.00    +0.000 C 
BRANCH  26  27
ATOM     27  C   UNL     1       5.147   6.497  16.905  0.00  0.00    +0.000 A 
ATOM     28  C   UNL     1       5.101   6.074  15.556  0.00  0.00    +0.000 A 
ATOM     29  C   UNL     1       5.944   5.070  15.087  0.00  0.00    +0.000 A 
ATOM     30  C   UNL     1       6.856   4.487  15.960  0.00  0.00    +0.000 A 
ATOM     31  C   UNL     1       6.921   4.925  17.281  0.00  0.00    +0.000 A 
ATOM     32  F   UNL     1       7.782   4.328  18.119  0.00  0.00    +0.000 F 
ATOM     33  C   UNL     1       6.072   5.917  17.768  0.00  0.00    +0.000 A 
ENDBRANCH  26  27
ENDBRANCH  25  26
ENDBRANCH  10  25
TORSDOF 6
ENDMDL
MODEL 8
REMARK VINA RESULT:      -8.6      1.794      4.280
REMARK  Name = 
REMARK  8 active torsions:
REMARK  status: ('A' for Active; 'I' for Inactive)
REMARK    1  A    between atoms: C_1  and  C_2
REMARK    2  A    between atoms: C_2  and  C_3
REMARK    3  A    between atoms: C_5  and  N_6
REMARK    4  A    between atoms: N_6  and  C_7
REMARK    5  A    between atoms: C_7  and  C_8
REMARK    6  A    between atoms: C_17  and  O_18
REMARK    7  A    between atoms: O_18  and  C_19
REMARK    8  A    between atoms: C_19  and  C_20
REMARK                            x       y       z     vdW  Elec       q    Type
REMARK                         _______ _______ _______ _____ _____    ______ ____
ROOT
ATOM      1  C   UNL     1       1.800   7.035  20.039  0.00  0.00    +0.000 A 
ATOM      2  C   UNL     1       0.996   7.903  20.826  0.00  0.00    +0.000 A 
ATOM      3  C   UNL     1       0.744   9.241  20.438  0.00  0.00    +0.000 A 
ATOM      4  C   UNL     1      -0.158  10.123  21.072  0.00  0.00    +0.000 A 
ATOM      5  C   UNL     1      -0.368  11.358  20.486  0.00  0.00    +0.000 A 
ATOM      6  C   UNL     1       0.352  11.771  19.392  0.00  0.00    +0.000 A 
ATOM      7  C   UNL     1       1.282  10.965  18.800  0.00  0.00    +0.000 A 
ATOM      8  C   UNL     1       1.428   9.685  19.290  0.00  0.00    +0.000 A 
ATOM      9  N   UNL     1       2.174   8.884  18.559  0.00  0.00    +0.000 NA
ATOM     10  C   UNL     1       2.290   7.570  18.854  0.00  0.00    +0.000 A 
ATOM     11  O   UNL     1      -0.034  12.990  18.932  0.00  0.00    +0.000 OA
ATOM     12  C   UNL     1      -1.267  13.130  19.658  0.00  0.00    +0.000 C 
ATOM     13  O   UNL     1      -1.317  12.276  20.826  0.00  0.00    +0.000 OA
ENDROOT
BRANCH   1  14
ATOM     14  C   UNL     1       2.013   5.615  20.520  0.00  0.00    +0.000 C 
BRANCH  14  15
ATOM     15  N   UNL     1       1.582   4.589  19.562  0.00  0.00    +0.000 NA
ATOM     16  H   UNL     1       0.640   4.855  19.258  0.00  0.00    +0.000 HD
BRANCH  15  21
ATOM     17  C   UNL     1       5.010   1.552  20.717  0.00  0.00    +0.000 C 
ATOM     18  C   UNL     1       3.968   2.344  19.906  0.00  0.00    +0.000 C 
ATOM     19  C   UNL     1       4.692   3.528  19.252  0.00  0.00    +0.000 C 
ATOM     20  C   UNL     1       2.820   2.773  20.843  0.00  0.00    +0.000 C 
ATOM     21  C   UNL     1       1.531   3.229  20.131  0.00  0.00    +0.000 C 
ATOM     22  C   UNL     1       1.197   2.217  19.024  0.00  0.00    +0.000 C 
ATOM     23  C   UNL     1       2.394   1.907  18.139  0.00  0.00    +0.000 C 
ATOM     24  O   UNL     1       3.489   1.425  18.913  0.00  0.00    +0.000 OA
ENDBRANCH  15  21
ENDBRANCH  14  15
ENDBRANCH   1  14
BRANCH  10  25
ATOM     25  O   UNL     1       2.835   6.783  17.836  0.00  0.00    +0.000 OA
BRANCH  25  26
ATOM     26  C   UNL     1       4.027   7.434  17.342  0.00  0.00    +0.000 C 
BRANCH  26  27
ATOM     27  C   UNL     1       5.239   6.610  16.946  0.00  0.00    +0.000 A 
ATOM     28  C   UNL     1       5.127   5.892  15.732  0.00  0.00    +0.000 A 
ATOM     29  C   UNL     1       6.034   4.890  15.402  0.00  0.00    +0.000 A 
ATOM     30  C   UNL     1       7.076   4.601  16.277  0.00  0.00    +0.000 A 
ATOM     31  C   UNL     1       7.202   5.328  17.459  0.00  0.00    +0.000 A 
ATOM     32  F   UNL     1       8.192   5.015  18.308  0.00  0.00    +0.000 F 
ATOM     33  C   UNL     1       6.292   6.323  17.809  0.00  0.00    +0.000 A 
ENDBRANCH  26  27
ENDBRANCH  25  26
ENDBRANCH  10  25
TORSDOF 6
ENDMDL
MODEL 9
REMARK VINA RESULT:      -8.5      1.374      2.157
REMARK  Name = 
REMARK  8 active torsions:
REMARK  status: ('A' for Active; 'I' for Inactive)
REMARK    1  A    between atoms: C_1  and  C_2
REMARK    2  A    between atoms: C_2  and  C_3
REMARK    3  A    between atoms: C_5  and  N_6
REMARK    4  A    between atoms: N_6  and  C_7
REMARK    5  A    between atoms: C_7  and  C_8
REMARK    6  A    between atoms: C_17  and  O_18
REMARK    7  A    between atoms: O_18  and  C_19
REMARK    8  A    between atoms: C_19  and  C_20
REMARK                            x       y       z     vdW  Elec       q    Type
REMARK                         _______ _______ _______ _____ _____    ______ ____
ROOT
ATOM      1  C   UNL     1       2.160   8.413  18.344  0.00  0.00    +0.000 A 
ATOM      2  C   UNL     1       1.772   9.751  18.065  0.00  0.00    +0.000 A 
ATOM      3  C   UNL     1       1.211  10.587  19.060  0.00  0.00    +0.000 A 
ATOM      4  C   UNL     1       0.938  11.965  18.915  0.00  0.00    +0.000 A 
ATOM      5  C   UNL     1       0.501  12.654  20.032  0.00  0.00    +0.000 A 
ATOM      6  C   UNL     1       0.227  12.012  21.216  0.00  0.00    +0.000 A 
ATOM      7  C   UNL     1       0.415  10.668  21.363  0.00  0.00    +0.000 A 
ATOM      8  C   UNL     1       0.962   9.976  20.304  0.00  0.00    +0.000 A 
ATOM      9  N   UNL     1       1.320   8.736  20.566  0.00  0.00    +0.000 NA
ATOM     10  C   UNL     1       1.989   7.993  19.657  0.00  0.00    +0.000 A 
ATOM     11  O   UNL     1      -0.142  12.864  22.208  0.00  0.00    +0.000 OA
ATOM     12  C   UNL     1       0.244  14.108  21.598  0.00  0.00    +0.000 C 
ATOM     13  O   UNL     1       0.355  14.003  20.158  0.00  0.00    +0.000 OA
ENDROOT
BRANCH   1  14
ATOM     14  C   UNL     1       2.761   7.588  17.225  0.00  0.00    +0.000 C 
BRANCH  14  15
ATOM     15  N   UNL     1       4.206   7.362  17.359  0.00  0.00    +0.000 NA
ATOM     16  H   UNL     1       4.619   7.590  16.450  0.00  0.00    +0.000 HD
BRANCH  15  21
ATOM     17  C   UNL     1       8.203   5.480  19.029  0.00  0.00    +0.000 C 
ATOM     18  C   UNL     1       7.138   6.036  18.067  0.00  0.00    +0.000 C 
ATOM     19  C   UNL     1       7.473   7.510  17.806  0.00  0.00    +0.000 C 
ATOM     20  C   UNL     1       5.741   5.830  18.689  0.00  0.00    +0.000 C 
ATOM     21  C   UNL     1       4.560   5.974  17.707  0.00  0.00    +0.000 C 
ATOM     22  C   UNL     1       4.887   5.187  16.428  0.00  0.00    +0.000 C 
ATOM     23  C   UNL     1       6.272   5.507  15.885  0.00  0.00    +0.000 C 
ATOM     24  O   UNL     1       7.274   5.260  16.867  0.00  0.00    +0.000 OA
ENDBRANCH  15  21
ENDBRANCH  14  15
ENDBRANCH   1  14
BRANCH  10  25
ATOM     25  O   UNL     1       2.583   6.835  20.165  0.00  0.00    +0.000 OA
BRANCH  25  26
ATOM     26  C   UNL     1       1.537   5.921  20.566  0.00  0.00    +0.000 C 
BRANCH  26  27
ATOM     27  C   UNL     1       1.476   4.523  19.976  0.00  0.00    +0.000 A 
ATOM     28  C   UNL     1       1.389   3.464  20.909  0.00  0.00    +0.000 A 
ATOM     29  C   UNL     1       1.614   2.145  20.524  0.00  0.00    +0.000 A 
ATOM     30  C   UNL     1       1.914   1.867  19.195  0.00  0.00    +0.000 A 
ATOM     31  C   UNL     1       1.970   2.908  18.271  0.00  0.00    +0.000 A 
ATOM     32  F   UNL     1       2.294   2.627  17.000  0.00  0.00    +0.000 F 
ATOM     33  C   UNL     1       1.764   4.234  18.645  0.00  0.00    +0.000 A 
ENDBRANCH  26  27
ENDBRANCH  25  26
ENDBRANCH  10  25
TORSDOF 6
ENDMDL
