MODEL 1
REMARK VINA RESULT:      -8.2      0.000      0.000
REMARK  Name = 
REMARK  6 active torsions:
REMARK  status: ('A' for Active; 'I' for Inactive)
REMARK    1  A    between atoms: C_1  and  C_2
REMARK    2  A    between atoms: N_5  and  C_6
REMARK    3  A    between atoms: C_9  and  N_10
REMARK    4  A    between atoms: C_17  and  C_18
REMARK    5  A    between atoms: C_17  and  C_19
REMARK    6  A    between atoms: C_20  and  O_21
REMARK                            x       y       z     vdW  Elec       q    Type
REMARK                         _______ _______ _______ _____ _____    ______ ____
ROOT
ATOM      1  C   UNL     1       2.970   5.579  19.611  0.00  0.00    +0.000 C 
ATOM      2  C   UNL     1       4.066   5.218  18.588  0.00  0.00    +0.000 A 
ATOM      3  C   UNL     1       5.270   5.940  18.512  0.00  0.00    +0.000 A 
ATOM      4  C   UNL     1       6.224   5.671  17.524  0.00  0.00    +0.000 A 
ATOM      5  C   UNL     1       5.981   4.638  16.607  0.00  0.00    +0.000 A 
ATOM      6  C   UNL     1       4.825   3.860  16.710  0.00  0.00    +0.000 A 
ATOM      7  C   UNL     1       3.884   4.126  17.706  0.00  0.00    +0.000 A 
ATOM      8  O   UNL     1       2.812   3.298  17.852  0.00  0.00    +0.000 OA
ATOM      9  C   UNL     1       2.089   3.238  19.038  0.00  0.00    +0.000 C 
ATOM     10  C   UNL     1       2.954   2.554  20.134  0.00  0.00    +0.000 C 
ATOM     11  C   UNL     1       0.840   2.371  18.816  0.00  0.00    +0.000 C 
ATOM     12  C   UNL     1       1.702   4.701  19.390  0.00  0.00    +0.000 C 
ENDROOT
BRANCH   1  17
ATOM     13  C   UNL     1       0.179  10.679  19.257  0.00  0.00    +0.000 C 
ATOM     14  C   UNL     1       0.658   9.228  19.312  0.00  0.00    +0.000 C 
ATOM     15  C   UNL     1       1.239   8.875  20.689  0.00  0.00    +0.000 C 
ATOM     16  C   UNL     1       1.621   7.391  20.717  0.00  0.00    +0.000 C 
ATOM     17  N   UNL     1       2.562   7.023  19.619  0.00  0.00    +0.000 NA
ATOM     18  C   UNL     1       2.119   7.481  18.278  0.00  0.00    +0.000 C 
ATOM     19  C   UNL     1       1.744   8.964  18.264  0.00  0.00    +0.000 C 
ENDBRANCH   1  17
BRANCH   4  20
ATOM     20  N   UNL     1       7.425   6.448  17.447  0.00  0.00    +0.000 N 
ATOM     21  O   UNL     1       7.830   6.837  16.395  0.00  0.00    +0.000 OA
ATOM     22  O   UNL     1       8.098   6.740  18.531  0.00  0.00    +0.000 OA
ENDBRANCH   4  20
BRANCH  12  23
ATOM     23  O   UNL     1       0.812   4.800  20.476  0.00  0.00    +0.000 OA
ATOM     24  H   UNL     1       1.074   5.586  21.019  0.00  0.00    +0.000 HD
ENDBRANCH  12  23
TORSDOF 3
ENDMDL
MODEL 2
REMARK VINA RESULT:      -7.5      0.663      1.241
REMARK  Name = 
REMARK  6 active torsions:
REMARK  status: ('A' for Active; 'I' for Inactive)
REMARK    1  A    between atoms: C_1  and  C_2
REMARK    2  A    between atoms: N_5  and  C_6
REMARK    3  A    between atoms: C_9  and  N_10
REMARK    4  A    between atoms: C_17  and  C_18
REMARK    5  A    between atoms: C_17  and  C_19
REMARK    6  A    between atoms: C_20  and  O_21
REMARK                            x       y       z     vdW  Elec       q    Type
REMARK                         _______ _______ _______ _____ _____    ______ ____
ROOT
ATOM      1  C   UNL     1       2.769   5.437  19.430  0.00  0.00    +0.000 C 
ATOM      2  C   UNL     1       4.055   5.212  18.610  0.00  0.00    +0.000 A 
ATOM      3  C   UNL     1       5.072   6.181  18.555  0.00  0.00    +0.000 A 
ATOM      4  C   UNL     1       6.197   6.017  17.738  0.00  0.00    +0.000 A 
ATOM      5  C   UNL     1       6.320   4.845  16.978  0.00  0.00    +0.000 A 
ATOM      6  C   UNL     1       5.356   3.838  17.072  0.00  0.00    +0.000 A 
ATOM      7  C   UNL     1       4.244   4.003  17.899  0.00  0.00    +0.000 A 
ATOM      8  O   UNL     1       3.366   2.972  18.053  0.00  0.00    +0.000 OA
ATOM      9  C   UNL     1       2.507   2.900  19.144  0.00  0.00    +0.000 C 
ATOM     10  C   UNL     1       3.329   2.587  20.427  0.00  0.00    +0.000 C 
ATOM     11  C   UNL     1       1.520   1.743  18.924  0.00  0.00    +0.000 C 
ATOM     12  C   UNL     1       1.766   4.264  19.211  0.00  0.00    +0.000 C 
ENDROOT
BRANCH   1  17
ATOM     13  C   UNL     1       1.212  11.011  18.772  0.00  0.00    +0.000 C 
ATOM     14  C   UNL     1       1.878   9.651  18.986  0.00  0.00    +0.000 C 
ATOM     15  C   UNL     1       1.808   8.780  17.723  0.00  0.00    +0.000 C 
ATOM     16  C   UNL     1       2.564   7.469  17.963  0.00  0.00    +0.000 C 
ATOM     17  N   UNL     1       2.062   6.732  19.160  0.00  0.00    +0.000 NA
ATOM     18  C   UNL     1       1.963   7.575  20.378  0.00  0.00    +0.000 C 
ATOM     19  C   UNL     1       1.204   8.878  20.124  0.00  0.00    +0.000 C 
ENDBRANCH   1  17
BRANCH   4  20
ATOM     20  N   UNL     1       7.200   7.037  17.674  0.00  0.00    +0.000 N 
ATOM     21  O   UNL     1       7.189   7.845  16.796  0.00  0.00    +0.000 OA
ATOM     22  O   UNL     1       8.146   7.097  18.577  0.00  0.00    +0.000 OA
ENDBRANCH   4  20
BRANCH  12  23
ATOM     23  O   UNL     1       0.726   4.293  20.159  0.00  0.00    +0.000 OA
ATOM     24  H   UNL     1       1.126   4.450  21.050  0.00  0.00    +0.000 HD
ENDBRANCH  12  23
TORSDOF 3
ENDMDL
MODEL 3
REMARK VINA RESULT:      -7.5      2.438      5.363
REMARK  Name = 
REMARK  6 active torsions:
REMARK  status: ('A' for Active; 'I' for Inactive)
REMARK    1  A    between atoms: C_1  and  C_2
REMARK    2  A    between atoms: N_5  and  C_6
REMARK    3  A    between atoms: C_9  and  N_10
REMARK    4  A    between atoms: C_17  and  C_18
REMARK    5  A    between atoms: C_17  and  C_19
REMARK    6  A    between atoms: C_20  and  O_21
REMARK                            x       y       z     vdW  Elec       q    Type
REMARK                         _______ _______ _______ _____ _____    ______ ____
ROOT
ATOM      1  C   UNL     1       3.028   4.577  18.452  0.00  0.00    +0.000 C 
ATOM      2  C   UNL     1       2.456   5.886  19.034  0.00  0.00    +0.000 A 
ATOM      3  C   UNL     1       2.240   7.017  18.228  0.00  0.00    +0.000 A 
ATOM      4  C   UNL     1       1.808   8.232  18.772  0.00  0.00    +0.000 A 
ATOM      5  C   UNL     1       1.561   8.310  20.151  0.00  0.00    +0.000 A 
ATOM      6  C   UNL     1       1.700   7.179  20.958  0.00  0.00    +0.000 A 
ATOM      7  C   UNL     1       2.118   5.967  20.406  0.00  0.00    +0.000 A 
ATOM      8  O   UNL     1       2.153   4.852  21.188  0.00  0.00    +0.000 OA
ATOM      9  C   UNL     1       2.141   3.573  20.642  0.00  0.00    +0.000 C 
ATOM     10  C   UNL     1       0.737   3.285  20.038  0.00  0.00    +0.000 C 
ATOM     11  C   UNL     1       2.390   2.552  21.762  0.00  0.00    +0.000 C 
ATOM     12  C   UNL     1       3.280   3.537  19.585  0.00  0.00    +0.000 C 
ENDROOT
BRANCH   1  17
ATOM     13  C   UNL     1       7.060   5.206  14.297  0.00  0.00    +0.000 C 
ATOM     14  C   UNL     1       5.818   5.085  15.181  0.00  0.00    +0.000 C 
ATOM     15  C   UNL     1       5.763   6.198  16.237  0.00  0.00    +0.000 C 
ATOM     16  C   UNL     1       4.459   6.082  17.034  0.00  0.00    +0.000 C 
ATOM     17  N   UNL     1       4.288   4.735  17.654  0.00  0.00    +0.000 NA
ATOM     18  C   UNL     1       4.487   3.613  16.703  0.00  0.00    +0.000 C 
ATOM     19  C   UNL     1       5.792   3.741  15.916  0.00  0.00    +0.000 C 
ENDBRANCH   1  17
BRANCH   4  20
ATOM     20  N   UNL     1       1.632   9.379  17.933  0.00  0.00    +0.000 N 
ATOM     21  O   UNL     1       2.535   9.790  17.269  0.00  0.00    +0.000 OA
ATOM     22  O   UNL     1       0.479   9.996  17.883  0.00  0.00    +0.000 OA
ENDBRANCH   4  20
BRANCH  12  23
ATOM     23  O   UNL     1       3.519   2.253  19.061  0.00  0.00    +0.000 OA
ATOM     24  H   UNL     1       2.908   1.618  19.512  0.00  0.00    +0.000 HD
ENDBRANCH  12  23
TORSDOF 3
ENDMDL
MODEL 4
REMARK VINA RESULT:      -7.5      2.448      5.124
REMARK  Name = 
REMARK  6 active torsions:
REMARK  status: ('A' for Active; 'I' for Inactive)
REMARK    1  A    between atoms: C_1  and  C_2
REMARK    2  A    between atoms: N_5  and  C_6
REMARK    3  A    between atoms: C_9  and  N_10
REMARK    4  A    between atoms: C_17  and  C_18
REMARK    5  A    between atoms: C_17  and  C_19
REMARK    6  A    between atoms: C_20  and  O_21
REMARK                            x       y       z     vdW  Elec       q    Type
REMARK                         _______ _______ _______ _____ _____    ______ ____
ROOT
ATOM      1  C   UNL     1       3.195   4.973  18.720  0.00  0.00    +0.000 C 
ATOM      2  C   UNL     1       2.428   6.159  19.339  0.00  0.00    +0.000 A 
ATOM      3  C   UNL     1       2.271   7.374  18.650  0.00  0.00    +0.000 A 
ATOM      4  C   UNL     1       1.655   8.481  19.248  0.00  0.00    +0.000 A 
ATOM      5  C   UNL     1       1.163   8.361  20.555  0.00  0.00    +0.000 A 
ATOM      6  C   UNL     1       1.245   7.142  21.231  0.00  0.00    +0.000 A 
ATOM      7  C   UNL     1       1.848   6.038  20.624  0.00  0.00    +0.000 A 
ATOM      8  O   UNL     1       1.832   4.833  21.259  0.00  0.00    +0.000 OA
ATOM      9  C   UNL     1       2.016   3.640  20.570  0.00  0.00    +0.000 C 
ATOM     10  C   UNL     1       0.768   3.358  19.685  0.00  0.00    +0.000 C 
ATOM     11  C   UNL     1       2.143   2.493  21.585  0.00  0.00    +0.000 C 
ATOM     12  C   UNL     1       3.323   3.807  19.745  0.00  0.00    +0.000 C 
ENDROOT
BRANCH   1  17
ATOM     13  C   UNL     1       8.193   7.511  17.137  0.00  0.00    +0.000 C 
ATOM     14  C   UNL     1       6.830   7.086  17.685  0.00  0.00    +0.000 C 
ATOM     15  C   UNL     1       6.954   5.911  18.666  0.00  0.00    +0.000 C 
ATOM     16  C   UNL     1       5.576   5.584  19.250  0.00  0.00    +0.000 C 
ATOM     17  N   UNL     1       4.560   5.305  18.194  0.00  0.00    +0.000 NA
ATOM     18  C   UNL     1       4.507   6.341  17.131  0.00  0.00    +0.000 C 
ATOM     19  C   UNL     1       5.889   6.654  16.555  0.00  0.00    +0.000 C 
ENDBRANCH   1  17
BRANCH   4  20
ATOM     20  N   UNL     1       1.541   9.718  18.535  0.00  0.00    +0.000 N 
ATOM     21  O   UNL     1       1.982   9.825  17.431  0.00  0.00    +0.000 OA
ATOM     22  O   UNL     1       0.955  10.751  19.085  0.00  0.00    +0.000 OA
ENDBRANCH   4  20
BRANCH  12  23
ATOM     23  O   UNL     1       3.751   2.619  19.123  0.00  0.00    +0.000 OA
ATOM     24  H   UNL     1       4.579   2.316  19.573  0.00  0.00    +0.000 HD
ENDBRANCH  12  23
TORSDOF 3
ENDMDL
MODEL 5
REMARK VINA RESULT:      -7.3      2.401      5.563
REMARK  Name = 
REMARK  6 active torsions:
REMARK  status: ('A' for Active; 'I' for Inactive)
REMARK    1  A    between atoms: C_1  and  C_2
REMARK    2  A    between atoms: N_5  and  C_6
REMARK    3  A    between atoms: C_9  and  N_10
REMARK    4  A    between atoms: C_17  and  C_18
REMARK    5  A    between atoms: C_17  and  C_19
REMARK    6  A    between atoms: C_20  and  O_21
REMARK                            x       y       z     vdW  Elec       q    Type
REMARK                         _______ _______ _______ _____ _____    ______ ____
ROOT
ATOM      1  C   UNL     1       2.754   5.038  18.262  0.00  0.00    +0.000 C 
ATOM      2  C   UNL     1       2.231   6.293  18.989  0.00  0.00    +0.000 A 
ATOM      3  C   UNL     1       1.892   7.463  18.288  0.00  0.00    +0.000 A 
ATOM      4  C   UNL     1       1.505   8.631  18.955  0.00  0.00    +0.000 A 
ATOM      5  C   UNL     1       1.429   8.620  20.355  0.00  0.00    +0.000 A 
ATOM      6  C   UNL     1       1.691   7.448  21.068  0.00  0.00    +0.000 A 
ATOM      7  C   UNL     1       2.064   6.283  20.394  0.00  0.00    +0.000 A 
ATOM      8  O   UNL     1       2.221   5.126  21.096  0.00  0.00    +0.000 OA
ATOM      9  C   UNL     1       2.169   3.882  20.477  0.00  0.00    +0.000 C 
ATOM     10  C   UNL     1       0.707   3.588  20.033  0.00  0.00    +0.000 C 
ATOM     11  C   UNL     1       2.577   2.803  21.493  0.00  0.00    +0.000 C 
ATOM     12  C   UNL     1       3.168   3.941  19.288  0.00  0.00    +0.000 C 
ENDROOT
BRANCH   1  17
ATOM     13  C   UNL     1       7.785   4.958  15.327  0.00  0.00    +0.000 C 
ATOM     14  C   UNL     1       6.560   4.744  16.216  0.00  0.00    +0.000 C 
ATOM     15  C   UNL     1       5.293   4.493  15.385  0.00  0.00    +0.000 C 
ATOM     16  C   UNL     1       4.117   4.198  16.322  0.00  0.00    +0.000 C 
ATOM     17  N   UNL     1       3.902   5.280  17.326  0.00  0.00    +0.000 NA
ATOM     18  C   UNL     1       5.136   5.670  18.053  0.00  0.00    +0.000 C 
ATOM     19  C   UNL     1       6.301   5.965  17.105  0.00  0.00    +0.000 C 
ENDBRANCH   1  17
BRANCH   4  20
ATOM     20  N   UNL     1       1.201   9.820  18.216  0.00  0.00    +0.000 N 
ATOM     21  O   UNL     1       2.041  10.359  17.563  0.00  0.00    +0.000 OA
ATOM     22  O   UNL     1      -0.002  10.333  18.249  0.00  0.00    +0.000 OA
ENDBRANCH   4  20
BRANCH  12  23
ATOM     23  O   UNL     1       3.367   2.697  18.660  0.00  0.00    +0.000 OA
ATOM     24  H   UNL     1       3.494   2.013  19.364  0.00  0.00    +0.000 HD
ENDBRANCH  12  23
TORSDOF 3
ENDMDL
MODEL 6
REMARK VINA RESULT:      -7.0      1.779      4.746
REMARK  Name = 
REMARK  6 active torsions:
REMARK  status: ('A' for Active; 'I' for Inactive)
REMARK    1  A    between atoms: C_1  and  C_2
REMARK    2  A    between atoms: N_5  and  C_6
REMARK    3  A    between atoms: C_9  and  N_10
REMARK    4  A    between atoms: C_17  and  C_18
REMARK    5  A    between atoms: C_17  and  C_19
REMARK    6  A    between atoms: C_20  and  O_21
REMARK                            x       y       z     vdW  Elec       q    Type
REMARK                         _______ _______ _______ _____ _____    ______ ____
ROOT
ATOM      1  C   UNL     1       4.199   5.999  17.902  0.00  0.00    +0.000 C 
ATOM      2  C   UNL     1       3.766   4.638  18.484  0.00  0.00    +0.000 A 
ATOM      3  C   UNL     1       2.418   4.241  18.505  0.00  0.00    +0.000 A 
ATOM      4  C   UNL     1       2.016   3.047  19.115  0.00  0.00    +0.000 A 
ATOM      5  C   UNL     1       2.987   2.219  19.696  0.00  0.00    +0.000 A 
ATOM      6  C   UNL     1       4.339   2.560  19.624  0.00  0.00    +0.000 A 
ATOM      7  C   UNL     1       4.735   3.745  19.001  0.00  0.00    +0.000 A 
ATOM      8  O   UNL     1       6.063   4.013  18.854  0.00  0.00    +0.000 OA
ATOM      9  C   UNL     1       6.527   4.918  17.905  0.00  0.00    +0.000 C 
ATOM     10  C   UNL     1       6.339   4.315  16.484  0.00  0.00    +0.000 C 
ATOM     11  C   UNL     1       8.030   5.143  18.126  0.00  0.00    +0.000 C 
ATOM     12  C   UNL     1       5.724   6.231  18.122  0.00  0.00    +0.000 C 
ENDROOT
BRANCH   1  17
ATOM     13  C   UNL     1       0.214   9.966  19.423  0.00  0.00    +0.000 C 
ATOM     14  C   UNL     1       1.040   8.771  18.946  0.00  0.00    +0.000 C 
ATOM     15  C   UNL     1       1.812   8.117  20.101  0.00  0.00    +0.000 C 
ATOM     16  C   UNL     1       2.550   6.877  19.586  0.00  0.00    +0.000 C 
ATOM     17  N   UNL     1       3.449   7.184  18.436  0.00  0.00    +0.000 NA
ATOM     18  C   UNL     1       2.788   7.955  17.353  0.00  0.00    +0.000 C 
ATOM     19  C   UNL     1       2.059   9.192  17.882  0.00  0.00    +0.000 C 
ENDBRANCH   1  17
BRANCH   4  20
ATOM     20  N   UNL     1       0.630   2.686  19.154  0.00  0.00    +0.000 N 
ATOM     21  O   UNL     1      -0.074   3.073  20.035  0.00  0.00    +0.000 OA
ATOM     22  O   UNL     1       0.116   1.922  18.223  0.00  0.00    +0.000 OA
ENDBRANCH   4  20
BRANCH  12  23
ATOM     23  O   UNL     1       6.197   7.311  17.354  0.00  0.00    +0.000 OA
ATOM     24  H   UNL     1       5.889   7.184  16.422  0.00  0.00    +0.000 HD
ENDBRANCH  12  23
TORSDOF 3
ENDMDL
MODEL 7
REMARK VINA RESULT:      -7.0      1.805      4.609
REMARK  Name = 
REMARK  6 active torsions:
REMARK  status: ('A' for Active; 'I' for Inactive)
REMARK    1  A    between atoms: C_1  and  C_2
REMARK    2  A    between atoms: N_5  and  C_6
REMARK    3  A    between atoms: C_9  and  N_10
REMARK    4  A    between atoms: C_17  and  C_18
REMARK    5  A    between atoms: C_17  and  C_19
REMARK    6  A    between atoms: C_20  and  O_21
REMARK                            x       y       z     vdW  Elec       q    Type
REMARK                         _______ _______ _______ _____ _____    ______ ____
ROOT
ATOM      1  C   UNL     1       3.656   6.034  17.744  0.00  0.00    +0.000 C 
ATOM      2  C   UNL     1       3.628   4.767  18.623  0.00  0.00    +0.000 A 
ATOM      3  C   UNL     1       2.457   4.354  19.282  0.00  0.00    +0.000 A 
ATOM      4  C   UNL     1       2.455   3.257  20.153  0.00  0.00    +0.000 A 
ATOM      5  C   UNL     1       3.645   2.541  20.347  0.00  0.00    +0.000 A 
ATOM      6  C   UNL     1       4.801   2.890  19.647  0.00  0.00    +0.000 A 
ATOM      7  C   UNL     1       4.793   3.977  18.770  0.00  0.00    +0.000 A 
ATOM      8  O   UNL     1       5.901   4.243  18.024  0.00  0.00    +0.000 OA
ATOM      9  C   UNL     1       5.836   5.005  16.862  0.00  0.00    +0.000 C 
ATOM     10  C   UNL     1       5.102   4.195  15.755  0.00  0.00    +0.000 C 
ATOM     11  C   UNL     1       7.264   5.287  16.371  0.00  0.00    +0.000 C 
ATOM     12  C   UNL     1       5.103   6.322  17.243  0.00  0.00    +0.000 C 
ENDROOT
BRANCH   1  17
ATOM     13  C   UNL     1       0.367  10.347  19.866  0.00  0.00    +0.000 C 
ATOM     14  C   UNL     1       0.986   9.089  19.257  0.00  0.00    +0.000 C 
ATOM     15  C   UNL     1       1.820   8.312  20.286  0.00  0.00    +0.000 C 
ATOM     16  C   UNL     1       2.342   7.019  19.649  0.00  0.00    +0.000 C 
ATOM     17  N   UNL     1       3.118   7.271  18.400  0.00  0.00    +0.000 NA
ATOM     18  C   UNL     1       2.415   8.150  17.431  0.00  0.00    +0.000 C 
ATOM     19  C   UNL     1       1.903   9.438  18.080  0.00  0.00    +0.000 C 
ENDBRANCH   1  17
BRANCH   4  20
ATOM     20  N   UNL     1       1.256   2.881  20.840  0.00  0.00    +0.000 N 
ATOM     21  O   UNL     1       0.201   2.918  20.283  0.00  0.00    +0.000 OA
ATOM     22  O   UNL     1       1.298   2.494  22.089  0.00  0.00    +0.000 OA
ENDBRANCH   4  20
BRANCH  12  23
ATOM     23  O   UNL     1       5.109   7.284  16.216  0.00  0.00    +0.000 OA
ATOM     24  H   UNL     1       5.460   8.131  16.590  0.00  0.00    +0.000 HD
ENDBRANCH  12  23
TORSDOF 3
ENDMDL
MODEL 8
REMARK VINA RESULT:      -6.9      2.348      5.094
REMARK  Name = 
REMARK  6 active torsions:
REMARK  status: ('A' for Active; 'I' for Inactive)
REMARK    1  A    between atoms: C_1  and  C_2
REMARK    2  A    between atoms: N_5  and  C_6
REMARK    3  A    between atoms: C_9  and  N_10
REMARK    4  A    between atoms: C_17  and  C_18
REMARK    5  A    between atoms: C_17  and  C_19
REMARK    6  A    between atoms: C_20  and  O_21
REMARK                            x       y       z     vdW  Elec       q    Type
REMARK                         _______ _______ _______ _____ _____    ______ ____
ROOT
ATOM      1  C   UNL     1       4.209   4.823  17.667  0.00  0.00    +0.000 C 
ATOM      2  C   UNL     1       3.246   5.325  18.761  0.00  0.00    +0.000 A 
ATOM      3  C   UNL     1       2.836   6.668  18.822  0.00  0.00    +0.000 A 
ATOM      4  C   UNL     1       2.036   7.143  19.869  0.00  0.00    +0.000 A 
ATOM      5  C   UNL     1       1.614   6.248  20.863  0.00  0.00    +0.000 A 
ATOM      6  C   UNL     1       1.950   4.895  20.782  0.00  0.00    +0.000 A 
ATOM      7  C   UNL     1       2.737   4.425  19.729  0.00  0.00    +0.000 A 
ATOM      8  O   UNL     1       2.973   3.089  19.614  0.00  0.00    +0.000 OA
ATOM      9  C   UNL     1       3.365   2.515  18.408  0.00  0.00    +0.000 C 
ATOM     10  C   UNL     1       2.170   2.541  17.413  0.00  0.00    +0.000 C 
ATOM     11  C   UNL     1       3.740   1.046  18.656  0.00  0.00    +0.000 C 
ATOM     12  C   UNL     1       4.590   3.332  17.912  0.00  0.00    +0.000 C 
ENDROOT
BRANCH   1  17
ATOM     13  C   UNL     1       8.490   8.761  17.971  0.00  0.00    +0.000 C 
ATOM     14  C   UNL     1       7.254   7.870  18.104  0.00  0.00    +0.000 C 
ATOM     15  C   UNL     1       7.630   6.437  18.509  0.00  0.00    +0.000 C 
ATOM     16  C   UNL     1       6.354   5.613  18.714  0.00  0.00    +0.000 C 
ATOM     17  N   UNL     1       5.468   5.624  17.514  0.00  0.00    +0.000 NA
ATOM     18  C   UNL     1       5.199   6.986  16.988  0.00  0.00    +0.000 C 
ATOM     19  C   UNL     1       6.480   7.795  16.785  0.00  0.00    +0.000 C 
ENDBRANCH   1  17
BRANCH   4  20
ATOM     20  N   UNL     1       1.664   8.525  19.925  0.00  0.00    +0.000 N 
ATOM     21  O   UNL     1       1.378   9.034  20.965  0.00  0.00    +0.000 OA
ATOM     22  O   UNL     1       1.631   9.250  18.836  0.00  0.00    +0.000 OA
ENDBRANCH   4  20
BRANCH  12  23
ATOM     23  O   UNL     1       5.221   2.770  16.787  0.00  0.00    +0.000 OA
ATOM     24  H   UNL     1       5.885   2.108  17.104  0.00  0.00    +0.000 HD
ENDBRANCH  12  23
TORSDOF 3
ENDMDL
MODEL 9
REMARK VINA RESULT:      -6.6      3.197      5.732
REMARK  Name = 
REMARK  6 active torsions:
REMARK  status: ('A' for Active; 'I' for Inactive)
REMARK    1  A    between atoms: C_1  and  C_2
REMARK    2  A    between atoms: N_5  and  C_6
REMARK    3  A    between atoms: C_9  and  N_10
REMARK    4  A    between atoms: C_17  and  C_18
REMARK    5  A    between atoms: C_17  and  C_19
REMARK    6  A    between atoms: C_20  and  O_21
REMARK                            x       y       z     vdW  Elec       q    Type
REMARK                         _______ _______ _______ _____ _____    ______ ____
ROOT
ATOM      1  C   UNL     1       4.655   5.130  16.733  0.00  0.00    +0.000 C 
ATOM      2  C   UNL     1       5.458   4.734  15.477  0.00  0.00    +0.000 A 
ATOM      3  C   UNL     1       4.819   4.346  14.287  0.00  0.00    +0.000 A 
ATOM      4  C   UNL     1       5.547   3.898  13.177  0.00  0.00    +0.000 A 
ATOM      5  C   UNL     1       6.947   3.863  13.252  0.00  0.00    +0.000 A 
ATOM      6  C   UNL     1       7.604   4.312  14.399  0.00  0.00    +0.000 A 
ATOM      7  C   UNL     1       6.873   4.770  15.497  0.00  0.00    +0.000 A 
ATOM      8  O   UNL     1       7.531   5.295  16.568  0.00  0.00    +0.000 OA
ATOM      9  C   UNL     1       6.896   6.133  17.478  0.00  0.00    +0.000 C 
ATOM     10  C   UNL     1       6.603   7.502  16.800  0.00  0.00    +0.000 C 
ATOM     11  C   UNL     1       7.841   6.387  18.663  0.00  0.00    +0.000 C 
ATOM     12  C   UNL     1       5.610   5.390  17.936  0.00  0.00    +0.000 C 
ENDROOT
BRANCH   1  17
ATOM     13  C   UNL     1       0.951   1.685  19.620  0.00  0.00    +0.000 C 
ATOM     14  C   UNL     1       1.972   2.703  19.113  0.00  0.00    +0.000 C 
ATOM     15  C   UNL     1       1.336   3.707  18.140  0.00  0.00    +0.000 C 
ATOM     16  C   UNL     1       2.378   4.755  17.733  0.00  0.00    +0.000 C 
ATOM     17  N   UNL     1       3.608   4.141  17.153  0.00  0.00    +0.000 NA
ATOM     18  C   UNL     1       4.178   3.052  17.986  0.00  0.00    +0.000 C 
ATOM     19  C   UNL     1       3.128   2.012  18.382  0.00  0.00    +0.000 C 
ENDBRANCH   1  17
BRANCH   4  20
ATOM     20  N   UNL     1       4.868   3.474  11.990  0.00  0.00    +0.000 N 
ATOM     21  O   UNL     1       4.040   4.168  11.484  0.00  0.00    +0.000 OA
ATOM     22  O   UNL     1       5.144   2.317  11.443  0.00  0.00    +0.000 OA
ENDBRANCH   4  20
BRANCH  12  23
ATOM     23  O   UNL     1       4.940   6.030  18.996  0.00  0.00    +0.000 OA
ATOM     24  H   UNL     1       4.785   5.362  19.710  0.00  0.00    +0.000 HD
ENDBRANCH  12  23
TORSDOF 3
ENDMDL
