MODEL 1
REMARK VINA RESULT:      -8.2      0.000      0.000
REMARK  Name = 
REMARK  6 active torsions:
REMARK  status: ('A' for Active; 'I' for Inactive)
REMARK    1  A    between atoms: N_1  and  C_2
REMARK    2  A    between atoms: C_3  and  N_4
REMARK    3  A    between atoms: C_5  and  C_7
REMARK    4  A    between atoms: C_7  and  C_8
REMARK    5  A    between atoms: C_8  and  C_9
REMARK    6  A    between atoms: C_21  and  N_22
REMARK                            x       y       z     vdW  Elec       q    Type
REMARK                         _______ _______ _______ _____ _____    ______ ____
ROOT
ATOM      1  N   UNL     1       6.617   7.460  17.005  0.00  0.00    +0.000 N 
ATOM      2  C   UNL     1       7.670   7.772  17.838  0.00  0.00    +0.000 C 
ATOM      3  O   UNL     1       8.249   6.973  18.568  0.00  0.00    +0.000 OA
ATOM      4  H   UNL     1       6.381   8.156  16.307  0.00  0.00    +0.000 HD
ENDROOT
BRANCH   1   6
ATOM      5  C   UNL     1       5.369   5.398  17.798  0.00  0.00    +0.000 A 
ATOM      6  C   UNL     1       6.057   6.160  16.808  0.00  0.00    +0.000 A 
ATOM      7  C   UNL     1       6.233   5.624  15.518  0.00  0.00    +0.000 A 
ATOM      8  C   UNL     1       5.790   4.335  15.214  0.00  0.00    +0.000 A 
ATOM      9 CL   UNL     1       6.027   3.708  13.631  0.00  0.00    +0.000 Cl
ATOM     10  C   UNL     1       5.172   3.553  16.175  0.00  0.00    +0.000 A 
ATOM     11  C   UNL     1       4.951   4.085  17.455  0.00  0.00    +0.000 A 
BRANCH   5  12
ATOM     12  N   UNL     1       4.841   6.041  18.946  0.00  0.00    +0.000 N 
ATOM     13  H   UNL     1       5.403   5.834  19.777  0.00  0.00    +0.000 HD
ATOM     14  H   UNL     1       3.874   5.769  19.149  0.00  0.00    +0.000 HD
ENDBRANCH   5  12
BRANCH  11  15
ATOM     15  N   UNL     1       4.321   3.201  18.454  0.00  0.00    +0.000 N 
ATOM     16  O   UNL     1       3.214   2.703  18.191  0.00  0.00    +0.000 OA
ATOM     17  O   UNL     1       4.914   3.035  19.529  0.00  0.00    +0.000 OA
ENDBRANCH  11  15
ENDBRANCH   1   6
BRANCH   2  18
ATOM     18  C   UNL     1       8.097   9.232  17.808  0.00  0.00    +0.000 C 
BRANCH  18  19
ATOM     19  C   UNL     1       9.029   9.480  18.997  0.00  0.00    +0.000 C 
BRANCH  19  20
ATOM     20  C   UNL     1       9.638  10.855  19.033  0.00  0.00    +0.000 A 
ATOM     21  C   UNL     1      10.229  11.400  17.886  0.00  0.00    +0.000 A 
ATOM     22  C   UNL     1      10.736  12.700  17.909  0.00  0.00    +0.000 A 
ATOM     23 CL   UNL     1      11.440  13.364  16.486  0.00  0.00    +0.000 Cl
ATOM     24  C   UNL     1      10.668  13.468  19.068  0.00  0.00    +0.000 A 
ATOM     25  C   UNL     1      10.087  12.924  20.210  0.00  0.00    +0.000 A 
ATOM     26 CL   UNL     1       9.984  13.865  21.647  0.00  0.00    +0.000 Cl
ATOM     27  C   UNL     1       9.575  11.626  20.200  0.00  0.00    +0.000 A 
ENDBRANCH  19  20
ENDBRANCH  18  19
ENDBRANCH   2  18
TORSDOF 6
ENDMDL
MODEL 2
REMARK VINA RESULT:      -8.1      0.219      1.852
REMARK  Name = 
REMARK  6 active torsions:
REMARK  status: ('A' for Active; 'I' for Inactive)
REMARK    1  A    between atoms: N_1  and  C_2
REMARK    2  A    between atoms: C_3  and  N_4
REMARK    3  A    between atoms: C_5  and  C_7
REMARK    4  A    between atoms: C_7  and  C_8
REMARK    5  A    between atoms: C_8  and  C_9
REMARK    6  A    between atoms: C_21  and  N_22
REMARK                            x       y       z     vdW  Elec       q    Type
REMARK                         _______ _______ _______ _____ _____    ______ ____
ROOT
ATOM      1  N   UNL     1       6.515   7.421  16.892  0.00  0.00    +0.000 N 
ATOM      2  C   UNL     1       7.563   7.732  17.732  0.00  0.00    +0.000 C 
ATOM      3  O   UNL     1       8.162   6.925  18.437  0.00  0.00    +0.000 OA
ATOM      4  H   UNL     1       6.262   8.132  16.215  0.00  0.00    +0.000 HD
ENDROOT
BRANCH   1   6
ATOM      5  C   UNL     1       5.231   5.349  17.596  0.00  0.00    +0.000 A 
ATOM      6  C   UNL     1       5.983   6.115  16.657  0.00  0.00    +0.000 A 
ATOM      7  C   UNL     1       6.260   5.577  15.386  0.00  0.00    +0.000 A 
ATOM      8  C   UNL     1       5.852   4.284  15.054  0.00  0.00    +0.000 A 
ATOM      9 CL   UNL     1       6.213   3.656  13.495  0.00  0.00    +0.000 Cl
ATOM     10  C   UNL     1       5.172   3.499  15.969  0.00  0.00    +0.000 A 
ATOM     11  C   UNL     1       4.851   4.031  17.227  0.00  0.00    +0.000 A 
BRANCH   5  12
ATOM     12  N   UNL     1       4.612   5.990  18.700  0.00  0.00    +0.000 N 
ATOM     13  H   UNL     1       4.880   6.977  18.751  0.00  0.00    +0.000 HD
ATOM     14  H   UNL     1       4.846   5.556  19.598  0.00  0.00    +0.000 HD
ENDBRANCH   5  12
BRANCH  11  15
ATOM     15  N   UNL     1       4.156   3.145  18.179  0.00  0.00    +0.000 N 
ATOM     16  O   UNL     1       3.140   2.543  17.796  0.00  0.00    +0.000 OA
ATOM     17  O   UNL     1       4.603   3.078  19.333  0.00  0.00    +0.000 OA
ENDBRANCH  11  15
ENDBRANCH   1   6
BRANCH   2  18
ATOM     18  C   UNL     1       7.958   9.200  17.744  0.00  0.00    +0.000 C 
BRANCH  18  19
ATOM     19  C   UNL     1       8.951   9.417  18.889  0.00  0.00    +0.000 C 
BRANCH  19  20
ATOM     20  C   UNL     1       9.515  10.809  18.967  0.00  0.00    +0.000 A 
ATOM     21  C   UNL     1       9.440  11.540  20.160  0.00  0.00    +0.000 A 
ATOM     22  C   UNL     1      10.020  12.807  20.243  0.00  0.00    +0.000 A 
ATOM     23 CL   UNL     1       9.940  13.684  21.722  0.00  0.00    +0.000 Cl
ATOM     24  C   UNL     1      10.673  13.362  19.146  0.00  0.00    +0.000 A 
ATOM     25  C   UNL     1      10.741  12.639  17.958  0.00  0.00    +0.000 A 
ATOM     26 CL   UNL     1      11.554  13.307  16.597  0.00  0.00    +0.000 Cl
ATOM     27  C   UNL     1      10.166  11.372  17.862  0.00  0.00    +0.000 A 
ENDBRANCH  19  20
ENDBRANCH  18  19
ENDBRANCH   2  18
TORSDOF 6
ENDMDL
MODEL 3
REMARK VINA RESULT:      -7.6      6.454      8.355
REMARK  Name = 
REMARK  6 active torsions:
REMARK  status: ('A' for Active; 'I' for Inactive)
REMARK    1  A    between atoms: N_1  and  C_2
REMARK    2  A    between atoms: C_3  and  N_4
REMARK    3  A    between atoms: C_5  and  C_7
REMARK    4  A    between atoms: C_7  and  C_8
REMARK    5  A    between atoms: C_8  and  C_9
REMARK    6  A    between atoms: C_21  and  N_22
REMARK                            x       y       z     vdW  Elec       q    Type
REMARK                         _______ _______ _______ _____ _____    ______ ____
ROOT
ATOM      1  N   UNL     1       2.992   7.386  17.357  0.00  0.00    +0.000 N 
ATOM      2  C   UNL     1       2.354   8.033  18.394  0.00  0.00    +0.000 C 
ATOM      3  O   UNL     1       2.301   7.624  19.550  0.00  0.00    +0.000 OA
ATOM      4  H   UNL     1       3.142   7.933  16.517  0.00  0.00    +0.000 HD
ENDROOT
BRANCH   1   6
ATOM      5  C   UNL     1       5.155   6.059  17.325  0.00  0.00    +0.000 A 
ATOM      6  C   UNL     1       3.739   6.171  17.455  0.00  0.00    +0.000 A 
ATOM      7  C   UNL     1       2.970   5.015  17.689  0.00  0.00    +0.000 A 
ATOM      8  C   UNL     1       3.572   3.757  17.741  0.00  0.00    +0.000 A 
ATOM      9 CL   UNL     1       2.601   2.364  18.021  0.00  0.00    +0.000 Cl
ATOM     10  C   UNL     1       4.937   3.615  17.559  0.00  0.00    +0.000 A 
ATOM     11  C   UNL     1       5.726   4.759  17.364  0.00  0.00    +0.000 A 
BRANCH   5  12
ATOM     12  N   UNL     1       5.974   7.206  17.482  0.00  0.00    +0.000 N 
ATOM     13  H   UNL     1       6.467   7.430  16.613  0.00  0.00    +0.000 HD
ATOM     14  H   UNL     1       6.676   7.099  18.220  0.00  0.00    +0.000 HD
ENDBRANCH   5  12
BRANCH  11  15
ATOM     15  N   UNL     1       7.169   4.555  17.141  0.00  0.00    +0.000 N 
ATOM     16  O   UNL     1       7.903   4.375  18.126  0.00  0.00    +0.000 OA
ATOM     17  O   UNL     1       7.583   4.615  15.974  0.00  0.00    +0.000 OA
ENDBRANCH  11  15
ENDBRANCH   1   6
BRANCH   2  18
ATOM     18  C   UNL     1       1.681   9.342  18.012  0.00  0.00    +0.000 C 
BRANCH  18  19
ATOM     19  C   UNL     1       0.779   9.770  19.173  0.00  0.00    +0.000 C 
BRANCH  19  20
ATOM     20  C   UNL     1      -0.565  10.299  18.753  0.00  0.00    +0.000 A 
ATOM     21  C   UNL     1      -1.250  11.217  19.559  0.00  0.00    +0.000 A 
ATOM     22  C   UNL     1      -2.468  11.751  19.134  0.00  0.00    +0.000 A 
ATOM     23 CL   UNL     1      -3.288  12.894  20.125  0.00  0.00    +0.000 Cl
ATOM     24  C   UNL     1      -3.019  11.377  17.912  0.00  0.00    +0.000 A 
ATOM     25  C   UNL     1      -2.341  10.459  17.113  0.00  0.00    +0.000 A 
ATOM     26 CL   UNL     1      -3.003   9.995  15.594  0.00  0.00    +0.000 Cl
ATOM     27  C   UNL     1      -1.123   9.918  17.526  0.00  0.00    +0.000 A 
ENDBRANCH  19  20
ENDBRANCH  18  19
ENDBRANCH   2  18
TORSDOF 6
ENDMDL
MODEL 4
REMARK VINA RESULT:      -7.6      5.600      8.682
REMARK  Name = 
REMARK  6 active torsions:
REMARK  status: ('A' for Active; 'I' for Inactive)
REMARK    1  A    between atoms: N_1  and  C_2
REMARK    2  A    between atoms: C_3  and  N_4
REMARK    3  A    between atoms: C_5  and  C_7
REMARK    4  A    between atoms: C_7  and  C_8
REMARK    5  A    between atoms: C_8  and  C_9
REMARK    6  A    between atoms: C_21  and  N_22
REMARK                            x       y       z     vdW  Elec       q    Type
REMARK                         _______ _______ _______ _____ _____    ______ ____
ROOT
ATOM      1  N   UNL     1       2.545   6.647  20.156  0.00  0.00    +0.000 N 
ATOM      2  C   UNL     1       2.034   5.370  20.251  0.00  0.00    +0.000 C 
ATOM      3  O   UNL     1       0.870   5.099  20.529  0.00  0.00    +0.000 OA
ATOM      4  H   UNL     1       3.453   6.730  19.711  0.00  0.00    +0.000 HD
ENDROOT
BRANCH   1   6
ATOM      5  C   UNL     1       1.639   8.858  19.302  0.00  0.00    +0.000 A 
ATOM      6  C   UNL     1       1.809   7.862  20.309  0.00  0.00    +0.000 A 
ATOM      7  C   UNL     1       1.232   8.054  21.579  0.00  0.00    +0.000 A 
ATOM      8  C   UNL     1       0.542   9.230  21.879  0.00  0.00    +0.000 A 
ATOM      9 CL   UNL     1      -0.145   9.434  23.442  0.00  0.00    +0.000 Cl
ATOM     10  C   UNL     1       0.414  10.237  20.937  0.00  0.00    +0.000 A 
ATOM     11  C   UNL     1       0.947  10.048  19.653  0.00  0.00    +0.000 A 
BRANCH   5  12
ATOM     12  N   UNL     1       1.857   8.532  17.939  0.00  0.00    +0.000 N 
ATOM     13  H   UNL     1       0.991   8.219  17.491  0.00  0.00    +0.000 HD
ATOM     14  H   UNL     1       2.559   7.796  17.811  0.00  0.00    +0.000 HD
ENDBRANCH   5  12
BRANCH  11  15
ATOM     15  N   UNL     1       0.816  11.162  18.696  0.00  0.00    +0.000 N 
ATOM     16  O   UNL     1      -0.322  11.566  18.408  0.00  0.00    +0.000 OA
ATOM     17  O   UNL     1       1.855  11.613  18.193  0.00  0.00    +0.000 OA
ENDBRANCH  11  15
ENDBRANCH   1   6
BRANCH   2  18
ATOM     18  C   UNL     1       3.037   4.259  19.985  0.00  0.00    +0.000 C 
BRANCH  18  19
ATOM     19  C   UNL     1       3.131   4.055  18.470  0.00  0.00    +0.000 C 
BRANCH  19  20
ATOM     20  C   UNL     1       4.489   4.339  17.888  0.00  0.00    +0.000 A 
ATOM     21  C   UNL     1       5.511   4.861  18.691  0.00  0.00    +0.000 A 
ATOM     22  C   UNL     1       6.785   5.064  18.160  0.00  0.00    +0.000 A 
ATOM     23 CL   UNL     1       8.037   5.685  19.164  0.00  0.00    +0.000 Cl
ATOM     24  C   UNL     1       7.057   4.757  16.829  0.00  0.00    +0.000 A 
ATOM     25  C   UNL     1       6.039   4.244  16.029  0.00  0.00    +0.000 A 
ATOM     26 CL   UNL     1       6.362   3.850  14.385  0.00  0.00    +0.000 Cl
ATOM     27  C   UNL     1       4.761   4.036  16.548  0.00  0.00    +0.000 A 
ENDBRANCH  19  20
ENDBRANCH  18  19
ENDBRANCH   2  18
TORSDOF 6
ENDMDL
MODEL 5
REMARK VINA RESULT:      -7.6      5.605      8.523
REMARK  Name = 
REMARK  6 active torsions:
REMARK  status: ('A' for Active; 'I' for Inactive)
REMARK    1  A    between atoms: N_1  and  C_2
REMARK    2  A    between atoms: C_3  and  N_4
REMARK    3  A    between atoms: C_5  and  C_7
REMARK    4  A    between atoms: C_7  and  C_8
REMARK    5  A    between atoms: C_8  and  C_9
REMARK    6  A    between atoms: C_21  and  N_22
REMARK                            x       y       z     vdW  Elec       q    Type
REMARK                         _______ _______ _______ _____ _____    ______ ____
ROOT
ATOM      1  N   UNL     1       2.570   6.590  20.127  0.00  0.00    +0.000 N 
ATOM      2  C   UNL     1       2.048   5.320  20.251  0.00  0.00    +0.000 C 
ATOM      3  O   UNL     1       0.885   5.066  20.551  0.00  0.00    +0.000 OA
ATOM      4  H   UNL     1       3.472   6.657  19.668  0.00  0.00    +0.000 HD
ENDROOT
BRANCH   1   6
ATOM      5  C   UNL     1       1.713   8.818  19.267  0.00  0.00    +0.000 A 
ATOM      6  C   UNL     1       1.849   7.815  20.272  0.00  0.00    +0.000 A 
ATOM      7  C   UNL     1       1.250   8.010  21.531  0.00  0.00    +0.000 A 
ATOM      8  C   UNL     1       0.571   9.194  21.823  0.00  0.00    +0.000 A 
ATOM      9 CL   UNL     1      -0.144   9.401  23.374  0.00  0.00    +0.000 Cl
ATOM     10  C   UNL     1       0.476  10.207  20.884  0.00  0.00    +0.000 A 
ATOM     11  C   UNL     1       1.032  10.016  19.610  0.00  0.00    +0.000 A 
BRANCH   5  12
ATOM     12  N   UNL     1       1.953   8.495  17.907  0.00  0.00    +0.000 N 
ATOM     13  H   UNL     1       1.153   8.747  17.320  0.00  0.00    +0.000 HD
ATOM     14  H   UNL     1       2.146   7.499  17.760  0.00  0.00    +0.000 HD
ENDBRANCH   5  12
BRANCH  11  15
ATOM     15  N   UNL     1       0.935  11.136  18.656  0.00  0.00    +0.000 N 
ATOM     16  O   UNL     1       1.966  11.511  18.074  0.00  0.00    +0.000 OA
ATOM     17  O   UNL     1      -0.172  11.677  18.515  0.00  0.00    +0.000 OA
ENDBRANCH  11  15
ENDBRANCH   1   6
BRANCH   2  18
ATOM     18  C   UNL     1       3.036   4.195  19.988  0.00  0.00    +0.000 C 
BRANCH  18  19
ATOM     19  C   UNL     1       3.142   3.999  18.473  0.00  0.00    +0.000 C 
BRANCH  19  20
ATOM     20  C   UNL     1       4.521   4.220  17.914  0.00  0.00    +0.000 A 
ATOM     21  C   UNL     1       4.794   3.942  16.569  0.00  0.00    +0.000 A 
ATOM     22  C   UNL     1       6.059   4.207  16.041  0.00  0.00    +0.000 A 
ATOM     23 CL   UNL     1       6.374   3.881  14.380  0.00  0.00    +0.000 Cl
ATOM     24  C   UNL     1       7.063   4.745  16.841  0.00  0.00    +0.000 A 
ATOM     25  C   UNL     1       6.794   5.015  18.180  0.00  0.00    +0.000 A 
ATOM     26 CL   UNL     1       8.021   5.689  19.180  0.00  0.00    +0.000 Cl
ATOM     27  C   UNL     1       5.534   4.755  18.720  0.00  0.00    +0.000 A 
ENDBRANCH  19  20
ENDBRANCH  18  19
ENDBRANCH   2  18
TORSDOF 6
ENDMDL
MODEL 6
REMARK VINA RESULT:      -7.5      6.570      8.345
REMARK  Name = 
REMARK  6 active torsions:
REMARK  status: ('A' for Active; 'I' for Inactive)
REMARK    1  A    between atoms: N_1  and  C_2
REMARK    2  A    between atoms: C_3  and  N_4
REMARK    3  A    between atoms: C_5  and  C_7
REMARK    4  A    between atoms: C_7  and  C_8
REMARK    5  A    between atoms: C_8  and  C_9
REMARK    6  A    between atoms: C_21  and  N_22
REMARK                            x       y       z     vdW  Elec       q    Type
REMARK                         _______ _______ _______ _____ _____    ______ ____
ROOT
ATOM      1  N   UNL     1       2.991   7.301  17.597  0.00  0.00    +0.000 N 
ATOM      2  C   UNL     1       2.271   8.048  18.506  0.00  0.00    +0.000 C 
ATOM      3  O   UNL     1       2.202   7.814  19.709  0.00  0.00    +0.000 OA
ATOM      4  H   UNL     1       3.135   7.727  16.688  0.00  0.00    +0.000 HD
ENDROOT
BRANCH   1   6
ATOM      5  C   UNL     1       5.195   6.045  17.568  0.00  0.00    +0.000 A 
ATOM      6  C   UNL     1       3.813   6.173  17.899  0.00  0.00    +0.000 A 
ATOM      7  C   UNL     1       3.160   5.120  18.567  0.00  0.00    +0.000 A 
ATOM      8  C   UNL     1       3.835   3.934  18.861  0.00  0.00    +0.000 A 
ATOM      9 CL   UNL     1       3.005   2.665  19.672  0.00  0.00    +0.000 Cl
ATOM     10  C   UNL     1       5.160   3.763  18.498  0.00  0.00    +0.000 A 
ATOM     11  C   UNL     1       5.840   4.816  17.867  0.00  0.00    +0.000 A 
BRANCH   5  12
ATOM     12  N   UNL     1       5.960   7.200  17.264  0.00  0.00    +0.000 N 
ATOM     13  H   UNL     1       5.397   8.051  17.355  0.00  0.00    +0.000 HD
ATOM     14  H   UNL     1       6.350   7.185  16.317  0.00  0.00    +0.000 HD
ENDBRANCH   5  12
BRANCH  11  15
ATOM     15  N   UNL     1       7.240   4.574  17.469  0.00  0.00    +0.000 N 
ATOM     16  O   UNL     1       8.083   4.374  18.357  0.00  0.00    +0.000 OA
ATOM     17  O   UNL     1       7.510   4.626  16.260  0.00  0.00    +0.000 OA
ENDBRANCH  11  15
ENDBRANCH   1   6
BRANCH   2  18
ATOM     18  C   UNL     1       1.526   9.233  17.912  0.00  0.00    +0.000 C 
BRANCH  18  19
ATOM     19  C   UNL     1       0.700   9.883  19.025  0.00  0.00    +0.000 C 
BRANCH  19  20
ATOM     20  C   UNL     1      -0.642  10.397  18.583  0.00  0.00    +0.000 A 
ATOM     21  C   UNL     1      -1.206   9.965  17.376  0.00  0.00    +0.000 A 
ATOM     22  C   UNL     1      -2.479  10.399  17.002  0.00  0.00    +0.000 A 
ATOM     23 CL   UNL     1      -3.167   9.843  15.526  0.00  0.00    +0.000 Cl
ATOM     24  C   UNL     1      -3.201  11.267  17.816  0.00  0.00    +0.000 A 
ATOM     25  C   UNL     1      -2.638  11.702  19.013  0.00  0.00    +0.000 A 
ATOM     26 CL   UNL     1      -3.523  12.765  20.036  0.00  0.00    +0.000 Cl
ATOM     27  C   UNL     1      -1.367  11.276  19.399  0.00  0.00    +0.000 A 
ENDBRANCH  19  20
ENDBRANCH  18  19
ENDBRANCH   2  18
TORSDOF 6
ENDMDL
MODEL 7
REMARK VINA RESULT:      -7.5      6.390      8.231
REMARK  Name = 
REMARK  6 active torsions:
REMARK  status: ('A' for Active; 'I' for Inactive)
REMARK    1  A    between atoms: N_1  and  C_2
REMARK    2  A    between atoms: C_3  and  N_4
REMARK    3  A    between atoms: C_5  and  C_7
REMARK    4  A    between atoms: C_7  and  C_8
REMARK    5  A    between atoms: C_8  and  C_9
REMARK    6  A    between atoms: C_21  and  N_22
REMARK                            x       y       z     vdW  Elec       q    Type
REMARK                         _______ _______ _______ _____ _____    ______ ____
ROOT
ATOM      1  N   UNL     1       3.059   7.380  17.604  0.00  0.00    +0.000 N 
ATOM      2  C   UNL     1       2.250   8.086  18.469  0.00  0.00    +0.000 C 
ATOM      3  O   UNL     1       1.931   7.714  19.594  0.00  0.00    +0.000 OA
ATOM      4  H   UNL     1       3.413   7.896  16.806  0.00  0.00    +0.000 HD
ENDROOT
BRANCH   1   6
ATOM      5  C   UNL     1       3.035   4.911  18.190  0.00  0.00    +0.000 A 
ATOM      6  C   UNL     1       3.701   6.134  17.880  0.00  0.00    +0.000 A 
ATOM      7  C   UNL     1       5.108   6.167  17.845  0.00  0.00    +0.000 A 
ATOM      8  C   UNL     1       5.857   5.032  18.160  0.00  0.00    +0.000 A 
ATOM      9 CL   UNL     1       7.575   5.110  18.114  0.00  0.00    +0.000 Cl
ATOM     10  C   UNL     1       5.234   3.849  18.521  0.00  0.00    +0.000 A 
ATOM     11  C   UNL     1       3.832   3.785  18.523  0.00  0.00    +0.000 A 
BRANCH   5  12
ATOM     12  N   UNL     1       1.666   4.746  17.855  0.00  0.00    +0.000 N 
ATOM     13  H   UNL     1       1.399   5.359  17.079  0.00  0.00    +0.000 HD
ATOM     14  H   UNL     1       1.036   4.943  18.639  0.00  0.00    +0.000 HD
ENDBRANCH   5  12
BRANCH  11  15
ATOM     15  N   UNL     1       3.215   2.514  18.947  0.00  0.00    +0.000 N 
ATOM     16  O   UNL     1       3.516   1.475  18.337  0.00  0.00    +0.000 OA
ATOM     17  O   UNL     1       2.390   2.557  19.871  0.00  0.00    +0.000 OA
ENDBRANCH  11  15
ENDBRANCH   1   6
BRANCH   2  18
ATOM     18  C   UNL     1       1.745   9.415  17.929  0.00  0.00    +0.000 C 
BRANCH  18  19
ATOM     19  C   UNL     1       0.983  10.126  19.052  0.00  0.00    +0.000 C 
BRANCH  19  20
ATOM     20  C   UNL     1      -0.439  10.478  18.710  0.00  0.00    +0.000 A 
ATOM     21  C   UNL     1      -1.170  11.350  19.527  0.00  0.00    +0.000 A 
ATOM     22  C   UNL     1      -2.468  11.721  19.171  0.00  0.00    +0.000 A 
ATOM     23 CL   UNL     1      -3.347  12.810  20.173  0.00  0.00    +0.000 Cl
ATOM     24  C   UNL     1      -3.053  11.228  18.008  0.00  0.00    +0.000 A 
ATOM     25  C   UNL     1      -2.329  10.356  17.200  0.00  0.00    +0.000 A 
ATOM     26 CL   UNL     1      -3.034   9.747  15.753  0.00  0.00    +0.000 Cl
ATOM     27  C   UNL     1      -1.031   9.978  17.543  0.00  0.00    +0.000 A 
ENDBRANCH  19  20
ENDBRANCH  18  19
ENDBRANCH   2  18
TORSDOF 6
ENDMDL
MODEL 8
REMARK VINA RESULT:      -7.4      6.394      8.057
REMARK  Name = 
REMARK  6 active torsions:
REMARK  status: ('A' for Active; 'I' for Inactive)
REMARK    1  A    between atoms: N_1  and  C_2
REMARK    2  A    between atoms: C_3  and  N_4
REMARK    3  A    between atoms: C_5  and  C_7
REMARK    4  A    between atoms: C_7  and  C_8
REMARK    5  A    between atoms: C_8  and  C_9
REMARK    6  A    between atoms: C_21  and  N_22
REMARK                            x       y       z     vdW  Elec       q    Type
REMARK                         _______ _______ _______ _____ _____    ______ ____
ROOT
ATOM      1  N   UNL     1       3.074   7.381  17.644  0.00  0.00    +0.000 N 
ATOM      2  C   UNL     1       2.262   8.066  18.522  0.00  0.00    +0.000 C 
ATOM      3  O   UNL     1       1.950   7.673  19.642  0.00  0.00    +0.000 OA
ATOM      4  H   UNL     1       3.421   7.913  16.853  0.00  0.00    +0.000 HD
ENDROOT
BRANCH   1   6
ATOM      5  C   UNL     1       3.078   4.905  18.197  0.00  0.00    +0.000 A 
ATOM      6  C   UNL     1       3.730   6.137  17.899  0.00  0.00    +0.000 A 
ATOM      7  C   UNL     1       5.136   6.184  17.853  0.00  0.00    +0.000 A 
ATOM      8  C   UNL     1       5.898   5.052  18.148  0.00  0.00    +0.000 A 
ATOM      9 CL   UNL     1       7.614   5.146  18.089  0.00  0.00    +0.000 Cl
ATOM     10  C   UNL     1       5.289   3.859  18.497  0.00  0.00    +0.000 A 
ATOM     11  C   UNL     1       3.888   3.781  18.510  0.00  0.00    +0.000 A 
BRANCH   5  12
ATOM     12  N   UNL     1       1.708   4.732  17.871  0.00  0.00    +0.000 N 
ATOM     13  H   UNL     1       1.599   4.299  16.949  0.00  0.00    +0.000 HD
ATOM     14  H   UNL     1       1.183   5.611  17.866  0.00  0.00    +0.000 HD
ENDBRANCH   5  12
BRANCH  11  15
ATOM     15  N   UNL     1       3.285   2.499  18.922  0.00  0.00    +0.000 N 
ATOM     16  O   UNL     1       3.538   1.483  18.254  0.00  0.00    +0.000 OA
ATOM     17  O   UNL     1       2.519   2.512  19.896  0.00  0.00    +0.000 OA
ENDBRANCH  11  15
ENDBRANCH   1   6
BRANCH   2  18
ATOM     18  C   UNL     1       1.741   9.398  18.005  0.00  0.00    +0.000 C 
BRANCH  18  19
ATOM     19  C   UNL     1       0.925  10.056  19.121  0.00  0.00    +0.000 C 
BRANCH  19  20
ATOM     20  C   UNL     1      -0.450  10.501  18.704  0.00  0.00    +0.000 A 
ATOM     21  C   UNL     1      -1.034  10.001  17.533  0.00  0.00    +0.000 A 
ATOM     22  C   UNL     1      -2.334  10.371  17.185  0.00  0.00    +0.000 A 
ATOM     23 CL   UNL     1      -3.047   9.732  15.754  0.00  0.00    +0.000 Cl
ATOM     24  C   UNL     1      -3.064  11.242  17.989  0.00  0.00    +0.000 A 
ATOM     25  C   UNL     1      -2.481  11.745  19.149  0.00  0.00    +0.000 A 
ATOM     26 CL   UNL     1      -3.374  12.814  20.160  0.00  0.00    +0.000 Cl
ATOM     27  C   UNL     1      -1.183  11.383  19.509  0.00  0.00    +0.000 A 
ENDBRANCH  19  20
ENDBRANCH  18  19
ENDBRANCH   2  18
TORSDOF 6
ENDMDL
MODEL 9
REMARK VINA RESULT:      -7.4      5.250      7.561
REMARK  Name = 
REMARK  6 active torsions:
REMARK  status: ('A' for Active; 'I' for Inactive)
REMARK    1  A    between atoms: N_1  and  C_2
REMARK    2  A    between atoms: C_3  and  N_4
REMARK    3  A    between atoms: C_5  and  C_7
REMARK    4  A    between atoms: C_7  and  C_8
REMARK    5  A    between atoms: C_8  and  C_9
REMARK    6  A    between atoms: C_21  and  N_22
REMARK                            x       y       z     vdW  Elec       q    Type
REMARK                         _______ _______ _______ _____ _____    ______ ____
ROOT
ATOM      1  N   UNL     1       4.815   5.499  17.922  0.00  0.00    +0.000 N 
ATOM      2  C   UNL     1       6.175   5.407  18.124  0.00  0.00    +0.000 C 
ATOM      3  O   UNL     1       6.720   5.346  19.223  0.00  0.00    +0.000 OA
ATOM      4  H   UNL     1       4.493   5.323  16.977  0.00  0.00    +0.000 HD
ENDROOT
BRANCH   1   6
ATOM      5  C   UNL     1       3.407   4.340  19.687  0.00  0.00    +0.000 A 
ATOM      6  C   UNL     1       3.810   5.485  18.938  0.00  0.00    +0.000 A 
ATOM      7  C   UNL     1       3.186   6.724  19.177  0.00  0.00    +0.000 A 
ATOM      8  C   UNL     1       2.144   6.833  20.098  0.00  0.00    +0.000 A 
ATOM      9 CL   UNL     1       1.399   8.361  20.360  0.00  0.00    +0.000 Cl
ATOM     10  C   UNL     1       1.695   5.724  20.795  0.00  0.00    +0.000 A 
ATOM     11  C   UNL     1       2.330   4.488  20.601  0.00  0.00    +0.000 A 
BRANCH   5  12
ATOM     12  N   UNL     1       4.255   3.205  19.756  0.00  0.00    +0.000 N 
ATOM     13  H   UNL     1       3.717   2.337  19.673  0.00  0.00    +0.000 HD
ATOM     14  H   UNL     1       4.791   3.157  20.628  0.00  0.00    +0.000 HD
ENDBRANCH   5  12
BRANCH  11  15
ATOM     15  N   UNL     1       1.794   3.329  21.339  0.00  0.00    +0.000 N 
ATOM     16  O   UNL     1       2.431   2.901  22.315  0.00  0.00    +0.000 OA
ATOM     17  O   UNL     1       0.748   2.814  20.918  0.00  0.00    +0.000 OA
ENDBRANCH  11  15
ENDBRANCH   1   6
BRANCH   2  18
ATOM     18  C   UNL     1       7.010   5.389  16.853  0.00  0.00    +0.000 C 
BRANCH  18  19
ATOM     19  C   UNL     1       6.697   4.095  16.096  0.00  0.00    +0.000 C 
BRANCH  19  20
ATOM     20  C   UNL     1       6.755   4.222  14.599  0.00  0.00    +0.000 A 
ATOM     21  C   UNL     1       7.551   5.207  14.000  0.00  0.00    +0.000 A 
ATOM     22  C   UNL     1       7.649   5.280  12.610  0.00  0.00    +0.000 A 
ATOM     23 CL   UNL     1       8.649   6.481  11.888  0.00  0.00    +0.000 Cl
ATOM     24  C   UNL     1       6.955   4.383  11.801  0.00  0.00    +0.000 A 
ATOM     25  C   UNL     1       6.158   3.409  12.396  0.00  0.00    +0.000 A 
ATOM     26 CL   UNL     1       5.303   2.286  11.411  0.00  0.00    +0.000 Cl
ATOM     27  C   UNL     1       6.052   3.325  13.784  0.00  0.00    +0.000 A 
ENDBRANCH  19  20
ENDBRANCH  18  19
ENDBRANCH   2  18
TORSDOF 6
ENDMDL
