MODEL 1
REMARK VINA RESULT:      -9.1      0.000      0.000
REMARK  Name = 
REMARK  6 active torsions:
REMARK  status: ('A' for Active; 'I' for Inactive)
REMARK    1  A    between atoms: C_1  and  O_2
REMARK    2  A    between atoms: O_2  and  C_3
REMARK    3  A    between atoms: C_6  and  N_7
REMARK    4  A    between atoms: N_7  and  C_8
REMARK    5  A    between atoms: C_14  and  C_15
REMARK    6  A    between atoms: C_20  and  C_21
REMARK                            x       y       z     vdW  Elec       q    Type
REMARK                         _______ _______ _______ _____ _____    ______ ____
ROOT
ATOM      1  C   UNL     1       2.249   6.192  19.264  0.00  0.00    +0.000 C 
ATOM      2  C   UNL     1       1.478   5.905  20.565  0.00  0.00    +0.000 C 
ATOM      3  C   UNL     1       0.832   4.530  20.527  0.00  0.00    +0.000 C 
ATOM      4  C   UNL     1       1.812   3.563  21.040  0.00  0.00    +0.000 A 
ATOM      5  N   UNL     1       1.705   2.842  22.129  0.00  0.00    +0.000 NA
ATOM      6  N   UNL     1       2.786   2.011  22.187  0.00  0.00    +0.000 NA
ATOM      7  C   UNL     1       3.535   2.230  21.125  0.00  0.00    +0.000 A 
ATOM      8  C   UNL     1       4.797   1.494  20.845  0.00  0.00    +0.000 C 
ATOM      9  N   UNL     1       2.971   3.267  20.374  0.00  0.00    +0.000 N 
ATOM     10  C   UNL     1       3.408   3.814  19.133  0.00  0.00    +0.000 A 
ATOM     11  C   UNL     1       3.938   2.855  18.265  0.00  0.00    +0.000 A 
ATOM     12  C   UNL     1       4.532   3.208  17.075  0.00  0.00    +0.000 A 
ATOM     13  C   UNL     1       4.693   4.547  16.710  0.00  0.00    +0.000 A 
ATOM     14  C   UNL     1       3.996   5.510  17.492  0.00  0.00    +0.000 A 
ATOM     15  C   UNL     1       3.284   5.172  18.703  0.00  0.00    +0.000 A 
ENDROOT
BRANCH  13  16
ATOM     16  C   UNL     1       5.555   4.783  15.523  0.00  0.00    +0.000 A 
ATOM     17  C   UNL     1       5.341   4.262  14.249  0.00  0.00    +0.000 A 
ATOM     18  C   UNL     1       6.332   4.418  13.258  0.00  0.00    +0.000 A 
ATOM     19  C   UNL     1       7.516   5.086  13.550  0.00  0.00    +0.000 A 
ATOM     20  N   UNL     1       8.526   5.226  12.606  0.00  0.00    +0.000 N 
ATOM     21  N   UNL     1       7.737   5.647  14.740  0.00  0.00    +0.000 NA
ATOM     22  C   UNL     1       6.765   5.490  15.675  0.00  0.00    +0.000 A 
ATOM     23  H   UNL     1       8.828   4.323  12.240  0.00  0.00    +0.000 HD
ATOM     24  H   UNL     1       9.306   5.699  13.082  0.00  0.00    +0.000 HD
ENDBRANCH  13  16
BRANCH   1  25
ATOM     25  N   UNL     1       2.528   7.647  19.175  0.00  0.00    +0.000 N 
ATOM     26  H   UNL     1       3.255   7.811  18.479  0.00  0.00    +0.000 HD
BRANCH  25  30
ATOM     27  C   UNL     1      -0.670  10.397  19.185  0.00  0.00    +0.000 A 
ATOM     28  C   UNL     1      -0.021  10.078  17.993  0.00  0.00    +0.000 A 
ATOM     29  C   UNL     1       1.113   9.244  17.972  0.00  0.00    +0.000 A 
ATOM     30  C   UNL     1       1.622   8.706  19.144  0.00  0.00    +0.000 A 
ATOM     31  C   UNL     1       1.029   9.144  20.353  0.00  0.00    +0.000 A 
ATOM     32  C   UNL     1      -0.099   9.987  20.380  0.00  0.00    +0.000 A 
BRANCH  27  34
ATOM     33  C   UNL     1      -2.403  11.175  17.759  0.00  0.00    +0.000 C 
ATOM     34  O   UNL     1      -1.824  11.120  19.062  0.00  0.00    +0.000 OA
ENDBRANCH  27  34
ENDBRANCH  25  30
ENDBRANCH   1  25
TORSDOF 4
ENDMDL
MODEL 2
REMARK VINA RESULT:      -8.7      0.714      1.115
REMARK  Name = 
REMARK  6 active torsions:
REMARK  status: ('A' for Active; 'I' for Inactive)
REMARK    1  A    between atoms: C_1  and  O_2
REMARK    2  A    between atoms: O_2  and  C_3
REMARK    3  A    between atoms: C_6  and  N_7
REMARK    4  A    between atoms: N_7  and  C_8
REMARK    5  A    between atoms: C_14  and  C_15
REMARK    6  A    between atoms: C_20  and  C_21
REMARK                            x       y       z     vdW  Elec       q    Type
REMARK                         _______ _______ _______ _____ _____    ______ ____
ROOT
ATOM      1  C   UNL     1       2.230   6.134  19.245  0.00  0.00    +0.000 C 
ATOM      2  C   UNL     1       1.460   5.838  20.545  0.00  0.00    +0.000 C 
ATOM      3  C   UNL     1       0.834   4.453  20.509  0.00  0.00    +0.000 C 
ATOM      4  C   UNL     1       1.827   3.503  21.027  0.00  0.00    +0.000 A 
ATOM      5  N   UNL     1       1.728   2.783  22.117  0.00  0.00    +0.000 NA
ATOM      6  N   UNL     1       2.821   1.968  22.180  0.00  0.00    +0.000 NA
ATOM      7  C   UNL     1       3.569   2.196  21.120  0.00  0.00    +0.000 A 
ATOM      8  C   UNL     1       4.843   1.478  20.845  0.00  0.00    +0.000 C 
ATOM      9  N   UNL     1       2.993   3.223  20.364  0.00  0.00    +0.000 N 
ATOM     10  C   UNL     1       3.424   3.773  19.123  0.00  0.00    +0.000 A 
ATOM     11  C   UNL     1       3.971   2.819  18.259  0.00  0.00    +0.000 A 
ATOM     12  C   UNL     1       4.563   3.179  17.070  0.00  0.00    +0.000 A 
ATOM     13  C   UNL     1       4.705   4.518  16.702  0.00  0.00    +0.000 A 
ATOM     14  C   UNL     1       3.992   5.473  17.480  0.00  0.00    +0.000 A 
ATOM     15  C   UNL     1       3.281   5.128  18.690  0.00  0.00    +0.000 A 
ENDROOT
BRANCH  13  16
ATOM     16  C   UNL     1       5.566   4.764  15.517  0.00  0.00    +0.000 A 
ATOM     17  C   UNL     1       5.372   4.225  14.247  0.00  0.00    +0.000 A 
ATOM     18  C   UNL     1       6.364   4.396  13.260  0.00  0.00    +0.000 A 
ATOM     19  C   UNL     1       7.529   5.097  13.550  0.00  0.00    +0.000 A 
ATOM     20  N   UNL     1       8.540   5.254  12.610  0.00  0.00    +0.000 N 
ATOM     21  N   UNL     1       7.729   5.676  14.735  0.00  0.00    +0.000 NA
ATOM     22  C   UNL     1       6.757   5.504  15.667  0.00  0.00    +0.000 A 
ATOM     23  H   UNL     1       8.867   4.355  12.255  0.00  0.00    +0.000 HD
ATOM     24  H   UNL     1       9.305   5.752  13.084  0.00  0.00    +0.000 HD
ENDBRANCH  13  16
BRANCH   1  25
ATOM     25  N   UNL     1       2.487   7.592  19.153  0.00  0.00    +0.000 N 
ATOM     26  H   UNL     1       3.123   7.776  18.377  0.00  0.00    +0.000 HD
BRANCH  25  30
ATOM     27  C   UNL     1       0.259  11.164  19.400  0.00  0.00    +0.000 A 
ATOM     28  C   UNL     1       0.454  10.378  20.535  0.00  0.00    +0.000 A 
ATOM     29  C   UNL     1       1.104   9.131  20.464  0.00  0.00    +0.000 A 
ATOM     30  C   UNL     1       1.579   8.644  19.256  0.00  0.00    +0.000 A 
ATOM     31  C   UNL     1       1.258   9.396  18.099  0.00  0.00    +0.000 A 
ATOM     32  C   UNL     1       0.598  10.639  18.164  0.00  0.00    +0.000 A 
BRANCH  27  34
ATOM     33  C   UNL     1      -0.437  13.237  18.470  0.00  0.00    +0.000 C 
ATOM     34  O   UNL     1      -0.281  12.402  19.617  0.00  0.00    +0.000 OA
ENDBRANCH  27  34
ENDBRANCH  25  30
ENDBRANCH   1  25
TORSDOF 4
ENDMDL
MODEL 3
REMARK VINA RESULT:      -8.6      0.904      1.295
REMARK  Name = 
REMARK  6 active torsions:
REMARK  status: ('A' for Active; 'I' for Inactive)
REMARK    1  A    between atoms: C_1  and  O_2
REMARK    2  A    between atoms: O_2  and  C_3
REMARK    3  A    between atoms: C_6  and  N_7
REMARK    4  A    between atoms: N_7  and  C_8
REMARK    5  A    between atoms: C_14  and  C_15
REMARK    6  A    between atoms: C_20  and  C_21
REMARK                            x       y       z     vdW  Elec       q    Type
REMARK                         _______ _______ _______ _____ _____    ______ ____
ROOT
ATOM      1  C   UNL     1       2.127   6.134  19.275  0.00  0.00    +0.000 C 
ATOM      2  C   UNL     1       1.325   5.817  20.550  0.00  0.00    +0.000 C 
ATOM      3  C   UNL     1       0.728   4.421  20.489  0.00  0.00    +0.000 C 
ATOM      4  C   UNL     1       1.723   3.487  21.031  0.00  0.00    +0.000 A 
ATOM      5  N   UNL     1       1.606   2.759  22.114  0.00  0.00    +0.000 NA
ATOM      6  N   UNL     1       2.712   1.965  22.205  0.00  0.00    +0.000 NA
ATOM      7  C   UNL     1       3.487   2.212  21.169  0.00  0.00    +0.000 A 
ATOM      8  C   UNL     1       4.782   1.520  20.928  0.00  0.00    +0.000 C 
ATOM      9  N   UNL     1       2.913   3.232  20.401  0.00  0.00    +0.000 N 
ATOM     10  C   UNL     1       3.370   3.797  19.176  0.00  0.00    +0.000 A 
ATOM     11  C   UNL     1       3.959   2.860  18.324  0.00  0.00    +0.000 A 
ATOM     12  C   UNL     1       4.579   3.237  17.154  0.00  0.00    +0.000 A 
ATOM     13  C   UNL     1       4.706   4.581  16.797  0.00  0.00    +0.000 A 
ATOM     14  C   UNL     1       3.952   5.518  17.559  0.00  0.00    +0.000 A 
ATOM     15  C   UNL     1       3.213   5.152  18.746  0.00  0.00    +0.000 A 
ENDROOT
BRANCH  13  16
ATOM     16  C   UNL     1       5.597   4.850  15.639  0.00  0.00    +0.000 A 
ATOM     17  C   UNL     1       5.498   4.254  14.384  0.00  0.00    +0.000 A 
ATOM     18  C   UNL     1       6.515   4.465  13.432  0.00  0.00    +0.000 A 
ATOM     19  C   UNL     1       7.611   5.262  13.741  0.00  0.00    +0.000 A 
ATOM     20  N   UNL     1       8.648   5.462  12.837  0.00  0.00    +0.000 N 
ATOM     21  N   UNL     1       7.718   5.895  14.911  0.00  0.00    +0.000 NA
ATOM     22  C   UNL     1       6.722   5.682  15.809  0.00  0.00    +0.000 A 
ATOM     23  H   UNL     1       9.055   4.579  12.530  0.00  0.00    +0.000 HD
ATOM     24  H   UNL     1       9.352   6.032  13.323  0.00  0.00    +0.000 HD
ENDBRANCH  13  16
BRANCH   1  25
ATOM     25  N   UNL     1       2.359   7.598  19.198  0.00  0.00    +0.000 N 
ATOM     26  H   UNL     1       2.534   7.863  18.229  0.00  0.00    +0.000 HD
BRANCH  25  30
ATOM     27  C   UNL     1      -0.236  10.262  21.187  0.00  0.00    +0.000 A 
ATOM     28  C   UNL     1      -0.006  10.397  19.819  0.00  0.00    +0.000 A 
ATOM     29  C   UNL     1       0.933   9.589  19.148  0.00  0.00    +0.000 A 
ATOM     30  C   UNL     1       1.658   8.624  19.830  0.00  0.00    +0.000 A 
ATOM     31  C   UNL     1       1.503   8.591  21.237  0.00  0.00    +0.000 A 
ATOM     32  C   UNL     1       0.573   9.405  21.915  0.00  0.00    +0.000 A 
BRANCH  27  34
ATOM     33  C   UNL     1      -1.347  11.078  23.122  0.00  0.00    +0.000 C 
ATOM     34  O   UNL     1      -1.251  11.023  21.699  0.00  0.00    +0.000 OA
ENDBRANCH  27  34
ENDBRANCH  25  30
ENDBRANCH   1  25
TORSDOF 4
ENDMDL
MODEL 4
REMARK VINA RESULT:      -8.1      3.192      7.747
REMARK  Name = 
REMARK  6 active torsions:
REMARK  status: ('A' for Active; 'I' for Inactive)
REMARK    1  A    between atoms: C_1  and  O_2
REMARK    2  A    between atoms: O_2  and  C_3
REMARK    3  A    between atoms: C_6  and  N_7
REMARK    4  A    between atoms: N_7  and  C_8
REMARK    5  A    between atoms: C_14  and  C_15
REMARK    6  A    between atoms: C_20  and  C_21
REMARK                            x       y       z     vdW  Elec       q    Type
REMARK                         _______ _______ _______ _____ _____    ______ ____
ROOT
ATOM      1  C   UNL     1       4.999   5.783  17.496  0.00  0.00    +0.000 C 
ATOM      2  C   UNL     1       5.563   4.385  17.806  0.00  0.00    +0.000 C 
ATOM      3  C   UNL     1       5.656   4.151  19.305  0.00  0.00    +0.000 C 
ATOM      4  C   UNL     1       4.371   3.597  19.750  0.00  0.00    +0.000 A 
ATOM      5  N   UNL     1       4.165   2.407  20.258  0.00  0.00    +0.000 NA
ATOM      6  N   UNL     1       2.853   2.330  20.623  0.00  0.00    +0.000 NA
ATOM      7  C   UNL     1       2.276   3.480  20.341  0.00  0.00    +0.000 A 
ATOM      8  C   UNL     1       0.842   3.768  20.614  0.00  0.00    +0.000 C 
ATOM      9  N   UNL     1       3.209   4.321  19.724  0.00  0.00    +0.000 N 
ATOM     10  C   UNL     1       3.050   5.667  19.285  0.00  0.00    +0.000 A 
ATOM     11  C   UNL     1       2.235   6.427  20.128  0.00  0.00    +0.000 A 
ATOM     12  C   UNL     1       1.856   7.710  19.801  0.00  0.00    +0.000 A 
ATOM     13  C   UNL     1       2.214   8.286  18.580  0.00  0.00    +0.000 A 
ATOM     14  C   UNL     1       3.189   7.594  17.808  0.00  0.00    +0.000 A 
ATOM     15  C   UNL     1       3.682   6.282  18.160  0.00  0.00    +0.000 A 
ENDROOT
BRANCH  13  16
ATOM     16  C   UNL     1       1.543   9.574  18.264  0.00  0.00    +0.000 A 
ATOM     17  C   UNL     1       2.173  10.812  18.158  0.00  0.00    +0.000 A 
ATOM     18  C   UNL     1       1.395  11.980  18.031  0.00  0.00    +0.000 A 
ATOM     19  C   UNL     1       0.007  11.899  18.013  0.00  0.00    +0.000 A 
ATOM     20  N   UNL     1      -0.790  13.034  17.923  0.00  0.00    +0.000 N 
ATOM     21  N   UNL     1      -0.634  10.730  18.056  0.00  0.00    +0.000 NA
ATOM     22  C   UNL     1       0.137   9.618  18.171  0.00  0.00    +0.000 A 
ATOM     23  H   UNL     1      -0.585  13.698  18.670  0.00  0.00    +0.000 HD
ATOM     24  H   UNL     1      -1.765  12.713  17.987  0.00  0.00    +0.000 HD
ENDBRANCH  13  16
BRANCH   1  25
ATOM     25  N   UNL     1       5.281   6.117  16.078  0.00  0.00    +0.000 N 
ATOM     26  H   UNL     1       5.720   7.036  16.026  0.00  0.00    +0.000 HD
BRANCH  25  30
ATOM     27  C   UNL     1       6.797   4.159  12.664  0.00  0.00    +0.000 A 
ATOM     28  C   UNL     1       5.564   3.786  13.198  0.00  0.00    +0.000 A 
ATOM     29  C   UNL     1       5.080   4.349  14.394  0.00  0.00    +0.000 A 
ATOM     30  C   UNL     1       5.816   5.302  15.082  0.00  0.00    +0.000 A 
ATOM     31  C   UNL     1       7.118   5.571  14.593  0.00  0.00    +0.000 A 
ATOM     32  C   UNL     1       7.612   5.002  13.403  0.00  0.00    +0.000 A 
BRANCH  27  34
ATOM     33  C   UNL     1       7.161   2.203  11.365  0.00  0.00    +0.000 C 
ATOM     34  O   UNL     1       7.104   3.627  11.442  0.00  0.00    +0.000 OA
ENDBRANCH  27  34
ENDBRANCH  25  30
ENDBRANCH   1  25
TORSDOF 4
ENDMDL
MODEL 5
REMARK VINA RESULT:      -7.8      3.233      7.739
REMARK  Name = 
REMARK  6 active torsions:
REMARK  status: ('A' for Active; 'I' for Inactive)
REMARK    1  A    between atoms: C_1  and  O_2
REMARK    2  A    between atoms: O_2  and  C_3
REMARK    3  A    between atoms: C_6  and  N_7
REMARK    4  A    between atoms: N_7  and  C_8
REMARK    5  A    between atoms: C_14  and  C_15
REMARK    6  A    between atoms: C_20  and  C_21
REMARK                            x       y       z     vdW  Elec       q    Type
REMARK                         _______ _______ _______ _____ _____    ______ ____
ROOT
ATOM      1  C   UNL     1       5.093   5.919  17.290  0.00  0.00    +0.000 C 
ATOM      2  C   UNL     1       5.623   4.485  17.461  0.00  0.00    +0.000 C 
ATOM      3  C   UNL     1       5.671   4.089  18.928  0.00  0.00    +0.000 C 
ATOM      4  C   UNL     1       4.364   3.516  19.277  0.00  0.00    +0.000 A 
ATOM      5  N   UNL     1       4.124   2.282  19.647  0.00  0.00    +0.000 NA
ATOM      6  N   UNL     1       2.801   2.192  19.967  0.00  0.00    +0.000 NA
ATOM      7  C   UNL     1       2.252   3.378  19.797  0.00  0.00    +0.000 A 
ATOM      8  C   UNL     1       0.816   3.663  20.062  0.00  0.00    +0.000 C 
ATOM      9  N   UNL     1       3.216   4.261  19.299  0.00  0.00    +0.000 N 
ATOM     10  C   UNL     1       3.092   5.650  19.005  0.00  0.00    +0.000 A 
ATOM     11  C   UNL     1       2.267   6.331  19.904  0.00  0.00    +0.000 A 
ATOM     12  C   UNL     1       1.919   7.649  19.708  0.00  0.00    +0.000 A 
ATOM     13  C   UNL     1       2.321   8.346  18.568  0.00  0.00    +0.000 A 
ATOM     14  C   UNL     1       3.305   7.722  17.750  0.00  0.00    +0.000 A 
ATOM     15  C   UNL     1       3.766   6.370  17.970  0.00  0.00    +0.000 A 
ENDROOT
BRANCH  13  16
ATOM     16  C   UNL     1       1.682   9.674  18.376  0.00  0.00    +0.000 A 
ATOM     17  C   UNL     1       2.348  10.859  18.074  0.00  0.00    +0.000 A 
ATOM     18  C   UNL     1       1.643  12.079  18.096  0.00  0.00    +0.000 A 
ATOM     19  C   UNL     1       0.290  12.101  18.418  0.00  0.00    +0.000 A 
ATOM     20  N   UNL     1      -0.426  13.291  18.482  0.00  0.00    +0.000 N 
ATOM     21  N   UNL     1      -0.398  10.984  18.659  0.00  0.00    +0.000 NA
ATOM     22  C   UNL     1       0.302   9.821  18.625  0.00  0.00    +0.000 A 
ATOM     23  H   UNL     1      -0.000  13.952  19.132  0.00  0.00    +0.000 HD
ATOM     24  H   UNL     1      -1.375  13.043  18.792  0.00  0.00    +0.000 HD
ENDBRANCH  13  16
BRANCH   1  25
ATOM     25  N   UNL     1       5.419   6.399  15.924  0.00  0.00    +0.000 N 
ATOM     26  H   UNL     1       6.055   7.194  15.987  0.00  0.00    +0.000 HD
BRANCH  25  30
ATOM     27  C   UNL     1       6.380   3.620  12.901  0.00  0.00    +0.000 A 
ATOM     28  C   UNL     1       7.344   4.516  13.363  0.00  0.00    +0.000 A 
ATOM     29  C   UNL     1       7.025   5.522  14.296  0.00  0.00    +0.000 A 
ATOM     30  C   UNL     1       5.737   5.651  14.792  0.00  0.00    +0.000 A 
ATOM     31  C   UNL     1       4.749   4.816  14.215  0.00  0.00    +0.000 A 
ATOM     32  C   UNL     1       5.060   3.816  13.273  0.00  0.00    +0.000 A 
BRANCH  27  34
ATOM     33  C   UNL     1       5.844   1.813  11.455  0.00  0.00    +0.000 C 
ATOM     34  O   UNL     1       6.837   2.621  12.087  0.00  0.00    +0.000 OA
ENDBRANCH  27  34
ENDBRANCH  25  30
ENDBRANCH   1  25
TORSDOF 4
ENDMDL
MODEL 6
REMARK VINA RESULT:      -7.8      5.544     11.907
REMARK  Name = 
REMARK  6 active torsions:
REMARK  status: ('A' for Active; 'I' for Inactive)
REMARK    1  A    between atoms: C_1  and  O_2
REMARK    2  A    between atoms: O_2  and  C_3
REMARK    3  A    between atoms: C_6  and  N_7
REMARK    4  A    between atoms: N_7  and  C_8
REMARK    5  A    between atoms: C_14  and  C_15
REMARK    6  A    between atoms: C_20  and  C_21
REMARK                            x       y       z     vdW  Elec       q    Type
REMARK                         _______ _______ _______ _____ _____    ______ ____
ROOT
ATOM      1  C   UNL     1      -1.858  11.178  19.212  0.00  0.00    +0.000 C 
ATOM      2  C   UNL     1      -2.365  10.666  17.852  0.00  0.00    +0.000 C 
ATOM      3  C   UNL     1      -3.786  10.135  17.962  0.00  0.00    +0.000 C 
ATOM      4  C   UNL     1      -4.701  11.262  17.741  0.00  0.00    +0.000 A 
ATOM      5  N   UNL     1      -5.547  11.401  16.750  0.00  0.00    +0.000 NA
ATOM      6  N   UNL     1      -6.268  12.538  16.972  0.00  0.00    +0.000 NA
ATOM      7  C   UNL     1      -5.856  13.075  18.103  0.00  0.00    +0.000 A 
ATOM      8  C   UNL     1      -6.426  14.326  18.673  0.00  0.00    +0.000 C 
ATOM      9  N   UNL     1      -4.802  12.311  18.616  0.00  0.00    +0.000 N 
ATOM     10  C   UNL     1      -4.078  12.484  19.830  0.00  0.00    +0.000 A 
ATOM     11  C   UNL     1      -4.875  12.933  20.887  0.00  0.00    +0.000 A 
ATOM     12  C   UNL     1      -4.331  13.285  22.102  0.00  0.00    +0.000 A 
ATOM     13  C   UNL     1      -2.951  13.274  22.313  0.00  0.00    +0.000 A 
ATOM     14  C   UNL     1      -2.157  12.646  21.313  0.00  0.00    +0.000 A 
ATOM     15  C   UNL     1      -2.699  12.180  20.057  0.00  0.00    +0.000 A 
ENDROOT
BRANCH  13  16
ATOM     16  C   UNL     1      -2.497  13.899  23.582  0.00  0.00    +0.000 A 
ATOM     17  C   UNL     1      -3.301  14.164  24.689  0.00  0.00    +0.000 A 
ATOM     18  C   UNL     1      -2.784  14.923  25.758  0.00  0.00    +0.000 A 
ATOM     19  C   UNL     1      -1.481  15.405  25.710  0.00  0.00    +0.000 A 
ATOM     20  N   UNL     1      -0.952  16.185  26.732  0.00  0.00    +0.000 N 
ATOM     21  N   UNL     1      -0.661  15.128  24.695  0.00  0.00    +0.000 NA
ATOM     22  C   UNL     1      -1.179  14.389  23.680  0.00  0.00    +0.000 A 
ATOM     23  H   UNL     1      -1.523  17.012  26.908  0.00  0.00    +0.000 HD
ATOM     24  H   UNL     1      -0.008  16.458  26.433  0.00  0.00    +0.000 HD
ENDBRANCH  13  16
BRANCH   1  25
ATOM     25  N   UNL     1      -0.382  11.321  19.157  0.00  0.00    +0.000 N 
ATOM     26  H   UNL     1      -0.097  12.125  19.716  0.00  0.00    +0.000 HD
BRANCH  25  30
ATOM     27  C   UNL     1       2.143   7.942  19.144  0.00  0.00    +0.000 A 
ATOM     28  C   UNL     1       1.525   8.352  20.324  0.00  0.00    +0.000 A 
ATOM     29  C   UNL     1       0.761   9.534  20.383  0.00  0.00    +0.000 A 
ATOM     30  C   UNL     1       0.593  10.329  19.260  0.00  0.00    +0.000 A 
ATOM     31  C   UNL     1       1.332   9.964  18.108  0.00  0.00    +0.000 A 
ATOM     32  C   UNL     1       2.107   8.789  18.048  0.00  0.00    +0.000 A 
BRANCH  27  34
ATOM     33  C   UNL     1       3.473   6.330  18.013  0.00  0.00    +0.000 C 
ATOM     34  O   UNL     1       2.760   6.722  19.186  0.00  0.00    +0.000 OA
ENDBRANCH  27  34
ENDBRANCH  25  30
ENDBRANCH   1  25
TORSDOF 4
ENDMDL
MODEL 7
REMARK VINA RESULT:      -7.7      8.553     11.588
REMARK  Name = 
REMARK  6 active torsions:
REMARK  status: ('A' for Active; 'I' for Inactive)
REMARK    1  A    between atoms: C_1  and  O_2
REMARK    2  A    between atoms: O_2  and  C_3
REMARK    3  A    between atoms: C_6  and  N_7
REMARK    4  A    between atoms: N_7  and  C_8
REMARK    5  A    between atoms: C_14  and  C_15
REMARK    6  A    between atoms: C_20  and  C_21
REMARK                            x       y       z     vdW  Elec       q    Type
REMARK                         _______ _______ _______ _____ _____    ______ ____
ROOT
ATOM      1  C   UNL     1       8.226  16.153  19.639  0.00  0.00    +0.000 C 
ATOM      2  C   UNL     1       8.885  16.604  18.324  0.00  0.00    +0.000 C 
ATOM      3  C   UNL     1      10.388  16.380  18.358  0.00  0.00    +0.000 C 
ATOM      4  C   UNL     1      10.647  15.017  17.877  0.00  0.00    +0.000 A 
ATOM      5  N   UNL     1      11.300  14.680  16.793  0.00  0.00    +0.000 NA
ATOM      6  N   UNL     1      11.393  13.319  16.767  0.00  0.00    +0.000 NA
ATOM      7  C   UNL     1      10.802  12.843  17.844  0.00  0.00    +0.000 A 
ATOM      8  C   UNL     1      10.717  11.391  18.160  0.00  0.00    +0.000 C 
ATOM      9  N   UNL     1      10.254  13.904  18.573  0.00  0.00    +0.000 N 
ATOM     10  C   UNL     1       9.564  13.874  19.819  0.00  0.00    +0.000 A 
ATOM     11  C   UNL     1      10.074  12.923  20.707  0.00  0.00    +0.000 A 
ATOM     12  C   UNL     1       9.457  12.653  21.907  0.00  0.00    +0.000 A 
ATOM     13  C   UNL     1       8.256  13.270  22.264  0.00  0.00    +0.000 A 
ATOM     14  C   UNL     1       7.835  14.364  21.457  0.00  0.00    +0.000 A 
ATOM     15  C   UNL     1       8.505  14.740  20.233  0.00  0.00    +0.000 A 
ENDROOT
BRANCH  13  16
ATOM     16  C   UNL     1       7.588  12.712  23.468  0.00  0.00    +0.000 A 
ATOM     17  C   UNL     1       8.160  12.599  24.734  0.00  0.00    +0.000 A 
ATOM     18  C   UNL     1       7.480  11.888  25.743  0.00  0.00    +0.000 A 
ATOM     19  C   UNL     1       6.248  11.302  25.480  0.00  0.00    +0.000 A 
ATOM     20  N   UNL     1       5.568  10.565  26.443  0.00  0.00    +0.000 N 
ATOM     21  N   UNL     1       5.640  11.433  24.299  0.00  0.00    +0.000 NA
ATOM     22  C   UNL     1       6.311  12.128  23.345  0.00  0.00    +0.000 A 
ATOM     23  H   UNL     1       6.139   9.802  26.806  0.00  0.00    +0.000 HD
ATOM     24  H   UNL     1       4.724  10.196  25.986  0.00  0.00    +0.000 HD
ENDBRANCH  13  16
BRANCH   1  25
ATOM     25  N   UNL     1       6.861  16.729  19.722  0.00  0.00    +0.000 N 
ATOM     26  H   UNL     1       6.909  17.738  19.584  0.00  0.00    +0.000 HD
BRANCH  25  30
ATOM     27  C   UNL     1       3.213  14.949  18.575  0.00  0.00    +0.000 A 
ATOM     28  C   UNL     1       4.410  14.536  17.991  0.00  0.00    +0.000 A 
ATOM     29  C   UNL     1       5.629  15.181  18.277  0.00  0.00    +0.000 A 
ATOM     30  C   UNL     1       5.679  16.250  19.158  0.00  0.00    +0.000 A 
ATOM     31  C   UNL     1       4.438  16.734  19.639  0.00  0.00    +0.000 A 
ATOM     32  C   UNL     1       3.214  16.100  19.348  0.00  0.00    +0.000 A 
BRANCH  27  34
ATOM     33  C   UNL     1       0.885  14.592  18.890  0.00  0.00    +0.000 C 
ATOM     34  O   UNL     1       2.119  14.174  18.307  0.00  0.00    +0.000 OA
ENDBRANCH  27  34
ENDBRANCH  25  30
ENDBRANCH   1  25
TORSDOF 4
ENDMDL
MODEL 8
REMARK VINA RESULT:      -7.5      6.326     10.594
REMARK  Name = 
REMARK  6 active torsions:
REMARK  status: ('A' for Active; 'I' for Inactive)
REMARK    1  A    between atoms: C_1  and  O_2
REMARK    2  A    between atoms: O_2  and  C_3
REMARK    3  A    between atoms: C_6  and  N_7
REMARK    4  A    between atoms: N_7  and  C_8
REMARK    5  A    between atoms: C_14  and  C_15
REMARK    6  A    between atoms: C_20  and  C_21
REMARK                            x       y       z     vdW  Elec       q    Type
REMARK                         _______ _______ _______ _____ _____    ______ ____
ROOT
ATOM      1  C   UNL     1      -2.044  13.026  22.136  0.00  0.00    +0.000 C 
ATOM      2  C   UNL     1      -2.389  13.659  23.496  0.00  0.00    +0.000 C 
ATOM      3  C   UNL     1      -3.370  14.809  23.332  0.00  0.00    +0.000 C 
ATOM      4  C   UNL     1      -4.726  14.248  23.387  0.00  0.00    +0.000 A 
ATOM      5  N   UNL     1      -5.637  14.488  24.298  0.00  0.00    +0.000 NA
ATOM      6  N   UNL     1      -6.781  13.845  23.926  0.00  0.00    +0.000 NA
ATOM      7  C   UNL     1      -6.556  13.226  22.785  0.00  0.00    +0.000 A 
ATOM      8  C   UNL     1      -7.585  12.426  22.068  0.00  0.00    +0.000 C 
ATOM      9  N   UNL     1      -5.218  13.414  22.418  0.00  0.00    +0.000 N 
ATOM     10  C   UNL     1      -4.539  12.968  21.248  0.00  0.00    +0.000 A 
ATOM     11  C   UNL     1      -5.337  13.001  20.102  0.00  0.00    +0.000 A 
ATOM     12  C   UNL     1      -4.901  12.485  18.903  0.00  0.00    +0.000 A 
ATOM     13  C   UNL     1      -3.665  11.844  18.793  0.00  0.00    +0.000 A 
ATOM     14  C   UNL     1      -2.778  11.972  19.899  0.00  0.00    +0.000 A 
ATOM     15  C   UNL     1      -3.165  12.585  21.149  0.00  0.00    +0.000 A 
ENDROOT
BRANCH  13  16
ATOM     16  C   UNL     1      -3.429  11.133  17.509  0.00  0.00    +0.000 A 
ATOM     17  C   UNL     1      -2.455  10.162  17.287  0.00  0.00    +0.000 A 
ATOM     18  C   UNL     1      -2.222   9.699  15.977  0.00  0.00    +0.000 A 
ATOM     19  C   UNL     1      -2.957  10.206  14.912  0.00  0.00    +0.000 A 
ATOM     20  N   UNL     1      -2.729   9.795  13.604  0.00  0.00    +0.000 N 
ATOM     21  N   UNL     1      -3.936  11.095  15.088  0.00  0.00    +0.000 NA
ATOM     22  C   UNL     1      -4.147  11.522  16.360  0.00  0.00    +0.000 A 
ATOM     23  H   UNL     1      -1.756   9.935  13.330  0.00  0.00    +0.000 HD
ATOM     24  H   UNL     1      -3.353  10.354  13.009  0.00  0.00    +0.000 HD
ENDBRANCH  13  16
BRANCH   1  25
ATOM     25  N   UNL     1      -0.825  12.192  22.284  0.00  0.00    +0.000 N 
ATOM     26  H   UNL     1      -0.942  11.556  23.072  0.00  0.00    +0.000 HD
BRANCH  25  30
ATOM     27  C   UNL     1       0.921  10.400  18.889  0.00  0.00    +0.000 A 
ATOM     28  C   UNL     1       0.440   9.609  19.932  0.00  0.00    +0.000 A 
ATOM     29  C   UNL     1      -0.053  10.179  21.121  0.00  0.00    +0.000 A 
ATOM     30  C   UNL     1      -0.081  11.555  21.292  0.00  0.00    +0.000 A 
ATOM     31  C   UNL     1       0.528  12.333  20.278  0.00  0.00    +0.000 A 
ATOM     32  C   UNL     1       1.034  11.766  19.091  0.00  0.00    +0.000 A 
BRANCH  27  34
ATOM     33  C   UNL     1       2.309   8.768  17.862  0.00  0.00    +0.000 C 
ATOM     34  O   UNL     1       1.266   9.734  17.745  0.00  0.00    +0.000 OA
ENDBRANCH  27  34
ENDBRANCH  25  30
ENDBRANCH   1  25
TORSDOF 4
ENDMDL
MODEL 9
REMARK VINA RESULT:      -7.4      5.264     11.345
REMARK  Name = 
REMARK  6 active torsions:
REMARK  status: ('A' for Active; 'I' for Inactive)
REMARK    1  A    between atoms: C_1  and  O_2
REMARK    2  A    between atoms: O_2  and  C_3
REMARK    3  A    between atoms: C_6  and  N_7
REMARK    4  A    between atoms: N_7  and  C_8
REMARK    5  A    between atoms: C_14  and  C_15
REMARK    6  A    between atoms: C_20  and  C_21
REMARK                            x       y       z     vdW  Elec       q    Type
REMARK                         _______ _______ _______ _____ _____    ______ ____
ROOT
ATOM      1  C   UNL     1       1.114  12.204  18.689  0.00  0.00    +0.000 C 
ATOM      2  C   UNL     1       2.513  12.439  18.091  0.00  0.00    +0.000 C 
ATOM      3  C   UNL     1       2.793  13.923  17.918  0.00  0.00    +0.000 C 
ATOM      4  C   UNL     1       3.381  14.415  19.171  0.00  0.00    +0.000 A 
ATOM      5  N   UNL     1       4.589  14.893  19.335  0.00  0.00    +0.000 NA
ATOM      6  N   UNL     1       4.698  15.322  20.626  0.00  0.00    +0.000 NA
ATOM      7  C   UNL     1       3.547  15.108  21.232  0.00  0.00    +0.000 A 
ATOM      8  C   UNL     1       3.289  15.462  22.653  0.00  0.00    +0.000 C 
ATOM      9  N   UNL     1       2.673  14.472  20.343  0.00  0.00    +0.000 N 
ATOM     10  C   UNL     1       1.317  14.086  20.542  0.00  0.00    +0.000 A 
ATOM     11  C   UNL     1       0.596  14.993  21.323  0.00  0.00    +0.000 A 
ATOM     12  C   UNL     1      -0.691  14.728  21.735  0.00  0.00    +0.000 A 
ATOM     13  C   UNL     1      -1.311  13.511  21.447  0.00  0.00    +0.000 A 
ATOM     14  C   UNL     1      -0.659  12.668  20.505  0.00  0.00    +0.000 A 
ATOM     15  C   UNL     1       0.657  12.950  19.977  0.00  0.00    +0.000 A 
ENDROOT
BRANCH  13  16
ATOM     16  C   UNL     1      -2.598  13.272  22.151  0.00  0.00    +0.000 A 
ATOM     17  C   UNL     1      -3.757  14.030  22.002  0.00  0.00    +0.000 A 
ATOM     18  C   UNL     1      -4.851  13.805  22.861  0.00  0.00    +0.000 A 
ATOM     19  C   UNL     1      -4.776  12.833  23.852  0.00  0.00    +0.000 A 
ATOM     20  N   UNL     1      -5.824  12.609  24.737  0.00  0.00    +0.000 N 
ATOM     21  N   UNL     1      -3.707  12.048  23.993  0.00  0.00    +0.000 NA
ATOM     22  C   UNL     1      -2.669  12.279  23.149  0.00  0.00    +0.000 A 
ATOM     23  H   UNL     1      -6.084  13.461  25.236  0.00  0.00    +0.000 HD
ATOM     24  H   UNL     1      -5.500  11.891  25.397  0.00  0.00    +0.000 HD
ENDBRANCH  13  16
BRANCH   1  25
ATOM     25  N   UNL     1       0.731  10.785  18.485  0.00  0.00    +0.000 N 
ATOM     26  H   UNL     1       0.388  10.660  17.533  0.00  0.00    +0.000 HD
BRANCH  25  30
ATOM     27  C   UNL     1       2.327   6.979  19.351  0.00  0.00    +0.000 A 
ATOM     28  C   UNL     1       1.709   7.726  20.353  0.00  0.00    +0.000 A 
ATOM     29  C   UNL     1       1.259   9.040  20.120  0.00  0.00    +0.000 A 
ATOM     30  C   UNL     1       1.413   9.635  18.877  0.00  0.00    +0.000 A 
ATOM     31  C   UNL     1       2.155   8.909  17.914  0.00  0.00    +0.000 A 
ATOM     32  C   UNL     1       2.618   7.598  18.146  0.00  0.00    +0.000 A 
BRANCH  27  34
ATOM     33  C   UNL     1       1.811   5.079  20.681  0.00  0.00    +0.000 C 
ATOM     34  O   UNL     1       2.615   5.680  19.666  0.00  0.00    +0.000 OA
ENDBRANCH  27  34
ENDBRANCH  25  30
ENDBRANCH   1  25
TORSDOF 4
ENDMDL
