MODEL 1
REMARK VINA RESULT:      -7.6      0.000      0.000
REMARK  Name = 
REMARK  7 active torsions:
REMARK  status: ('A' for Active; 'I' for Inactive)
REMARK    1  A    between atoms: C_6  and  O_7
REMARK    2  A    between atoms: O_7  and  C_8
REMARK    3  A    between atoms: C_8  and  C_9
REMARK    4  A    between atoms: C_9  and  C_10
REMARK    5  A    between atoms: C_10  and  N_11
REMARK    6  A    between atoms: N_19  and  C_20
REMARK    7  A    between atoms: C_20  and  C_21
REMARK                            x       y       z     vdW  Elec       q    Type
REMARK                         _______ _______ _______ _____ _____    ______ ____
ROOT
ATOM      1  C   UNL     1       3.001   7.714  17.490  0.00  0.00    +0.000 A 
ATOM      2  C   UNL     1       2.184   8.828  17.684  0.00  0.00    +0.000 A 
ATOM      3  C   UNL     1       1.533   9.057  18.910  0.00  0.00    +0.000 A 
ATOM      4  C   UNL     1       1.736   8.154  19.969  0.00  0.00    +0.000 A 
ATOM      5  C   UNL     1       2.569   7.041  19.754  0.00  0.00    +0.000 A 
ATOM      6  C   UNL     1       3.187   6.810  18.527  0.00  0.00    +0.000 A 
ATOM      7  C   UNL     1       1.181   8.339  21.362  0.00  0.00    +0.000 C 
ATOM      8  C   UNL     1      -0.325   8.618  21.460  0.00  0.00    +0.000 C 
ATOM      9  N   UNL     1      -0.794   9.959  21.070  0.00  0.00    +0.000 NA
ATOM     10  C   UNL     1      -0.692  10.127  19.616  0.00  0.00    +0.000 C 
ATOM     11  C   UNL     1       0.711  10.317  19.027  0.00  0.00    +0.000 C 
ENDROOT
BRANCH   6  12
ATOM     12  O   UNL     1       3.941   5.672  18.481  0.00  0.00    +0.000 OA
BRANCH  12  13
ATOM     13  C   UNL     1       4.103   5.075  17.196  0.00  0.00    +0.000 C 
BRANCH  13  14
ATOM     14  C   UNL     1       4.231   3.572  17.405  0.00  0.00    +0.000 C 
BRANCH  14  15
ATOM     15  C   UNL     1       2.868   2.884  17.481  0.00  0.00    +0.000 C 
BRANCH  15  16
ATOM     16  N   UNL     1       2.403   2.628  18.856  0.00  0.00    +0.000 NA
ATOM     17  C   UNL     1       3.506   2.705  19.829  0.00  0.00    +0.000 C 
ATOM     18  C   UNL     1       3.023   2.422  21.252  0.00  0.00    +0.000 C 
ATOM     19  C   UNL     1       1.894   3.363  21.647  0.00  0.00    +0.000 C 
ATOM     20  C   UNL     1       0.781   3.311  20.609  0.00  0.00    +0.000 C 
ATOM     21  C   UNL     1       1.324   3.569  19.202  0.00  0.00    +0.000 C 
ENDBRANCH  15  16
ENDBRANCH  14  15
ENDBRANCH  13  14
ENDBRANCH  12  13
ENDBRANCH   6  12
BRANCH   9  22
ATOM     22  C   UNL     1      -0.153  11.027  21.871  0.00  0.00    +0.000 C 
BRANCH  22  23
ATOM     23  C   UNL     1      -0.992  11.783  22.926  0.00  0.00    +0.000 C 
ATOM     24  C   UNL     1      -2.446  12.028  22.570  0.00  0.00    +0.000 C 
ATOM     25  C   UNL     1      -2.767  13.249  23.398  0.00  0.00    +0.000 C 
ATOM     26  C   UNL     1      -1.470  14.024  23.358  0.00  0.00    +0.000 C 
ATOM     27  O   UNL     1      -0.416  13.057  23.276  0.00  0.00    +0.000 OA
ENDBRANCH  22  23
ENDBRANCH   9  22
TORSDOF 7
ENDMDL
MODEL 2
REMARK VINA RESULT:      -7.4      1.299      2.218
REMARK  Name = 
REMARK  7 active torsions:
REMARK  status: ('A' for Active; 'I' for Inactive)
REMARK    1  A    between atoms: C_6  and  O_7
REMARK    2  A    between atoms: O_7  and  C_8
REMARK    3  A    between atoms: C_8  and  C_9
REMARK    4  A    between atoms: C_9  and  C_10
REMARK    5  A    between atoms: C_10  and  N_11
REMARK    6  A    between atoms: N_19  and  C_20
REMARK    7  A    between atoms: C_20  and  C_21
REMARK                            x       y       z     vdW  Elec       q    Type
REMARK                         _______ _______ _______ _____ _____    ______ ____
ROOT
ATOM      1  C   UNL     1       2.907   6.338  19.422  0.00  0.00    +0.000 A 
ATOM      2  C   UNL     1       2.079   7.035  20.300  0.00  0.00    +0.000 A 
ATOM      3  C   UNL     1       1.515   8.276  19.951  0.00  0.00    +0.000 A 
ATOM      4  C   UNL     1       1.774   8.807  18.674  0.00  0.00    +0.000 A 
ATOM      5  C   UNL     1       2.606   8.084  17.800  0.00  0.00    +0.000 A 
ATOM      6  C   UNL     1       3.181   6.868  18.168  0.00  0.00    +0.000 A 
ATOM      7  C   UNL     1       1.150  10.073  18.138  0.00  0.00    +0.000 C 
ATOM      8  C   UNL     1       1.262  11.316  19.032  0.00  0.00    +0.000 C 
ATOM      9  N   UNL     1       0.403  11.372  20.227  0.00  0.00    +0.000 NA
ATOM     10  C   UNL     1       0.869  10.406  21.230  0.00  0.00    +0.000 C 
ATOM     11  C   UNL     1       0.597   8.923  20.958  0.00  0.00    +0.000 C 
ENDROOT
BRANCH   6  12
ATOM     12  O   UNL     1       3.982   6.311  17.213  0.00  0.00    +0.000 OA
BRANCH  12  13
ATOM     13  C   UNL     1       4.721   5.156  17.605  0.00  0.00    +0.000 C 
BRANCH  13  14
ATOM     14  C   UNL     1       4.151   3.970  16.838  0.00  0.00    +0.000 C 
BRANCH  14  15
ATOM     15  C   UNL     1       3.788   2.808  17.763  0.00  0.00    +0.000 C 
BRANCH  15  16
ATOM     16  N   UNL     1       3.002   3.207  18.944  0.00  0.00    +0.000 NA
ATOM     17  C   UNL     1       1.569   2.912  18.771  0.00  0.00    +0.000 C 
ATOM     18  C   UNL     1       0.754   3.344  19.991  0.00  0.00    +0.000 C 
ATOM     19  C   UNL     1       1.284   2.698  21.263  0.00  0.00    +0.000 C 
ATOM     20  C   UNL     1       2.775   2.969  21.406  0.00  0.00    +0.000 C 
ATOM     21  C   UNL     1       3.537   2.549  20.147  0.00  0.00    +0.000 C 
ENDBRANCH  15  16
ENDBRANCH  14  15
ENDBRANCH  13  14
ENDBRANCH  12  13
ENDBRANCH   6  12
BRANCH   9  22
ATOM     22  C   UNL     1      -1.034  11.274  19.885  0.00  0.00    +0.000 C 
BRANCH  22  23
ATOM     23  C   UNL     1      -2.020  12.311  20.469  0.00  0.00    +0.000 C 
ATOM     24  C   UNL     1      -1.654  13.768  20.259  0.00  0.00    +0.000 C 
ATOM     25  C   UNL     1      -2.365  14.436  21.413  0.00  0.00    +0.000 C 
ATOM     26  C   UNL     1      -2.240  13.409  22.515  0.00  0.00    +0.000 C 
ATOM     27  O   UNL     1      -2.241  12.124  21.881  0.00  0.00    +0.000 OA
ENDBRANCH  22  23
ENDBRANCH   9  22
TORSDOF 7
ENDMDL
MODEL 3
REMARK VINA RESULT:      -7.2      4.302      8.178
REMARK  Name = 
REMARK  7 active torsions:
REMARK  status: ('A' for Active; 'I' for Inactive)
REMARK    1  A    between atoms: C_6  and  O_7
REMARK    2  A    between atoms: O_7  and  C_8
REMARK    3  A    between atoms: C_8  and  C_9
REMARK    4  A    between atoms: C_9  and  C_10
REMARK    5  A    between atoms: C_10  and  N_11
REMARK    6  A    between atoms: N_19  and  C_20
REMARK    7  A    between atoms: C_20  and  C_21
REMARK                            x       y       z     vdW  Elec       q    Type
REMARK                         _______ _______ _______ _____ _____    ______ ____
ROOT
ATOM      1  C   UNL     1       2.330   7.402  18.715  0.00  0.00    +0.000 A 
ATOM      2  C   UNL     1       3.275   7.485  17.693  0.00  0.00    +0.000 A 
ATOM      3  C   UNL     1       4.440   6.696  17.702  0.00  0.00    +0.000 A 
ATOM      4  C   UNL     1       4.636   5.784  18.754  0.00  0.00    +0.000 A 
ATOM      5  C   UNL     1       3.668   5.710  19.772  0.00  0.00    +0.000 A 
ATOM      6  C   UNL     1       2.531   6.517  19.766  0.00  0.00    +0.000 A 
ATOM      7  C   UNL     1       5.787   4.808  18.829  0.00  0.00    +0.000 C 
ATOM      8  C   UNL     1       7.192   5.401  18.650  0.00  0.00    +0.000 C 
ATOM      9  N   UNL     1       7.591   5.803  17.290  0.00  0.00    +0.000 NA
ATOM     10  C   UNL     1       6.853   7.003  16.880  0.00  0.00    +0.000 C 
ATOM     11  C   UNL     1       5.372   6.831  16.523  0.00  0.00    +0.000 C 
ENDROOT
BRANCH   6  12
ATOM     12  O   UNL     1       1.707   6.337  20.839  0.00  0.00    +0.000 OA
BRANCH  12  13
ATOM     13  C   UNL     1       0.650   5.394  20.671  0.00  0.00    +0.000 C 
BRANCH  13  14
ATOM     14  C   UNL     1       1.257   4.003  20.804  0.00  0.00    +0.000 C 
BRANCH  14  15
ATOM     15  C   UNL     1       0.626   3.005  19.833  0.00  0.00    +0.000 C 
BRANCH  15  16
ATOM     16  N   UNL     1       1.518   2.597  18.733  0.00  0.00    +0.000 NA
ATOM     17  C   UNL     1       1.717   3.683  17.759  0.00  0.00    +0.000 C 
ATOM     18  C   UNL     1       2.629   3.251  16.610  0.00  0.00    +0.000 C 
ATOM     19  C   UNL     1       3.967   2.746  17.131  0.00  0.00    +0.000 C 
ATOM     20  C   UNL     1       3.748   1.657  18.172  0.00  0.00    +0.000 C 
ATOM     21  C   UNL     1       2.804   2.132  19.278  0.00  0.00    +0.000 C 
ENDBRANCH  15  16
ENDBRANCH  14  15
ENDBRANCH  13  14
ENDBRANCH  12  13
ENDBRANCH   6  12
BRANCH   9  22
ATOM     22  C   UNL     1       7.527   4.673  16.335  0.00  0.00    +0.000 C 
BRANCH  22  23
ATOM     23  C   UNL     1       6.883   4.894  14.948  0.00  0.00    +0.000 C 
ATOM     24  C   UNL     1       6.241   3.676  14.311  0.00  0.00    +0.000 C 
ATOM     25  C   UNL     1       6.314   4.020  12.841  0.00  0.00    +0.000 C 
ATOM     26  C   UNL     1       7.628   4.761  12.742  0.00  0.00    +0.000 C 
ATOM     27  O   UNL     1       7.813   5.439  13.991  0.00  0.00    +0.000 OA
ENDBRANCH  22  23
ENDBRANCH   9  22
TORSDOF 7
ENDMDL
MODEL 4
REMARK VINA RESULT:      -7.1      2.592      3.786
REMARK  Name = 
REMARK  7 active torsions:
REMARK  status: ('A' for Active; 'I' for Inactive)
REMARK    1  A    between atoms: C_6  and  O_7
REMARK    2  A    between atoms: O_7  and  C_8
REMARK    3  A    between atoms: C_8  and  C_9
REMARK    4  A    between atoms: C_9  and  C_10
REMARK    5  A    between atoms: C_10  and  N_11
REMARK    6  A    between atoms: N_19  and  C_20
REMARK    7  A    between atoms: C_20  and  C_21
REMARK                            x       y       z     vdW  Elec       q    Type
REMARK                         _______ _______ _______ _____ _____    ______ ____
ROOT
ATOM      1  C   UNL     1       2.823   6.849  18.159  0.00  0.00    +0.000 A 
ATOM      2  C   UNL     1       2.366   8.116  17.800  0.00  0.00    +0.000 A 
ATOM      3  C   UNL     1       1.692   8.943  18.718  0.00  0.00    +0.000 A 
ATOM      4  C   UNL     1       1.503   8.485  20.035  0.00  0.00    +0.000 A 
ATOM      5  C   UNL     1       1.978   7.206  20.378  0.00  0.00    +0.000 A 
ATOM      6  C   UNL     1       2.620   6.386  19.452  0.00  0.00    +0.000 A 
ATOM      7  C   UNL     1       0.890   9.311  21.141  0.00  0.00    +0.000 C 
ATOM      8  C   UNL     1      -0.464   9.965  20.829  0.00  0.00    +0.000 C 
ATOM      9  N   UNL     1      -0.463  11.130  19.928  0.00  0.00    +0.000 NA
ATOM     10  C   UNL     1      -0.165  10.708  18.555  0.00  0.00    +0.000 C 
ATOM     11  C   UNL     1       1.282  10.313  18.238  0.00  0.00    +0.000 C 
ENDROOT
BRANCH   6  12
ATOM     12  O   UNL     1       2.995   5.168  19.943  0.00  0.00    +0.000 OA
BRANCH  12  13
ATOM     13  C   UNL     1       2.549   4.029  19.210  0.00  0.00    +0.000 C 
BRANCH  13  14
ATOM     14  C   UNL     1       3.741   3.499  18.424  0.00  0.00    +0.000 C 
BRANCH  14  15
ATOM     15  C   UNL     1       5.041   3.581  19.224  0.00  0.00    +0.000 C 
BRANCH  15  16
ATOM     16  N   UNL     1       6.122   4.307  18.534  0.00  0.00    +0.000 NA
ATOM     17  C   UNL     1       5.722   4.726  17.180  0.00  0.00    +0.000 C 
ATOM     18  C   UNL     1       6.853   5.464  16.461  0.00  0.00    +0.000 C 
ATOM     19  C   UNL     1       7.332   6.659  17.272  0.00  0.00    +0.000 C 
ATOM     20  C   UNL     1       7.697   6.221  18.684  0.00  0.00    +0.000 C 
ATOM     21  C   UNL     1       6.545   5.462  19.343  0.00  0.00    +0.000 C 
ENDBRANCH  15  16
ENDBRANCH  14  15
ENDBRANCH  13  14
ENDBRANCH  12  13
ENDBRANCH   6  12
BRANCH   9  22
ATOM     22  C   UNL     1       0.385  12.230  20.443  0.00  0.00    +0.000 C 
BRANCH  22  23
ATOM     23  C   UNL     1       0.614  13.479  19.563  0.00  0.00    +0.000 C 
ATOM     24  C   UNL     1       1.706  14.426  20.024  0.00  0.00    +0.000 C 
ATOM     25  C   UNL     1       1.258  15.735  19.416  0.00  0.00    +0.000 C 
ATOM     26  C   UNL     1      -0.247  15.646  19.515  0.00  0.00    +0.000 C 
ATOM     27  O   UNL     1      -0.586  14.259  19.392  0.00  0.00    +0.000 OA
ENDBRANCH  22  23
ENDBRANCH   9  22
TORSDOF 7
ENDMDL
MODEL 5
REMARK VINA RESULT:      -7.1      1.915      3.215
REMARK  Name = 
REMARK  7 active torsions:
REMARK  status: ('A' for Active; 'I' for Inactive)
REMARK    1  A    between atoms: C_6  and  O_7
REMARK    2  A    between atoms: O_7  and  C_8
REMARK    3  A    between atoms: C_8  and  C_9
REMARK    4  A    between atoms: C_9  and  C_10
REMARK    5  A    between atoms: C_10  and  N_11
REMARK    6  A    between atoms: N_19  and  C_20
REMARK    7  A    between atoms: C_20  and  C_21
REMARK                            x       y       z     vdW  Elec       q    Type
REMARK                         _______ _______ _______ _____ _____    ______ ____
ROOT
ATOM      1  C   UNL     1       2.322   7.744  18.088  0.00  0.00    +0.000 A 
ATOM      2  C   UNL     1       1.710   8.994  18.016  0.00  0.00    +0.000 A 
ATOM      3  C   UNL     1       1.128   9.594  19.149  0.00  0.00    +0.000 A 
ATOM      4  C   UNL     1       1.194   8.924  20.384  0.00  0.00    +0.000 A 
ATOM      5  C   UNL     1       1.823   7.667  20.436  0.00  0.00    +0.000 A 
ATOM      6  C   UNL     1       2.372   7.071  19.301  0.00  0.00    +0.000 A 
ATOM      7  C   UNL     1       0.703   9.502  21.690  0.00  0.00    +0.000 C 
ATOM      8  C   UNL     1      -0.733  10.045  21.695  0.00  0.00    +0.000 C 
ATOM      9  N   UNL     1      -0.975  11.327  21.011  0.00  0.00    +0.000 NA
ATOM     10  C   UNL     1      -0.871  11.153  19.558  0.00  0.00    +0.000 C 
ATOM     11  C   UNL     1       0.533  10.969  18.970  0.00  0.00    +0.000 C 
ENDROOT
BRANCH   6  12
ATOM     12  O   UNL     1       2.922   5.841  19.521  0.00  0.00    +0.000 OA
BRANCH  12  13
ATOM     13  C   UNL     1       2.333   4.752  18.813  0.00  0.00    +0.000 C 
BRANCH  13  14
ATOM     14  C   UNL     1       3.440   4.076  18.015  0.00  0.00    +0.000 C 
BRANCH  14  15
ATOM     15  C   UNL     1       4.702   3.861  18.851  0.00  0.00    +0.000 C 
BRANCH  15  16
ATOM     16  N   UNL     1       5.900   4.524  18.306  0.00  0.00    +0.000 NA
ATOM     17  C   UNL     1       5.608   5.234  17.049  0.00  0.00    +0.000 C 
ATOM     18  C   UNL     1       6.857   5.906  16.477  0.00  0.00    +0.000 C 
ATOM     19  C   UNL     1       7.486   6.850  17.491  0.00  0.00    +0.000 C 
ATOM     20  C   UNL     1       7.740   6.117  18.802  0.00  0.00    +0.000 C 
ATOM     21  C   UNL     1       6.467   5.438  19.311  0.00  0.00    +0.000 C 
ENDBRANCH  15  16
ENDBRANCH  14  15
ENDBRANCH  13  14
ENDBRANCH  12  13
ENDBRANCH   6  12
BRANCH   9  22
ATOM     22  C   UNL     1      -0.149  12.421  21.571  0.00  0.00    +0.000 C 
BRANCH  22  23
ATOM     23  C   UNL     1      -0.733  13.306  22.696  0.00  0.00    +0.000 C 
ATOM     24  C   UNL     1      -2.180  13.729  22.525  0.00  0.00    +0.000 C 
ATOM     25  C   UNL     1      -2.228  15.002  23.336  0.00  0.00    +0.000 C 
ATOM     26  C   UNL     1      -0.862  15.601  23.091  0.00  0.00    +0.000 C 
ATOM     27  O   UNL     1       0.041  14.503  22.911  0.00  0.00    +0.000 OA
ENDBRANCH  22  23
ENDBRANCH   9  22
TORSDOF 7
ENDMDL
MODEL 6
REMARK VINA RESULT:      -7.0      1.560      2.384
REMARK  Name = 
REMARK  7 active torsions:
REMARK  status: ('A' for Active; 'I' for Inactive)
REMARK    1  A    between atoms: C_6  and  O_7
REMARK    2  A    between atoms: O_7  and  C_8
REMARK    3  A    between atoms: C_8  and  C_9
REMARK    4  A    between atoms: C_9  and  C_10
REMARK    5  A    between atoms: C_10  and  N_11
REMARK    6  A    between atoms: N_19  and  C_20
REMARK    7  A    between atoms: C_20  and  C_21
REMARK                            x       y       z     vdW  Elec       q    Type
REMARK                         _______ _______ _______ _____ _____    ______ ____
ROOT
ATOM      1  C   UNL     1       2.240   7.128  19.815  0.00  0.00    +0.000 A 
ATOM      2  C   UNL     1       1.541   7.929  20.716  0.00  0.00    +0.000 A 
ATOM      3  C   UNL     1       0.938   9.135  20.313  0.00  0.00    +0.000 A 
ATOM      4  C   UNL     1       1.022   9.521  18.963  0.00  0.00    +0.000 A 
ATOM      5  C   UNL     1       1.726   8.694  18.069  0.00  0.00    +0.000 A 
ATOM      6  C   UNL     1       2.342   7.516  18.486  0.00  0.00    +0.000 A 
ATOM      7  C   UNL     1       0.334  10.734  18.382  0.00  0.00    +0.000 C 
ATOM      8  C   UNL     1       0.570  12.063  19.112  0.00  0.00    +0.000 C 
ATOM      9  N   UNL     1      -0.118  12.262  20.399  0.00  0.00    +0.000 NA
ATOM     10  C   UNL     1       0.477  11.401  21.429  0.00  0.00    +0.000 C 
ATOM     11  C   UNL     1       0.166   9.902  21.359  0.00  0.00    +0.000 C 
ENDROOT
BRANCH   6  12
ATOM     12  O   UNL     1       3.004   6.845  17.497  0.00  0.00    +0.000 OA
BRANCH  12  13
ATOM     13  C   UNL     1       4.426   6.806  17.604  0.00  0.00    +0.000 C 
BRANCH  13  14
ATOM     14  C   UNL     1       4.805   5.423  18.118  0.00  0.00    +0.000 C 
BRANCH  14  15
ATOM     15  C   UNL     1       4.023   4.314  17.414  0.00  0.00    +0.000 C 
BRANCH  15  16
ATOM     16  N   UNL     1       3.212   3.485  18.323  0.00  0.00    +0.000 NA
ATOM     17  C   UNL     1       3.517   3.764  19.736  0.00  0.00    +0.000 C 
ATOM     18  C   UNL     1       2.685   2.890  20.676  0.00  0.00    +0.000 C 
ATOM     19  C   UNL     1       1.196   3.056  20.407  0.00  0.00    +0.000 C 
ATOM     20  C   UNL     1       0.900   2.812  18.933  0.00  0.00    +0.000 C 
ATOM     21  C   UNL     1       1.781   3.687  18.040  0.00  0.00    +0.000 C 
ENDBRANCH  15  16
ENDBRANCH  14  15
ENDBRANCH  13  14
ENDBRANCH  12  13
ENDBRANCH   6  12
BRANCH   9  22
ATOM     22  C   UNL     1      -1.589  12.153  20.266  0.00  0.00    +0.000 C 
BRANCH  22  23
ATOM     23  C   UNL     1      -2.493  12.939  21.242  0.00  0.00    +0.000 C 
ATOM     24  C   UNL     1      -2.691  12.318  22.612  0.00  0.00    +0.000 C 
ATOM     25  C   UNL     1      -4.021  12.901  23.028  0.00  0.00    +0.000 C 
ATOM     26  C   UNL     1      -4.776  12.965  21.720  0.00  0.00    +0.000 C 
ATOM     27  O   UNL     1      -3.802  13.194  20.694  0.00  0.00    +0.000 OA
ENDBRANCH  22  23
ENDBRANCH   9  22
TORSDOF 7
ENDMDL
MODEL 7
REMARK VINA RESULT:      -6.9      0.948      1.322
REMARK  Name = 
REMARK  7 active torsions:
REMARK  status: ('A' for Active; 'I' for Inactive)
REMARK    1  A    between atoms: C_6  and  O_7
REMARK    2  A    between atoms: O_7  and  C_8
REMARK    3  A    between atoms: C_8  and  C_9
REMARK    4  A    between atoms: C_9  and  C_10
REMARK    5  A    between atoms: C_10  and  N_11
REMARK    6  A    between atoms: N_19  and  C_20
REMARK    7  A    between atoms: C_20  and  C_21
REMARK                            x       y       z     vdW  Elec       q    Type
REMARK                         _______ _______ _______ _____ _____    ______ ____
ROOT
ATOM      1  C   UNL     1       2.841   8.016  17.411  0.00  0.00    +0.000 A 
ATOM      2  C   UNL     1       2.063   9.120  17.756  0.00  0.00    +0.000 A 
ATOM      3  C   UNL     1       1.449   9.222  19.019  0.00  0.00    +0.000 A 
ATOM      4  C   UNL     1       1.652   8.197  19.959  0.00  0.00    +0.000 A 
ATOM      5  C   UNL     1       2.447   7.095  19.594  0.00  0.00    +0.000 A 
ATOM      6  C   UNL     1       3.027   6.992  18.331  0.00  0.00    +0.000 A 
ATOM      7  C   UNL     1       1.139   8.234  21.379  0.00  0.00    +0.000 C 
ATOM      8  C   UNL     1      -0.356   8.538  21.552  0.00  0.00    +0.000 C 
ATOM      9  N   UNL     1      -0.795   9.927  21.334  0.00  0.00    +0.000 NA
ATOM     10  C   UNL     1      -0.724  10.261  19.906  0.00  0.00    +0.000 C 
ATOM     11  C   UNL     1       0.668  10.481  19.304  0.00  0.00    +0.000 C 
ENDROOT
BRANCH   6  12
ATOM     12  O   UNL     1       3.745   5.848  18.132  0.00  0.00    +0.000 OA
BRANCH  12  13
ATOM     13  C   UNL     1       4.943   5.716  18.895  0.00  0.00    +0.000 C 
BRANCH  13  14
ATOM     14  C   UNL     1       5.476   4.308  18.663  0.00  0.00    +0.000 C 
BRANCH  14  15
ATOM     15  C   UNL     1       4.696   3.259  19.456  0.00  0.00    +0.000 C 
BRANCH  15  16
ATOM     16  N   UNL     1       3.234   3.434  19.401  0.00  0.00    +0.000 NA
ATOM     17  C   UNL     1       2.586   2.375  18.610  0.00  0.00    +0.000 C 
ATOM     18  C   UNL     1       1.070   2.569  18.541  0.00  0.00    +0.000 C 
ATOM     19  C   UNL     1       0.462   2.646  19.934  0.00  0.00    +0.000 C 
ATOM     20  C   UNL     1       1.172   3.712  20.758  0.00  0.00    +0.000 C 
ATOM     21  C   UNL     1       2.685   3.487  20.766  0.00  0.00    +0.000 C 
ENDBRANCH  15  16
ENDBRANCH  14  15
ENDBRANCH  13  14
ENDBRANCH  12  13
ENDBRANCH   6  12
BRANCH   9  22
ATOM     22  C   UNL     1      -0.103  10.877  22.234  0.00  0.00    +0.000 C 
BRANCH  22  23
ATOM     23  C   UNL     1      -0.876  12.101  22.776  0.00  0.00    +0.000 C 
ATOM     24  C   UNL     1      -2.336  11.868  23.115  0.00  0.00    +0.000 C 
ATOM     25  C   UNL     1      -2.913  13.257  22.971  0.00  0.00    +0.000 C 
ATOM     26  C   UNL     1      -2.121  13.824  21.816  0.00  0.00    +0.000 C 
ATOM     27  O   UNL     1      -0.819  13.228  21.879  0.00  0.00    +0.000 OA
ENDBRANCH  22  23
ENDBRANCH   9  22
TORSDOF 7
ENDMDL
MODEL 8
REMARK VINA RESULT:      -6.9      1.662      2.639
REMARK  Name = 
REMARK  7 active torsions:
REMARK  status: ('A' for Active; 'I' for Inactive)
REMARK    1  A    between atoms: C_6  and  O_7
REMARK    2  A    between atoms: O_7  and  C_8
REMARK    3  A    between atoms: C_8  and  C_9
REMARK    4  A    between atoms: C_9  and  C_10
REMARK    5  A    between atoms: C_10  and  N_11
REMARK    6  A    between atoms: N_19  and  C_20
REMARK    7  A    between atoms: C_20  and  C_21
REMARK                            x       y       z     vdW  Elec       q    Type
REMARK                         _______ _______ _______ _____ _____    ______ ____
ROOT
ATOM      1  C   UNL     1       2.824   6.699  19.204  0.00  0.00    +0.000 A 
ATOM      2  C   UNL     1       1.994   7.201  20.204  0.00  0.00    +0.000 A 
ATOM      3  C   UNL     1       1.348   8.444  20.068  0.00  0.00    +0.000 A 
ATOM      4  C   UNL     1       1.526   9.178  18.882  0.00  0.00    +0.000 A 
ATOM      5  C   UNL     1       2.362   8.650  17.882  0.00  0.00    +0.000 A 
ATOM      6  C   UNL     1       3.018   7.430  18.040  0.00  0.00    +0.000 A 
ATOM      7  C   UNL     1       0.811  10.471  18.568  0.00  0.00    +0.000 C 
ATOM      8  C   UNL     1       0.889  11.567  19.639  0.00  0.00    +0.000 C 
ATOM      9  N   UNL     1       0.077  11.387  20.855  0.00  0.00    +0.000 NA
ATOM     10  C   UNL     1       0.635  10.310  21.681  0.00  0.00    +0.000 C 
ATOM     11  C   UNL     1       0.435   8.872  21.191  0.00  0.00    +0.000 C 
ENDROOT
BRANCH   6  12
ATOM     12  O   UNL     1       3.810   7.075  16.985  0.00  0.00    +0.000 OA
BRANCH  12  13
ATOM     13  C   UNL     1       4.983   6.328  17.301  0.00  0.00    +0.000 C 
BRANCH  13  14
ATOM     14  C   UNL     1       5.039   5.143  16.346  0.00  0.00    +0.000 C 
BRANCH  14  15
ATOM     15  C   UNL     1       4.914   3.807  17.080  0.00  0.00    +0.000 C 
BRANCH  15  16
ATOM     16  N   UNL     1       3.778   3.743  18.016  0.00  0.00    +0.000 NA
ATOM     17  C   UNL     1       2.516   3.430  17.324  0.00  0.00    +0.000 C 
ATOM     18  C   UNL     1       1.337   3.381  18.296  0.00  0.00    +0.000 C 
ATOM     19  C   UNL     1       1.592   2.387  19.420  0.00  0.00    +0.000 C 
ATOM     20  C   UNL     1       2.921   2.691  20.097  0.00  0.00    +0.000 C 
ATOM     21  C   UNL     1       4.059   2.760  19.076  0.00  0.00    +0.000 C 
ENDBRANCH  15  16
ENDBRANCH  14  15
ENDBRANCH  13  14
ENDBRANCH  12  13
ENDBRANCH   6  12
BRANCH   9  22
ATOM     22  C   UNL     1      -1.365  11.255  20.545  0.00  0.00    +0.000 C 
BRANCH  22  23
ATOM     23  C   UNL     1      -2.238  12.528  20.467  0.00  0.00    +0.000 C 
ATOM     24  C   UNL     1      -2.804  13.028  21.782  0.00  0.00    +0.000 C 
ATOM     25  C   UNL     1      -4.030  13.783  21.326  0.00  0.00    +0.000 C 
ATOM     26  C   UNL     1      -4.510  12.955  20.156  0.00  0.00    +0.000 C 
ATOM     27  O   UNL     1      -3.344  12.381  19.553  0.00  0.00    +0.000 OA
ENDBRANCH  22  23
ENDBRANCH   9  22
TORSDOF 7
ENDMDL
MODEL 9
REMARK VINA RESULT:      -6.9      1.553      2.668
REMARK  Name = 
REMARK  7 active torsions:
REMARK  status: ('A' for Active; 'I' for Inactive)
REMARK    1  A    between atoms: C_6  and  O_7
REMARK    2  A    between atoms: O_7  and  C_8
REMARK    3  A    between atoms: C_8  and  C_9
REMARK    4  A    between atoms: C_9  and  C_10
REMARK    5  A    between atoms: C_10  and  N_11
REMARK    6  A    between atoms: N_19  and  C_20
REMARK    7  A    between atoms: C_20  and  C_21
REMARK                            x       y       z     vdW  Elec       q    Type
REMARK                         _______ _______ _______ _____ _____    ______ ____
ROOT
ATOM      1  C   UNL     1       1.994   7.809  19.854  0.00  0.00    +0.000 A 
ATOM      2  C   UNL     1       1.239   8.463  20.826  0.00  0.00    +0.000 A 
ATOM      3  C   UNL     1       0.508   9.629  20.529  0.00  0.00    +0.000 A 
ATOM      4  C   UNL     1       0.522  10.124  19.213  0.00  0.00    +0.000 A 
ATOM      5  C   UNL     1       1.285   9.446  18.246  0.00  0.00    +0.000 A 
ATOM      6  C   UNL     1       2.026   8.308  18.558  0.00  0.00    +0.000 A 
ATOM      7  C   UNL     1      -0.298  11.302  18.740  0.00  0.00    +0.000 C 
ATOM      8  C   UNL     1      -0.181  12.588  19.570  0.00  0.00    +0.000 C 
ATOM      9  N   UNL     1      -0.855  12.614  20.879  0.00  0.00    +0.000 NA
ATOM     10  C   UNL     1      -0.153  11.742  21.828  0.00  0.00    +0.000 C 
ATOM     11  C   UNL     1      -0.313  10.229  21.644  0.00  0.00    +0.000 C 
ENDROOT
BRANCH   6  12
ATOM     12  O   UNL     1       2.729   7.787  17.510  0.00  0.00    +0.000 OA
BRANCH  12  13
ATOM     13  C   UNL     1       4.010   7.242  17.818  0.00  0.00    +0.000 C 
BRANCH  13  14
ATOM     14  C   UNL     1       4.114   5.896  17.113  0.00  0.00    +0.000 C 
BRANCH  14  15
ATOM     15  C   UNL     1       4.155   4.731  18.102  0.00  0.00    +0.000 C 
BRANCH  15  16
ATOM     16  N   UNL     1       2.849   4.414  18.706  0.00  0.00    +0.000 NA
ATOM     17  C   UNL     1       2.333   3.114  18.243  0.00  0.00    +0.000 C 
ATOM     18  C   UNL     1       0.970   2.797  18.859  0.00  0.00    +0.000 C 
ATOM     19  C   UNL     1       1.031   2.837  20.379  0.00  0.00    +0.000 C 
ATOM     20  C   UNL     1       1.610   4.167  20.845  0.00  0.00    +0.000 C 
ATOM     21  C   UNL     1       2.956   4.448  20.175  0.00  0.00    +0.000 C 
ENDBRANCH  15  16
ENDBRANCH  14  15
ENDBRANCH  13  14
ENDBRANCH  12  13
ENDBRANCH   6  12
BRANCH   9  22
ATOM     22  C   UNL     1      -2.310  12.366  20.760  0.00  0.00    +0.000 C 
BRANCH  22  23
ATOM     23  C   UNL     1      -3.275  13.053  21.753  0.00  0.00    +0.000 C 
ATOM     24  C   UNL     1      -2.721  14.252  22.497  0.00  0.00    +0.000 C 
ATOM     25  C   UNL     1      -3.570  14.263  23.746  0.00  0.00    +0.000 C 
ATOM     26  C   UNL     1      -3.777  12.790  24.016  0.00  0.00    +0.000 C 
ATOM     27  O   UNL     1      -3.791  12.137  22.740  0.00  0.00    +0.000 OA
ENDBRANCH  22  23
ENDBRANCH   9  22
TORSDOF 7
ENDMDL
