MODEL 1
REMARK VINA RESULT:      -8.2      0.000      0.000
REMARK  Name = 
REMARK  7 active torsions:
REMARK  status: ('A' for Active; 'I' for Inactive)
REMARK    1  A    between atoms: C_1  and  O_2
REMARK    2  A    between atoms: O_2  and  C_3
REMARK    3  A    between atoms: C_7  and  C_8
REMARK    4  A    between atoms: N_10  and  C_11
REMARK    5  A    between atoms: C_16  and  N_17
REMARK    6  A    between atoms: N_22  and  C_23
REMARK    7  A    between atoms: N_26  and  C_27
REMARK                            x       y       z     vdW  Elec       q    Type
REMARK                         _______ _______ _______ _____ _____    ______ ____
ROOT
ATOM      1  C   UNL     1       3.092   6.726  18.674  0.00  0.00    +0.000 A 
ATOM      2  C   UNL     1       3.815   6.987  17.497  0.00  0.00    +0.000 A 
ATOM      3  C   UNL     1       4.681   6.020  17.048  0.00  0.00    +0.000 A 
ATOM      4  C   UNL     1       5.055   4.951  17.844  0.00  0.00    +0.000 A 
ATOM      5  C   UNL     1       4.347   4.637  18.993  0.00  0.00    +0.000 A 
ATOM      6  C   UNL     1       3.247   5.455  19.355  0.00  0.00    +0.000 A 
ATOM      7  N   UNL     1       6.021   4.163  17.146  0.00  0.00    +0.000 N 
ATOM      8  C   UNL     1       7.413   4.389  17.531  0.00  0.00    +0.000 C 
ATOM      9  C   UNL     1       5.921   4.587  15.773  0.00  0.00    +0.000 A 
ATOM     10  O   UNL     1       6.477   4.065  14.818  0.00  0.00    +0.000 OA
ATOM     11  N   UNL     1       5.242   5.816  15.787  0.00  0.00    +0.000 N 
ATOM     12  C   UNL     1       5.470   6.774  14.760  0.00  0.00    +0.000 C 
ENDROOT
BRANCH   6  13
ATOM     13  N   UNL     1       2.229   5.014  20.255  0.00  0.00    +0.000 N 
ATOM     14  C   UNL     1       2.571   4.397  21.559  0.00  0.00    +0.000 C 
ATOM     15  C   UNL     1       2.016   2.974  21.515  0.00  0.00    +0.000 C 
ATOM     16  C   UNL     1       0.802   3.101  20.626  0.00  0.00    +0.000 C 
ATOM     17  C   UNL     1       1.236   4.121  19.581  0.00  0.00    +0.000 C 
ENDBRANCH   6  13
BRANCH   1  20
ATOM     18  C   UNL     1       1.718   8.814  18.569  0.00  0.00    +0.000 C 
ATOM     19  O   UNL     1       2.032   9.195  17.453  0.00  0.00    +0.000 OA
ATOM     20  N   UNL     1       2.166   7.676  19.211  0.00  0.00    +0.000 N 
ATOM     21  H   UNL     1       1.762   7.389  20.094  0.00  0.00    +0.000 HD
BRANCH  18  26
ATOM     22  C   UNL     1      -0.186  10.820  21.213  0.00  0.00    +0.000 A 
ATOM     23  C   UNL     1      -1.170  11.399  20.401  0.00  0.00    +0.000 A 
ATOM     24  C   UNL     1      -1.229  11.115  19.042  0.00  0.00    +0.000 A 
ATOM     25  C   UNL     1      -0.298  10.243  18.490  0.00  0.00    +0.000 A 
ATOM     26  C   UNL     1       0.700   9.652  19.286  0.00  0.00    +0.000 A 
ATOM     27  C   UNL     1       0.757   9.944  20.655  0.00  0.00    +0.000 A 
BRANCH  22  29
ATOM     28  C   UNL     1      -1.524  11.643  23.008  0.00  0.00    +0.000 C 
ATOM     29  O   UNL     1      -0.263  11.205  22.522  0.00  0.00    +0.000 OA
ENDBRANCH  22  29
ENDBRANCH  18  26
ENDBRANCH   1  20
TORSDOF 4
ENDMDL
MODEL 2
REMARK VINA RESULT:      -7.9      0.944      1.630
REMARK  Name = 
REMARK  7 active torsions:
REMARK  status: ('A' for Active; 'I' for Inactive)
REMARK    1  A    between atoms: C_1  and  O_2
REMARK    2  A    between atoms: O_2  and  C_3
REMARK    3  A    between atoms: C_7  and  C_8
REMARK    4  A    between atoms: N_10  and  C_11
REMARK    5  A    between atoms: C_16  and  N_17
REMARK    6  A    between atoms: N_22  and  C_23
REMARK    7  A    between atoms: N_26  and  C_27
REMARK                            x       y       z     vdW  Elec       q    Type
REMARK                         _______ _______ _______ _____ _____    ______ ____
ROOT
ATOM      1  C   UNL     1       3.103   6.741  18.651  0.00  0.00    +0.000 A 
ATOM      2  C   UNL     1       3.831   6.989  17.474  0.00  0.00    +0.000 A 
ATOM      3  C   UNL     1       4.704   6.020  17.043  0.00  0.00    +0.000 A 
ATOM      4  C   UNL     1       5.078   4.964  17.856  0.00  0.00    +0.000 A 
ATOM      5  C   UNL     1       4.366   4.663  19.007  0.00  0.00    +0.000 A 
ATOM      6  C   UNL     1       3.259   5.481  19.351  0.00  0.00    +0.000 A 
ATOM      7  N   UNL     1       6.052   4.171  17.175  0.00  0.00    +0.000 N 
ATOM      8  C   UNL     1       7.440   4.409  17.564  0.00  0.00    +0.000 C 
ATOM      9  C   UNL     1       5.957   4.575  15.795  0.00  0.00    +0.000 A 
ATOM     10  O   UNL     1       6.521   4.042  14.851  0.00  0.00    +0.000 OA
ATOM     11  N   UNL     1       5.273   5.801  15.789  0.00  0.00    +0.000 N 
ATOM     12  C   UNL     1       5.502   6.746  14.749  0.00  0.00    +0.000 C 
ENDROOT
BRANCH   6  13
ATOM     13  N   UNL     1       2.239   5.048  20.251  0.00  0.00    +0.000 N 
ATOM     14  C   UNL     1       2.577   4.438  21.559  0.00  0.00    +0.000 C 
ATOM     15  C   UNL     1       2.019   3.016  21.522  0.00  0.00    +0.000 C 
ATOM     16  C   UNL     1       0.806   3.140  20.631  0.00  0.00    +0.000 C 
ATOM     17  C   UNL     1       1.245   4.153  19.580  0.00  0.00    +0.000 C 
ENDBRANCH   6  13
BRANCH   1  20
ATOM     18  C   UNL     1       1.755   8.846  18.529  0.00  0.00    +0.000 C 
ATOM     19  O   UNL     1       2.111   9.239  17.429  0.00  0.00    +0.000 OA
ATOM     20  N   UNL     1       2.169   7.695  19.169  0.00  0.00    +0.000 N 
ATOM     21  H   UNL     1       1.733   7.401  20.035  0.00  0.00    +0.000 HD
BRANCH  18  26
ATOM     22  C   UNL     1      -1.286  11.035  19.300  0.00  0.00    +0.000 A 
ATOM     23  C   UNL     1      -1.225  11.032  20.700  0.00  0.00    +0.000 A 
ATOM     24  C   UNL     1      -0.204  10.366  21.367  0.00  0.00    +0.000 A 
ATOM     25  C   UNL     1       0.766   9.699  20.628  0.00  0.00    +0.000 A 
ATOM     26  C   UNL     1       0.723   9.686  19.222  0.00  0.00    +0.000 A 
ATOM     27  C   UNL     1      -0.310  10.358  18.555  0.00  0.00    +0.000 A 
BRANCH  22  29
ATOM     28  C   UNL     1      -2.822  11.382  17.507  0.00  0.00    +0.000 C 
ATOM     29  O   UNL     1      -2.352  11.732  18.802  0.00  0.00    +0.000 OA
ENDBRANCH  22  29
ENDBRANCH  18  26
ENDBRANCH   1  20
TORSDOF 4
ENDMDL
MODEL 3
REMARK VINA RESULT:      -7.7      0.957      1.499
REMARK  Name = 
REMARK  7 active torsions:
REMARK  status: ('A' for Active; 'I' for Inactive)
REMARK    1  A    between atoms: C_1  and  O_2
REMARK    2  A    between atoms: O_2  and  C_3
REMARK    3  A    between atoms: C_7  and  C_8
REMARK    4  A    between atoms: N_10  and  C_11
REMARK    5  A    between atoms: C_16  and  N_17
REMARK    6  A    between atoms: N_22  and  C_23
REMARK    7  A    between atoms: N_26  and  C_27
REMARK                            x       y       z     vdW  Elec       q    Type
REMARK                         _______ _______ _______ _____ _____    ______ ____
ROOT
ATOM      1  C   UNL     1       3.063   6.593  19.253  0.00  0.00    +0.000 A 
ATOM      2  C   UNL     1       3.695   7.009  18.068  0.00  0.00    +0.000 A 
ATOM      3  C   UNL     1       4.431   6.080  17.373  0.00  0.00    +0.000 A 
ATOM      4  C   UNL     1       4.783   4.863  17.932  0.00  0.00    +0.000 A 
ATOM      5  C   UNL     1       4.159   4.399  19.080  0.00  0.00    +0.000 A 
ATOM      6  C   UNL     1       3.170   5.214  19.689  0.00  0.00    +0.000 A 
ATOM      7  N   UNL     1       5.610   4.148  17.014  0.00  0.00    +0.000 N 
ATOM      8  C   UNL     1       7.045   4.206  17.283  0.00  0.00    +0.000 C 
ATOM      9  C   UNL     1       5.422   4.815  15.751  0.00  0.00    +0.000 A 
ATOM     10  O   UNL     1       5.842   4.434  14.668  0.00  0.00    +0.000 OA
ATOM     11  N   UNL     1       4.855   6.065  16.045  0.00  0.00    +0.000 N 
ATOM     12  C   UNL     1       5.070   7.173  15.177  0.00  0.00    +0.000 C 
ENDROOT
BRANCH   6  13
ATOM     13  N   UNL     1       2.204   4.690  20.601  0.00  0.00    +0.000 N 
ATOM     14  C   UNL     1       2.616   3.901  21.786  0.00  0.00    +0.000 C 
ATOM     15  C   UNL     1       2.005   2.512  21.606  0.00  0.00    +0.000 C 
ATOM     16  C   UNL     1       0.734   2.788  20.838  0.00  0.00    +0.000 C 
ATOM     17  C   UNL     1       1.130   3.921  19.899  0.00  0.00    +0.000 C 
ENDBRANCH   6  13
BRANCH   1  20
ATOM     18  C   UNL     1       1.577   8.583  19.554  0.00  0.00    +0.000 C 
ATOM     19  O   UNL     1       1.517   8.956  18.393  0.00  0.00    +0.000 OA
ATOM     20  N   UNL     1       2.274   7.494  20.037  0.00  0.00    +0.000 N 
ATOM     21  H   UNL     1       2.173   7.204  21.003  0.00  0.00    +0.000 HD
BRANCH  18  26
ATOM     22  C   UNL     1      -0.753  11.148  21.174  0.00  0.00    +0.000 A 
ATOM     23  C   UNL     1      -0.867  10.585  22.452  0.00  0.00    +0.000 A 
ATOM     24  C   UNL     1      -0.177   9.425  22.782  0.00  0.00    +0.000 A 
ATOM     25  C   UNL     1       0.636   8.824  21.827  0.00  0.00    +0.000 A 
ATOM     26  C   UNL     1       0.762   9.371  20.537  0.00  0.00    +0.000 A 
ATOM     27  C   UNL     1       0.062  10.540  20.209  0.00  0.00    +0.000 A 
BRANCH  22  29
ATOM     28  C   UNL     1      -2.461  12.297  19.965  0.00  0.00    +0.000 C 
ATOM     29  O   UNL     1      -1.498  12.284  21.010  0.00  0.00    +0.000 OA
ENDBRANCH  22  29
ENDBRANCH  18  26
ENDBRANCH   1  20
TORSDOF 4
ENDMDL
MODEL 4
REMARK VINA RESULT:      -7.7      1.565      2.320
REMARK  Name = 
REMARK  7 active torsions:
REMARK  status: ('A' for Active; 'I' for Inactive)
REMARK    1  A    between atoms: C_1  and  O_2
REMARK    2  A    between atoms: O_2  and  C_3
REMARK    3  A    between atoms: C_7  and  C_8
REMARK    4  A    between atoms: N_10  and  C_11
REMARK    5  A    between atoms: C_16  and  N_17
REMARK    6  A    between atoms: N_22  and  C_23
REMARK    7  A    between atoms: N_26  and  C_27
REMARK                            x       y       z     vdW  Elec       q    Type
REMARK                         _______ _______ _______ _____ _____    ______ ____
ROOT
ATOM      1  C   UNL     1       3.057   6.773  18.395  0.00  0.00    +0.000 A 
ATOM      2  C   UNL     1       4.014   6.978  17.387  0.00  0.00    +0.000 A 
ATOM      3  C   UNL     1       5.100   6.138  17.353  0.00  0.00    +0.000 A 
ATOM      4  C   UNL     1       5.408   5.302  18.412  0.00  0.00    +0.000 A 
ATOM      5  C   UNL     1       4.480   5.044  19.409  0.00  0.00    +0.000 A 
ATOM      6  C   UNL     1       3.214   5.680  19.337  0.00  0.00    +0.000 A 
ATOM      7  N   UNL     1       6.628   4.615  18.128  0.00  0.00    +0.000 N 
ATOM      8  C   UNL     1       7.822   5.164  18.766  0.00  0.00    +0.000 C 
ATOM      9  C   UNL     1       6.827   4.787  16.711  0.00  0.00    +0.000 A 
ATOM     10  O   UNL     1       7.683   4.238  16.035  0.00  0.00    +0.000 OA
ATOM     11  N   UNL     1       5.994   5.849  16.322  0.00  0.00    +0.000 N 
ATOM     12  C   UNL     1       6.337   6.657  15.201  0.00  0.00    +0.000 C 
ENDROOT
BRANCH   6  13
ATOM     13  N   UNL     1       2.074   5.199  20.050  0.00  0.00    +0.000 N 
ATOM     14  C   UNL     1       2.195   4.691  21.437  0.00  0.00    +0.000 C 
ATOM     15  C   UNL     1       1.774   3.223  21.390  0.00  0.00    +0.000 C 
ATOM     16  C   UNL     1       0.756   3.188  20.275  0.00  0.00    +0.000 C 
ATOM     17  C   UNL     1       1.310   4.183  19.262  0.00  0.00    +0.000 C 
ENDBRANCH   6  13
BRANCH   1  20
ATOM     18  C   UNL     1       1.789   8.905  18.066  0.00  0.00    +0.000 C 
ATOM     19  O   UNL     1       2.661   9.564  17.521  0.00  0.00    +0.000 OA
ATOM     20  N   UNL     1       1.892   7.599  18.503  0.00  0.00    +0.000 N 
ATOM     21  H   UNL     1       1.078   7.104  18.845  0.00  0.00    +0.000 HD
BRANCH  18  26
ATOM     22  C   UNL     1      -1.823  10.064  17.571  0.00  0.00    +0.000 A 
ATOM     23  C   UNL     1      -2.019  10.737  18.784  0.00  0.00    +0.000 A 
ATOM     24  C   UNL     1      -0.994  10.837  19.716  0.00  0.00    +0.000 A 
ATOM     25  C   UNL     1       0.240  10.262  19.432  0.00  0.00    +0.000 A 
ATOM     26  C   UNL     1       0.458   9.580  18.222  0.00  0.00    +0.000 A 
ATOM     27  C   UNL     1      -0.580   9.479  17.287  0.00  0.00    +0.000 A 
BRANCH  22  29
ATOM     28  C   UNL     1      -2.844  10.714  15.515  0.00  0.00    +0.000 C 
ATOM     29  O   UNL     1      -2.930  10.052  16.769  0.00  0.00    +0.000 OA
ENDBRANCH  22  29
ENDBRANCH  18  26
ENDBRANCH   1  20
TORSDOF 4
ENDMDL
MODEL 5
REMARK VINA RESULT:      -7.4      3.539      8.701
REMARK  Name = 
REMARK  7 active torsions:
REMARK  status: ('A' for Active; 'I' for Inactive)
REMARK    1  A    between atoms: C_1  and  O_2
REMARK    2  A    between atoms: O_2  and  C_3
REMARK    3  A    between atoms: C_7  and  C_8
REMARK    4  A    between atoms: N_10  and  C_11
REMARK    5  A    between atoms: C_16  and  N_17
REMARK    6  A    between atoms: N_22  and  C_23
REMARK    7  A    between atoms: N_26  and  C_27
REMARK                            x       y       z     vdW  Elec       q    Type
REMARK                         _______ _______ _______ _____ _____    ______ ____
ROOT
ATOM      1  C   UNL     1       0.636  11.339  19.508  0.00  0.00    +0.000 A 
ATOM      2  C   UNL     1       1.305  12.359  20.205  0.00  0.00    +0.000 A 
ATOM      3  C   UNL     1       0.785  13.629  20.140  0.00  0.00    +0.000 A 
ATOM      4  C   UNL     1      -0.187  13.971  19.215  0.00  0.00    +0.000 A 
ATOM      5  C   UNL     1      -0.896  12.995  18.532  0.00  0.00    +0.000 A 
ATOM      6  C   UNL     1      -0.583  11.634  18.779  0.00  0.00    +0.000 A 
ATOM      7  N   UNL     1      -0.471  15.366  19.328  0.00  0.00    +0.000 N 
ATOM      8  C   UNL     1       0.175  16.222  18.334  0.00  0.00    +0.000 C 
ATOM      9  C   UNL     1       0.086  15.754  20.599  0.00  0.00    +0.000 A 
ATOM     10  O   UNL     1      -0.059  16.838  21.146  0.00  0.00    +0.000 OA
ATOM     11  N   UNL     1       0.979  14.735  20.966  0.00  0.00    +0.000 N 
ATOM     12  C   UNL     1       2.096  15.025  21.801  0.00  0.00    +0.000 C 
ENDROOT
BRANCH   6  13
ATOM     13  N   UNL     1      -1.483  10.572  18.459  0.00  0.00    +0.000 N 
ATOM     14  C   UNL     1      -1.366   9.825  17.183  0.00  0.00    +0.000 C 
ATOM     15  C   UNL     1      -2.669  10.072  16.425  0.00  0.00    +0.000 C 
ATOM     16  C   UNL     1      -3.687  10.243  17.528  0.00  0.00    +0.000 C 
ATOM     17  C   UNL     1      -2.912  10.985  18.609  0.00  0.00    +0.000 C 
ENDBRANCH   6  13
BRANCH   1  20
ATOM     18  C   UNL     1       1.844   9.380  18.525  0.00  0.00    +0.000 C 
ATOM     19  O   UNL     1       2.212   9.887  17.477  0.00  0.00    +0.000 OA
ATOM     20  N   UNL     1       1.107   9.987  19.523  0.00  0.00    +0.000 N 
ATOM     21  H   UNL     1       0.945   9.514  20.404  0.00  0.00    +0.000 HD
BRANCH  18  26
ATOM     22  C   UNL     1       2.271   5.850  19.936  0.00  0.00    +0.000 A 
ATOM     23  C   UNL     1       3.060   5.289  18.923  0.00  0.00    +0.000 A 
ATOM     24  C   UNL     1       3.467   6.050  17.834  0.00  0.00    +0.000 A 
ATOM     25  C   UNL     1       3.084   7.384  17.758  0.00  0.00    +0.000 A 
ATOM     26  C   UNL     1       2.290   7.967  18.761  0.00  0.00    +0.000 A 
ATOM     27  C   UNL     1       1.880   7.194  19.856  0.00  0.00    +0.000 A 
BRANCH  22  29
ATOM     28  C   UNL     1       1.172   3.834  20.584  0.00  0.00    +0.000 C 
ATOM     29  O   UNL     1       1.953   4.968  20.932  0.00  0.00    +0.000 OA
ENDBRANCH  22  29
ENDBRANCH  18  26
ENDBRANCH   1  20
TORSDOF 4
ENDMDL
MODEL 6
REMARK VINA RESULT:      -7.2      3.460      8.912
REMARK  Name = 
REMARK  7 active torsions:
REMARK  status: ('A' for Active; 'I' for Inactive)
REMARK    1  A    between atoms: C_1  and  O_2
REMARK    2  A    between atoms: O_2  and  C_3
REMARK    3  A    between atoms: C_7  and  C_8
REMARK    4  A    between atoms: N_10  and  C_11
REMARK    5  A    between atoms: C_16  and  N_17
REMARK    6  A    between atoms: N_22  and  C_23
REMARK    7  A    between atoms: N_26  and  C_27
REMARK                            x       y       z     vdW  Elec       q    Type
REMARK                         _______ _______ _______ _____ _____    ______ ____
ROOT
ATOM      1  C   UNL     1       0.586  11.316  19.487  0.00  0.00    +0.000 A 
ATOM      2  C   UNL     1       1.299  12.298  20.196  0.00  0.00    +0.000 A 
ATOM      3  C   UNL     1       0.815  13.584  20.174  0.00  0.00    +0.000 A 
ATOM      4  C   UNL     1      -0.164  13.978  19.278  0.00  0.00    +0.000 A 
ATOM      5  C   UNL     1      -0.916  13.042  18.586  0.00  0.00    +0.000 A 
ATOM      6  C   UNL     1      -0.639  11.666  18.791  0.00  0.00    +0.000 A 
ATOM      7  N   UNL     1      -0.404  15.378  19.432  0.00  0.00    +0.000 N 
ATOM      8  C   UNL     1       0.247  16.240  18.448  0.00  0.00    +0.000 C 
ATOM      9  C   UNL     1       0.190  15.716  20.701  0.00  0.00    +0.000 A 
ATOM     10  O   UNL     1       0.088  16.789  21.278  0.00  0.00    +0.000 OA
ATOM     11  N   UNL     1       1.059  14.662  21.024  0.00  0.00    +0.000 N 
ATOM     12  C   UNL     1       2.200  14.897  21.843  0.00  0.00    +0.000 C 
ENDROOT
BRANCH   6  13
ATOM     13  N   UNL     1      -1.576  10.640  18.463  0.00  0.00    +0.000 N 
ATOM     14  C   UNL     1      -1.512   9.929  17.163  0.00  0.00    +0.000 C 
ATOM     15  C   UNL     1      -2.826  10.235  16.447  0.00  0.00    +0.000 C 
ATOM     16  C   UNL     1      -3.811  10.400  17.580  0.00  0.00    +0.000 C 
ATOM     17  C   UNL     1      -2.989  11.087  18.663  0.00  0.00    +0.000 C 
ENDBRANCH   6  13
BRANCH   1  20
ATOM     18  C   UNL     1       1.809   9.378  18.484  0.00  0.00    +0.000 C 
ATOM     19  O   UNL     1       2.269   9.931  17.497  0.00  0.00    +0.000 OA
ATOM     20  N   UNL     1       1.016   9.951  19.458  0.00  0.00    +0.000 N 
ATOM     21  H   UNL     1       0.775   9.436  20.296  0.00  0.00    +0.000 HD
BRANCH  18  26
ATOM     22  C   UNL     1       3.301   5.886  18.020  0.00  0.00    +0.000 A 
ATOM     23  C   UNL     1       3.010   5.340  19.277  0.00  0.00    +0.000 A 
ATOM     24  C   UNL     1       2.318   6.077  20.230  0.00  0.00    +0.000 A 
ATOM     25  C   UNL     1       1.913   7.371  19.924  0.00  0.00    +0.000 A 
ATOM     26  C   UNL     1       2.197   7.940  18.669  0.00  0.00    +0.000 A 
ATOM     27  C   UNL     1       2.896   7.193  17.712  0.00  0.00    +0.000 A 
BRANCH  22  29
ATOM     28  C   UNL     1       4.276   3.733  17.695  0.00  0.00    +0.000 C 
ATOM     29  O   UNL     1       3.989   5.034  17.202  0.00  0.00    +0.000 OA
ENDBRANCH  22  29
ENDBRANCH  18  26
ENDBRANCH   1  20
TORSDOF 4
ENDMDL
MODEL 7
REMARK VINA RESULT:      -7.2      1.127      1.298
REMARK  Name = 
REMARK  7 active torsions:
REMARK  status: ('A' for Active; 'I' for Inactive)
REMARK    1  A    between atoms: C_1  and  O_2
REMARK    2  A    between atoms: O_2  and  C_3
REMARK    3  A    between atoms: C_7  and  C_8
REMARK    4  A    between atoms: N_10  and  C_11
REMARK    5  A    between atoms: C_16  and  N_17
REMARK    6  A    between atoms: N_22  and  C_23
REMARK    7  A    between atoms: N_26  and  C_27
REMARK                            x       y       z     vdW  Elec       q    Type
REMARK                         _______ _______ _______ _____ _____    ______ ____
ROOT
ATOM      1  C   UNL     1       2.996   6.765  18.398  0.00  0.00    +0.000 A 
ATOM      2  C   UNL     1       3.925   6.968  17.363  0.00  0.00    +0.000 A 
ATOM      3  C   UNL     1       5.032   6.155  17.325  0.00  0.00    +0.000 A 
ATOM      4  C   UNL     1       5.384   5.354  18.398  0.00  0.00    +0.000 A 
ATOM      5  C   UNL     1       4.486   5.099  19.422  0.00  0.00    +0.000 A 
ATOM      6  C   UNL     1       3.203   5.701  19.363  0.00  0.00    +0.000 A 
ATOM      7  N   UNL     1       6.614   4.691  18.103  0.00  0.00    +0.000 N 
ATOM      8  C   UNL     1       7.808   5.286  18.699  0.00  0.00    +0.000 C 
ATOM      9  C   UNL     1       6.777   4.832  16.678  0.00  0.00    +0.000 A 
ATOM     10  O   UNL     1       7.633   4.287  15.996  0.00  0.00    +0.000 OA
ATOM     11  N   UNL     1       5.909   5.862  16.281  0.00  0.00    +0.000 N 
ATOM     12  C   UNL     1       6.207   6.650  15.133  0.00  0.00    +0.000 C 
ENDROOT
BRANCH   6  13
ATOM     13  N   UNL     1       2.092   5.210  20.113  0.00  0.00    +0.000 N 
ATOM     14  C   UNL     1       2.264   4.702  21.495  0.00  0.00    +0.000 C 
ATOM     15  C   UNL     1       1.854   3.231  21.462  0.00  0.00    +0.000 C 
ATOM     16  C   UNL     1       0.799   3.188  20.381  0.00  0.00    +0.000 C 
ATOM     17  C   UNL     1       1.310   4.188  19.351  0.00  0.00    +0.000 C 
ENDBRANCH   6  13
BRANCH   1  20
ATOM     18  C   UNL     1       1.753   8.936  18.365  0.00  0.00    +0.000 C 
ATOM     19  O   UNL     1       2.684   9.686  18.118  0.00  0.00    +0.000 OA
ATOM     20  N   UNL     1       1.814   7.564  18.512  0.00  0.00    +0.000 N 
ATOM     21  H   UNL     1       0.966   7.018  18.608  0.00  0.00    +0.000 HD
BRANCH  18  26
ATOM     22  C   UNL     1      -1.227  11.067  19.466  0.00  0.00    +0.000 A 
ATOM     23  C   UNL     1      -2.084  10.846  18.380  0.00  0.00    +0.000 A 
ATOM     24  C   UNL     1      -1.714  10.002  17.340  0.00  0.00    +0.000 A 
ATOM     25  C   UNL     1      -0.476   9.370  17.388  0.00  0.00    +0.000 A 
ATOM     26  C   UNL     1       0.401   9.580  18.467  0.00  0.00    +0.000 A 
ATOM     27  C   UNL     1       0.023  10.434  19.512  0.00  0.00    +0.000 A 
BRANCH  22  29
ATOM     28  C   UNL     1      -1.021  13.125  20.656  0.00  0.00    +0.000 C 
ATOM     29  O   UNL     1      -1.739  11.926  20.398  0.00  0.00    +0.000 OA
ENDBRANCH  22  29
ENDBRANCH  18  26
ENDBRANCH   1  20
TORSDOF 4
ENDMDL
MODEL 8
REMARK VINA RESULT:      -7.1      3.664      8.787
REMARK  Name = 
REMARK  7 active torsions:
REMARK  status: ('A' for Active; 'I' for Inactive)
REMARK    1  A    between atoms: C_1  and  O_2
REMARK    2  A    between atoms: O_2  and  C_3
REMARK    3  A    between atoms: C_7  and  C_8
REMARK    4  A    between atoms: N_10  and  C_11
REMARK    5  A    between atoms: C_16  and  N_17
REMARK    6  A    between atoms: N_22  and  C_23
REMARK    7  A    between atoms: N_26  and  C_27
REMARK                            x       y       z     vdW  Elec       q    Type
REMARK                         _______ _______ _______ _____ _____    ______ ____
ROOT
ATOM      1  C   UNL     1       0.699  11.432  19.399  0.00  0.00    +0.000 A 
ATOM      2  C   UNL     1       1.414  12.422  20.096  0.00  0.00    +0.000 A 
ATOM      3  C   UNL     1       0.875  13.684  20.151  0.00  0.00    +0.000 A 
ATOM      4  C   UNL     1      -0.177  14.063  19.335  0.00  0.00    +0.000 A 
ATOM      5  C   UNL     1      -0.931  13.117  18.659  0.00  0.00    +0.000 A 
ATOM      6  C   UNL     1      -0.582  11.749  18.796  0.00  0.00    +0.000 A 
ATOM      7  N   UNL     1      -0.466  15.445  19.555  0.00  0.00    +0.000 N 
ATOM      8  C   UNL     1       0.081  16.367  18.562  0.00  0.00    +0.000 C 
ATOM      9  C   UNL     1       0.195  15.767  20.794  0.00  0.00    +0.000 A 
ATOM     10  O   UNL     1       0.085  16.814  21.415  0.00  0.00    +0.000 OA
ATOM     11  N   UNL     1       1.128  14.743  21.022  0.00  0.00    +0.000 N 
ATOM     12  C   UNL     1       2.309  15.002  21.774  0.00  0.00    +0.000 C 
ENDROOT
BRANCH   6  13
ATOM     13  N   UNL     1      -1.494  10.693  18.492  0.00  0.00    +0.000 N 
ATOM     14  C   UNL     1      -1.344   9.881  17.261  0.00  0.00    +0.000 C 
ATOM     15  C   UNL     1      -2.610  10.118  16.438  0.00  0.00    +0.000 C 
ATOM     16  C   UNL     1      -3.666  10.367  17.488  0.00  0.00    +0.000 C 
ATOM     17  C   UNL     1      -2.918  11.145  18.563  0.00  0.00    +0.000 C 
ENDBRANCH   6  13
BRANCH   1  20
ATOM     18  C   UNL     1       1.234   9.169  20.322  0.00  0.00    +0.000 C 
ATOM     19  O   UNL     1       0.876   9.343  21.476  0.00  0.00    +0.000 OA
ATOM     20  N   UNL     1       1.185  10.090  19.294  0.00  0.00    +0.000 N 
ATOM     21  H   UNL     1       1.405   9.815  18.344  0.00  0.00    +0.000 HD
BRANCH  18  26
ATOM     22  C   UNL     1       1.934   5.408  20.361  0.00  0.00    +0.000 A 
ATOM     23  C   UNL     1       2.542   5.272  19.105  0.00  0.00    +0.000 A 
ATOM     24  C   UNL     1       2.746   6.378  18.290  0.00  0.00    +0.000 A 
ATOM     25  C   UNL     1       2.342   7.632  18.734  0.00  0.00    +0.000 A 
ATOM     26  C   UNL     1       1.728   7.792  19.989  0.00  0.00    +0.000 A 
ATOM     27  C   UNL     1       1.522   6.672  20.806  0.00  0.00    +0.000 A 
BRANCH  22  29
ATOM     28  C   UNL     1       1.141   3.158  20.371  0.00  0.00    +0.000 C 
ATOM     29  O   UNL     1       1.803   4.226  21.034  0.00  0.00    +0.000 OA
ENDBRANCH  22  29
ENDBRANCH  18  26
ENDBRANCH   1  20
TORSDOF 4
ENDMDL
MODEL 9
REMARK VINA RESULT:      -7.1      4.092     10.203
REMARK  Name = 
REMARK  7 active torsions:
REMARK  status: ('A' for Active; 'I' for Inactive)
REMARK    1  A    between atoms: C_1  and  O_2
REMARK    2  A    between atoms: O_2  and  C_3
REMARK    3  A    between atoms: C_7  and  C_8
REMARK    4  A    between atoms: N_10  and  C_11
REMARK    5  A    between atoms: C_16  and  N_17
REMARK    6  A    between atoms: N_22  and  C_23
REMARK    7  A    between atoms: N_26  and  C_27
REMARK                            x       y       z     vdW  Elec       q    Type
REMARK                         _______ _______ _______ _____ _____    ______ ____
ROOT
ATOM      1  C   UNL     1       0.049  12.154  21.768  0.00  0.00    +0.000 A 
ATOM      2  C   UNL     1      -1.073  11.968  22.595  0.00  0.00    +0.000 A 
ATOM      3  C   UNL     1      -1.663  13.083  23.138  0.00  0.00    +0.000 A 
ATOM      4  C   UNL     1      -1.038  14.319  23.120  0.00  0.00    +0.000 A 
ATOM      5  C   UNL     1       0.048  14.556  22.292  0.00  0.00    +0.000 A 
ATOM      6  C   UNL     1       0.529  13.494  21.485  0.00  0.00    +0.000 A 
ATOM      7  N   UNL     1      -1.846  15.262  23.826  0.00  0.00    +0.000 N 
ATOM      8  C   UNL     1      -1.428  15.544  25.198  0.00  0.00    +0.000 C 
ATOM      9  C   UNL     1      -3.139  14.634  23.932  0.00  0.00    +0.000 A 
ATOM     10  O   UNL     1      -4.161  15.162  24.346  0.00  0.00    +0.000 OA
ATOM     11  N   UNL     1      -2.938  13.270  23.671  0.00  0.00    +0.000 N 
ATOM     12  C   UNL     1      -3.807  12.294  24.237  0.00  0.00    +0.000 C 
ENDROOT
BRANCH   6  13
ATOM     13  N   UNL     1       1.347  13.716  20.336  0.00  0.00    +0.000 N 
ATOM     14  C   UNL     1       2.795  14.005  20.470  0.00  0.00    +0.000 C 
ATOM     15  C   UNL     1       3.005  15.402  19.886  0.00  0.00    +0.000 C 
ATOM     16  C   UNL     1       1.944  15.496  18.816  0.00  0.00    +0.000 C 
ATOM     17  C   UNL     1       0.764  14.749  19.424  0.00  0.00    +0.000 C 
ENDBRANCH   6  13
BRANCH   1  20
ATOM     18  C   UNL     1       0.273  10.336  20.064  0.00  0.00    +0.000 C 
ATOM     19  O   UNL     1      -0.761  10.527  19.443  0.00  0.00    +0.000 OA
ATOM     20  N   UNL     1       0.723  11.048  21.158  0.00  0.00    +0.000 N 
ATOM     21  H   UNL     1       1.647  10.882  21.537  0.00  0.00    +0.000 HD
BRANCH  18  26
ATOM     22  C   UNL     1       2.249   7.085  19.663  0.00  0.00    +0.000 A 
ATOM     23  C   UNL     1       2.653   7.222  18.329  0.00  0.00    +0.000 A 
ATOM     24  C   UNL     1       2.319   8.355  17.597  0.00  0.00    +0.000 A 
ATOM     25  C   UNL     1       1.577   9.361  18.204  0.00  0.00    +0.000 A 
ATOM     26  C   UNL     1       1.159   9.244  19.542  0.00  0.00    +0.000 A 
ATOM     27  C   UNL     1       1.496   8.098  20.275  0.00  0.00    +0.000 A 
BRANCH  22  29
ATOM     28  C   UNL     1       3.747   5.228  19.641  0.00  0.00    +0.000 C 
ATOM     29  O   UNL     1       2.654   5.913  20.238  0.00  0.00    +0.000 OA
ENDBRANCH  22  29
ENDBRANCH  18  26
ENDBRANCH   1  20
TORSDOF 4
ENDMDL
