MODEL 1
REMARK VINA RESULT:      -6.9      0.000      0.000
REMARK  Name = 
REMARK  9 active torsions:
REMARK  status: ('A' for Active; 'I' for Inactive)
REMARK    1  A    between atoms: C_1  and  C_2
REMARK    2  A    between atoms: C_2  and  C_3
REMARK    3  A    between atoms: C_2  and  C_4
REMARK    4  A    between atoms: C_4  and  C_5
REMARK    5  A    between atoms: C_4  and  N_12
REMARK    6  A    between atoms: N_12  and  C_13
REMARK    7  A    between atoms: C_14  and  C_16
REMARK    8  A    between atoms: C_19  and  C_20
REMARK    9  A    between atoms: C_20  and  N_21
REMARK                            x       y       z     vdW  Elec       q    Type
REMARK                         _______ _______ _______ _____ _____    ______ ____
ROOT
ATOM      1  N   UNL     1       3.202   5.655  18.619  0.00  0.00    +0.000 N 
ATOM      2  C   UNL     1       3.312   6.675  17.581  0.00  0.00    +0.000 C 
ATOM      3  C   UNL     1       2.560   5.928  19.849  0.00  0.00    +0.000 C 
ATOM      4  O   UNL     1       2.521   5.097  20.757  0.00  0.00    +0.000 OA
ENDROOT
BRANCH   3   5
ATOM      5  C   UNL     1       1.947   7.263  20.049  0.00  0.00    +0.000 A 
ATOM      6  C   UNL     1       1.312   7.635  21.222  0.00  0.00    +0.000 A 
ATOM      7  S   UNL     1       0.767   9.259  21.130  0.00  0.00    +0.000 S 
ATOM      8  C   UNL     1       1.356   9.356  19.522  0.00  0.00    +0.000 A 
ATOM      9  N   UNL     1       1.938   8.264  19.072  0.00  0.00    +0.000 NA
BRANCH   8  10
ATOM     10  C   UNL     1       1.225  10.620  18.715  0.00  0.00    +0.000 C 
BRANCH  10  11
ATOM     11  N   UNL     1       2.025  10.556  17.488  0.00  0.00    +0.000 NA
ATOM     12  H   UNL     1       2.301   9.581  17.349  0.00  0.00    +0.000 HD
ATOM     13  H   UNL     1       2.885  11.082  17.620  0.00  0.00    +0.000 HD
ENDBRANCH  10  11
ENDBRANCH   8  10
ENDBRANCH   3   5
BRANCH   1  14
ATOM     14  C   UNL     1       3.813   4.314  18.416  0.00  0.00    +0.000 C 
BRANCH  14  15
ATOM     15  C   UNL     1       5.021   4.391  17.462  0.00  0.00    +0.000 A 
ATOM     16  C   UNL     1       4.897   4.023  16.100  0.00  0.00    +0.000 A 
ATOM     17  C   UNL     1       5.965   4.106  15.210  0.00  0.00    +0.000 A 
ATOM     18  C   UNL     1       7.191   4.583  15.648  0.00  0.00    +0.000 A 
ATOM     19  C   UNL     1       7.341   4.976  16.983  0.00  0.00    +0.000 A 
ATOM     20  C   UNL     1       6.272   4.881  17.883  0.00  0.00    +0.000 A 
ATOM     21 CL   UNL     1       6.563   5.405  19.503  0.00  0.00    +0.000 Cl
ENDBRANCH  14  15
BRANCH  14  23
ATOM     22  C   UNL     1       2.668   2.122  19.098  0.00  0.00    +0.000 C 
ATOM     23  C   UNL     1       2.772   3.208  18.009  0.00  0.00    +0.000 C 
ATOM     24  C   UNL     1       1.356   3.734  17.744  0.00  0.00    +0.000 C 
ENDBRANCH  14  23
ENDBRANCH   1  14
TORSDOF 6
ENDMDL
MODEL 2
REMARK VINA RESULT:      -6.8      4.130      7.104
REMARK  Name = 
REMARK  9 active torsions:
REMARK  status: ('A' for Active; 'I' for Inactive)
REMARK    1  A    between atoms: C_1  and  C_2
REMARK    2  A    between atoms: C_2  and  C_3
REMARK    3  A    between atoms: C_2  and  C_4
REMARK    4  A    between atoms: C_4  and  C_5
REMARK    5  A    between atoms: C_4  and  N_12
REMARK    6  A    between atoms: N_12  and  C_13
REMARK    7  A    between atoms: C_14  and  C_16
REMARK    8  A    between atoms: C_19  and  C_20
REMARK    9  A    between atoms: C_20  and  N_21
REMARK                            x       y       z     vdW  Elec       q    Type
REMARK                         _______ _______ _______ _____ _____    ______ ____
ROOT
ATOM      1  N   UNL     1       5.833   4.991  16.887  0.00  0.00    +0.000 N 
ATOM      2  C   UNL     1       4.599   5.368  16.204  0.00  0.00    +0.000 C 
ATOM      3  C   UNL     1       6.938   4.475  16.171  0.00  0.00    +0.000 C 
ATOM      4  O   UNL     1       7.957   4.090  16.744  0.00  0.00    +0.000 OA
ENDROOT
BRANCH   3   5
ATOM      5  C   UNL     1       6.842   4.373  14.695  0.00  0.00    +0.000 A 
ATOM      6  C   UNL     1       7.591   5.157  13.833  0.00  0.00    +0.000 A 
ATOM      7  S   UNL     1       7.271   4.742  12.200  0.00  0.00    +0.000 S 
ATOM      8  C   UNL     1       6.119   3.586  12.729  0.00  0.00    +0.000 A 
ATOM      9  N   UNL     1       5.980   3.491  14.035  0.00  0.00    +0.000 NA
BRANCH   8  10
ATOM     10  C   UNL     1       5.353   2.738  11.748  0.00  0.00    +0.000 C 
BRANCH  10  11
ATOM     11  N   UNL     1       6.042   1.471  11.487  0.00  0.00    +0.000 NA
ATOM     12  H   UNL     1       6.811   1.392  12.156  0.00  0.00    +0.000 HD
ATOM     13  H   UNL     1       6.467   1.503  10.563  0.00  0.00    +0.000 HD
ENDBRANCH  10  11
ENDBRANCH   8  10
ENDBRANCH   3   5
BRANCH   1  14
ATOM     14  C   UNL     1       5.930   5.098  18.367  0.00  0.00    +0.000 C 
BRANCH  14  15
ATOM     15  C   UNL     1       4.531   5.155  19.014  0.00  0.00    +0.000 A 
ATOM     16  C   UNL     1       3.802   6.367  19.065  0.00  0.00    +0.000 A 
ATOM     17  C   UNL     1       2.528   6.442  19.621  0.00  0.00    +0.000 A 
ATOM     18  C   UNL     1       1.929   5.298  20.126  0.00  0.00    +0.000 A 
ATOM     19  C   UNL     1       2.613   4.079  20.072  0.00  0.00    +0.000 A 
ATOM     20  C   UNL     1       3.901   4.004  19.525  0.00  0.00    +0.000 A 
ATOM     21 CL   UNL     1       4.650   2.448  19.496  0.00  0.00    +0.000 Cl
ENDBRANCH  14  15
BRANCH  14  23
ATOM     22  C   UNL     1       8.104   5.682  19.598  0.00  0.00    +0.000 C 
ATOM     23  C   UNL     1       6.882   6.253  18.849  0.00  0.00    +0.000 C 
ATOM     24  C   UNL     1       7.408   7.154  17.726  0.00  0.00    +0.000 C 
ENDBRANCH  14  23
ENDBRANCH   1  14
TORSDOF 6
ENDMDL
MODEL 3
REMARK VINA RESULT:      -6.8      1.431      1.842
REMARK  Name = 
REMARK  9 active torsions:
REMARK  status: ('A' for Active; 'I' for Inactive)
REMARK    1  A    between atoms: C_1  and  C_2
REMARK    2  A    between atoms: C_2  and  C_3
REMARK    3  A    between atoms: C_2  and  C_4
REMARK    4  A    between atoms: C_4  and  C_5
REMARK    5  A    between atoms: C_4  and  N_12
REMARK    6  A    between atoms: N_12  and  C_13
REMARK    7  A    between atoms: C_14  and  C_16
REMARK    8  A    between atoms: C_19  and  C_20
REMARK    9  A    between atoms: C_20  and  N_21
REMARK                            x       y       z     vdW  Elec       q    Type
REMARK                         _______ _______ _______ _____ _____    ______ ____
ROOT
ATOM      1  N   UNL     1       2.989   5.566  18.560  0.00  0.00    +0.000 N 
ATOM      2  C   UNL     1       2.820   6.524  17.473  0.00  0.00    +0.000 C 
ATOM      3  C   UNL     1       2.568   5.869  19.876  0.00  0.00    +0.000 C 
ATOM      4  O   UNL     1       2.768   5.095  20.813  0.00  0.00    +0.000 OA
ENDROOT
BRANCH   3   5
ATOM      5  C   UNL     1       1.897   7.166  20.125  0.00  0.00    +0.000 A 
ATOM      6  C   UNL     1       1.981   8.240  19.255  0.00  0.00    +0.000 A 
ATOM      7  S   UNL     1       1.044   9.560  19.825  0.00  0.00    +0.000 S 
ATOM      8  C   UNL     1       0.629   8.651  21.219  0.00  0.00    +0.000 A 
ATOM      9  N   UNL     1       1.133   7.435  21.265  0.00  0.00    +0.000 NA
BRANCH   8  10
ATOM     10  C   UNL     1      -0.270   9.219  22.285  0.00  0.00    +0.000 C 
BRANCH  10  11
ATOM     11  N   UNL     1       0.500   9.673  23.447  0.00  0.00    +0.000 NA
ATOM     12  H   UNL     1       0.798   8.844  23.966  0.00  0.00    +0.000 HD
ATOM     13  H   UNL     1      -0.109  10.199  24.069  0.00  0.00    +0.000 HD
ENDBRANCH  10  11
ENDBRANCH   8  10
ENDBRANCH   3   5
BRANCH   1  14
ATOM     14  C   UNL     1       3.659   4.261  18.308  0.00  0.00    +0.000 C 
BRANCH  14  15
ATOM     15  C   UNL     1       4.885   4.433  17.390  0.00  0.00    +0.000 A 
ATOM     16  C   UNL     1       4.806   4.137  16.008  0.00  0.00    +0.000 A 
ATOM     17  C   UNL     1       5.890   4.306  15.151  0.00  0.00    +0.000 A 
ATOM     18  C   UNL     1       7.088   4.800  15.645  0.00  0.00    +0.000 A 
ATOM     19  C   UNL     1       7.194   5.123  17.003  0.00  0.00    +0.000 A 
ATOM     20  C   UNL     1       6.108   4.941  17.869  0.00  0.00    +0.000 A 
ATOM     21 CL   UNL     1       6.342   5.383  19.522  0.00  0.00    +0.000 Cl
ENDBRANCH  14  15
BRANCH  14  23
ATOM     22  C   UNL     1       3.179   1.742  18.242  0.00  0.00    +0.000 C 
ATOM     23  C   UNL     1       2.673   3.137  17.821  0.00  0.00    +0.000 C 
ATOM     24  C   UNL     1       1.237   3.282  18.338  0.00  0.00    +0.000 C 
ENDBRANCH  14  23
ENDBRANCH   1  14
TORSDOF 6
ENDMDL
MODEL 4
REMARK VINA RESULT:      -6.4      0.906      1.050
REMARK  Name = 
REMARK  9 active torsions:
REMARK  status: ('A' for Active; 'I' for Inactive)
REMARK    1  A    between atoms: C_1  and  C_2
REMARK    2  A    between atoms: C_2  and  C_3
REMARK    3  A    between atoms: C_2  and  C_4
REMARK    4  A    between atoms: C_4  and  C_5
REMARK    5  A    between atoms: C_4  and  N_12
REMARK    6  A    between atoms: N_12  and  C_13
REMARK    7  A    between atoms: C_14  and  C_16
REMARK    8  A    between atoms: C_19  and  C_20
REMARK    9  A    between atoms: C_20  and  N_21
REMARK                            x       y       z     vdW  Elec       q    Type
REMARK                         _______ _______ _______ _____ _____    ______ ____
ROOT
ATOM      1  N   UNL     1       2.894   4.937  18.492  0.00  0.00    +0.000 N 
ATOM      2  C   UNL     1       1.695   5.099  17.676  0.00  0.00    +0.000 C 
ATOM      3  C   UNL     1       3.252   5.897  19.467  0.00  0.00    +0.000 C 
ATOM      4  O   UNL     1       4.296   5.805  20.113  0.00  0.00    +0.000 OA
ENDROOT
BRANCH   3   5
ATOM      5  C   UNL     1       2.352   7.055  19.686  0.00  0.00    +0.000 A 
ATOM      6  C   UNL     1       1.577   7.205  20.824  0.00  0.00    +0.000 A 
ATOM      7  S   UNL     1       0.701   8.678  20.774  0.00  0.00    +0.000 S 
ATOM      8  C   UNL     1       1.355   9.004  19.222  0.00  0.00    +0.000 A 
ATOM      9  N   UNL     1       2.188   8.093  18.763  0.00  0.00    +0.000 NA
BRANCH   8  10
ATOM     10  C   UNL     1       1.005  10.262  18.472  0.00  0.00    +0.000 C 
BRANCH  10  11
ATOM     11  N   UNL     1       2.048  10.614  17.504  0.00  0.00    +0.000 NA
ATOM     12  H   UNL     1       1.725  10.321  16.579  0.00  0.00    +0.000 HD
ATOM     13  H   UNL     1       2.886  10.072  17.701  0.00  0.00    +0.000 HD
ENDBRANCH  10  11
ENDBRANCH   8  10
ENDBRANCH   3   5
BRANCH   1  14
ATOM     14  C   UNL     1       3.794   3.773  18.275  0.00  0.00    +0.000 C 
BRANCH  14  15
ATOM     15  C   UNL     1       4.835   4.071  17.178  0.00  0.00    +0.000 A 
ATOM     16  C   UNL     1       4.483   4.020  15.807  0.00  0.00    +0.000 A 
ATOM     17  C   UNL     1       5.396   4.308  14.796  0.00  0.00    +0.000 A 
ATOM     18  C   UNL     1       6.691   4.680  15.124  0.00  0.00    +0.000 A 
ATOM     19  C   UNL     1       7.066   4.762  16.470  0.00  0.00    +0.000 A 
ATOM     20  C   UNL     1       6.152   4.459  17.488  0.00  0.00    +0.000 A 
ATOM     21 CL   UNL     1       6.716   4.604  19.115  0.00  0.00    +0.000 Cl
ENDBRANCH  14  15
BRANCH  14  23
ATOM     22  C   UNL     1       3.984   1.218  18.134  0.00  0.00    +0.000 C 
ATOM     23  C   UNL     1       3.023   2.421  18.046  0.00  0.00    +0.000 C 
ATOM     24  C   UNL     1       1.876   2.169  19.031  0.00  0.00    +0.000 C 
ENDBRANCH  14  23
ENDBRANCH   1  14
TORSDOF 6
ENDMDL
MODEL 5
REMARK VINA RESULT:      -6.3      4.257      7.111
REMARK  Name = 
REMARK  9 active torsions:
REMARK  status: ('A' for Active; 'I' for Inactive)
REMARK    1  A    between atoms: C_1  and  C_2
REMARK    2  A    between atoms: C_2  and  C_3
REMARK    3  A    between atoms: C_2  and  C_4
REMARK    4  A    between atoms: C_4  and  C_5
REMARK    5  A    between atoms: C_4  and  N_12
REMARK    6  A    between atoms: N_12  and  C_13
REMARK    7  A    between atoms: C_14  and  C_16
REMARK    8  A    between atoms: C_19  and  C_20
REMARK    9  A    between atoms: C_20  and  N_21
REMARK                            x       y       z     vdW  Elec       q    Type
REMARK                         _______ _______ _______ _____ _____    ______ ____
ROOT
ATOM      1  N   UNL     1       5.810   4.578  16.825  0.00  0.00    +0.000 N 
ATOM      2  C   UNL     1       4.500   4.724  16.198  0.00  0.00    +0.000 C 
ATOM      3  C   UNL     1       6.967   4.323  16.053  0.00  0.00    +0.000 C 
ATOM      4  O   UNL     1       8.064   4.130  16.577  0.00  0.00    +0.000 OA
ENDROOT
BRANCH   3   5
ATOM      5  C   UNL     1       6.837   4.261  14.578  0.00  0.00    +0.000 A 
ATOM      6  C   UNL     1       7.509   5.118  13.723  0.00  0.00    +0.000 A 
ATOM      7  S   UNL     1       7.171   4.733  12.086  0.00  0.00    +0.000 S 
ATOM      8  C   UNL     1       6.109   3.491  12.606  0.00  0.00    +0.000 A 
ATOM      9  N   UNL     1       6.013   3.347  13.912  0.00  0.00    +0.000 NA
BRANCH   8  10
ATOM     10  C   UNL     1       5.371   2.626  11.619  0.00  0.00    +0.000 C 
BRANCH  10  11
ATOM     11  N   UNL     1       6.006   1.312  11.482  0.00  0.00    +0.000 NA
ATOM     12  H   UNL     1       7.015   1.442  11.582  0.00  0.00    +0.000 HD
ATOM     13  H   UNL     1       5.854   0.962  10.539  0.00  0.00    +0.000 HD
ENDBRANCH  10  11
ENDBRANCH   8  10
ENDBRANCH   3   5
BRANCH   1  14
ATOM     14  C   UNL     1       5.940   4.645  18.305  0.00  0.00    +0.000 C 
BRANCH  14  15
ATOM     15  C   UNL     1       4.615   4.273  18.999  0.00  0.00    +0.000 A 
ATOM     16  C   UNL     1       4.429   2.993  19.575  0.00  0.00    +0.000 A 
ATOM     17  C   UNL     1       3.253   2.639  20.229  0.00  0.00    +0.000 A 
ATOM     18  C   UNL     1       2.227   3.564  20.350  0.00  0.00    +0.000 A 
ATOM     19  C   UNL     1       2.386   4.845  19.811  0.00  0.00    +0.000 A 
ATOM     20  C   UNL     1       3.564   5.199  19.141  0.00  0.00    +0.000 A 
ATOM     21 CL   UNL     1       3.660   6.811  18.525  0.00  0.00    +0.000 Cl
ENDBRANCH  14  15
BRANCH  14  23
ATOM     22  C   UNL     1       7.810   5.753  19.669  0.00  0.00    +0.000 C 
ATOM     23  C   UNL     1       6.548   6.002  18.818  0.00  0.00    +0.000 C 
ATOM     24  C   UNL     1       6.927   6.989  17.708  0.00  0.00    +0.000 C 
ENDBRANCH  14  23
ENDBRANCH   1  14
TORSDOF 6
ENDMDL
MODEL 6
REMARK VINA RESULT:      -6.2      1.391      1.697
REMARK  Name = 
REMARK  9 active torsions:
REMARK  status: ('A' for Active; 'I' for Inactive)
REMARK    1  A    between atoms: C_1  and  C_2
REMARK    2  A    between atoms: C_2  and  C_3
REMARK    3  A    between atoms: C_2  and  C_4
REMARK    4  A    between atoms: C_4  and  C_5
REMARK    5  A    between atoms: C_4  and  N_12
REMARK    6  A    between atoms: N_12  and  C_13
REMARK    7  A    between atoms: C_14  and  C_16
REMARK    8  A    between atoms: C_19  and  C_20
REMARK    9  A    between atoms: C_20  and  N_21
REMARK                            x       y       z     vdW  Elec       q    Type
REMARK                         _______ _______ _______ _____ _____    ______ ____
ROOT
ATOM      1  N   UNL     1       3.353   6.072  18.677  0.00  0.00    +0.000 N 
ATOM      2  C   UNL     1       3.738   6.997  17.615  0.00  0.00    +0.000 C 
ATOM      3  C   UNL     1       2.464   6.466  19.703  0.00  0.00    +0.000 C 
ATOM      4  O   UNL     1       2.186   5.718  20.640  0.00  0.00    +0.000 OA
ENDROOT
BRANCH   3   5
ATOM      5  C   UNL     1       1.882   7.829  19.654  0.00  0.00    +0.000 A 
ATOM      6  C   UNL     1       1.849   8.596  18.502  0.00  0.00    +0.000 A 
ATOM      7  S   UNL     1       1.060  10.091  18.789  0.00  0.00    +0.000 S 
ATOM      8  C   UNL     1       0.858   9.659  20.436  0.00  0.00    +0.000 A 
ATOM      9  N   UNL     1       1.328   8.473  20.765  0.00  0.00    +0.000 NA
BRANCH   8  10
ATOM     10  C   UNL     1       0.167  10.577  21.409  0.00  0.00    +0.000 C 
BRANCH  10  11
ATOM     11  N   UNL     1       0.836  11.880  21.479  0.00  0.00    +0.000 NA
ATOM     12  H   UNL     1       1.561  11.818  22.198  0.00  0.00    +0.000 HD
ATOM     13  H   UNL     1       0.173  12.582  21.800  0.00  0.00    +0.000 HD
ENDBRANCH  10  11
ENDBRANCH   8  10
ENDBRANCH   3   5
BRANCH   1  14
ATOM     14  C   UNL     1       3.934   4.704  18.723  0.00  0.00    +0.000 C 
BRANCH  14  15
ATOM     15  C   UNL     1       5.061   4.542  17.683  0.00  0.00    +0.000 A 
ATOM     16  C   UNL     1       4.778   4.117  16.362  0.00  0.00    +0.000 A 
ATOM     17  C   UNL     1       5.772   3.986  15.397  0.00  0.00    +0.000 A 
ATOM     18  C   UNL     1       7.085   4.298  15.714  0.00  0.00    +0.000 A 
ATOM     19  C   UNL     1       7.397   4.742  17.005  0.00  0.00    +0.000 A 
ATOM     20  C   UNL     1       6.400   4.862  17.981  0.00  0.00    +0.000 A 
ATOM     21 CL   UNL     1       6.892   5.430  19.537  0.00  0.00    +0.000 Cl
ENDBRANCH  14  15
BRANCH  14  23
ATOM     22  C   UNL     1       1.877   3.806  17.479  0.00  0.00    +0.000 C 
ATOM     23  C   UNL     1       2.854   3.563  18.647  0.00  0.00    +0.000 C 
ATOM     24  C   UNL     1       3.430   2.152  18.483  0.00  0.00    +0.000 C 
ENDBRANCH  14  23
ENDBRANCH   1  14
TORSDOF 6
ENDMDL
MODEL 7
REMARK VINA RESULT:      -6.2      2.115      2.772
REMARK  Name = 
REMARK  9 active torsions:
REMARK  status: ('A' for Active; 'I' for Inactive)
REMARK    1  A    between atoms: C_1  and  C_2
REMARK    2  A    between atoms: C_2  and  C_3
REMARK    3  A    between atoms: C_2  and  C_4
REMARK    4  A    between atoms: C_4  and  C_5
REMARK    5  A    between atoms: C_4  and  N_12
REMARK    6  A    between atoms: N_12  and  C_13
REMARK    7  A    between atoms: C_14  and  C_16
REMARK    8  A    between atoms: C_19  and  C_20
REMARK    9  A    between atoms: C_20  and  N_21
REMARK                            x       y       z     vdW  Elec       q    Type
REMARK                         _______ _______ _______ _____ _____    ______ ____
ROOT
ATOM      1  N   UNL     1       2.974   6.698  18.842  0.00  0.00    +0.000 N 
ATOM      2  C   UNL     1       3.113   7.813  17.910  0.00  0.00    +0.000 C 
ATOM      3  C   UNL     1       2.181   6.813  20.007  0.00  0.00    +0.000 C 
ATOM      4  O   UNL     1       2.111   5.903  20.833  0.00  0.00    +0.000 OA
ENDROOT
BRANCH   3   5
ATOM      5  C   UNL     1       1.442   8.076  20.242  0.00  0.00    +0.000 A 
ATOM      6  C   UNL     1       1.207   9.011  19.247  0.00  0.00    +0.000 A 
ATOM      7  S   UNL     1       0.282  10.323  19.851  0.00  0.00    +0.000 S 
ATOM      8  C   UNL     1       0.295   9.604  21.408  0.00  0.00    +0.000 A 
ATOM      9  N   UNL     1       0.929   8.452  21.488  0.00  0.00    +0.000 NA
BRANCH   8  10
ATOM     10  C   UNL     1      -0.398  10.252  22.577  0.00  0.00    +0.000 C 
BRANCH  10  11
ATOM     11  N   UNL     1       0.044   9.672  23.849  0.00  0.00    +0.000 NA
ATOM     12  H   UNL     1       1.042   9.468  23.767  0.00  0.00    +0.000 HD
ATOM     13  H   UNL     1      -0.421   8.778  23.989  0.00  0.00    +0.000 HD
ENDBRANCH  10  11
ENDBRANCH   8  10
ENDBRANCH   3   5
BRANCH   1  14
ATOM     14  C   UNL     1       3.711   5.429  18.603  0.00  0.00    +0.000 C 
BRANCH  14  15
ATOM     15  C   UNL     1       5.224   5.683  18.453  0.00  0.00    +0.000 A 
ATOM     16  C   UNL     1       6.118   5.405  19.516  0.00  0.00    +0.000 A 
ATOM     17  C   UNL     1       7.491   5.601  19.400  0.00  0.00    +0.000 A 
ATOM     18  C   UNL     1       8.022   6.063  18.204  0.00  0.00    +0.000 A 
ATOM     19  C   UNL     1       7.169   6.327  17.127  0.00  0.00    +0.000 A 
ATOM     20  C   UNL     1       5.786   6.142  17.246  0.00  0.00    +0.000 A 
ATOM     21 CL   UNL     1       4.826   6.487  15.851  0.00  0.00    +0.000 Cl
ENDBRANCH  14  15
BRANCH  14  23
ATOM     22  C   UNL     1       3.807   3.194  17.346  0.00  0.00    +0.000 C 
ATOM     23  C   UNL     1       3.109   4.567  17.434  0.00  0.00    +0.000 C 
ATOM     24  C   UNL     1       1.602   4.312  17.542  0.00  0.00    +0.000 C 
ENDBRANCH  14  23
ENDBRANCH   1  14
TORSDOF 6
ENDMDL
MODEL 8
REMARK VINA RESULT:      -6.2      4.602      7.162
REMARK  Name = 
REMARK  9 active torsions:
REMARK  status: ('A' for Active; 'I' for Inactive)
REMARK    1  A    between atoms: C_1  and  C_2
REMARK    2  A    between atoms: C_2  and  C_3
REMARK    3  A    between atoms: C_2  and  C_4
REMARK    4  A    between atoms: C_4  and  C_5
REMARK    5  A    between atoms: C_4  and  N_12
REMARK    6  A    between atoms: N_12  and  C_13
REMARK    7  A    between atoms: C_14  and  C_16
REMARK    8  A    between atoms: C_19  and  C_20
REMARK    9  A    between atoms: C_20  and  N_21
REMARK                            x       y       z     vdW  Elec       q    Type
REMARK                         _______ _______ _______ _____ _____    ______ ____
ROOT
ATOM      1  N   UNL     1       1.256  12.019  19.540  0.00  0.00    +0.000 N 
ATOM      2  C   UNL     1       2.180  12.401  18.476  0.00  0.00    +0.000 C 
ATOM      3  C   UNL     1       1.259  12.687  20.786  0.00  0.00    +0.000 C 
ATOM      4  O   UNL     1       0.532  12.330  21.713  0.00  0.00    +0.000 OA
ENDROOT
BRANCH   3   5
ATOM      5  C   UNL     1       2.186  13.828  20.978  0.00  0.00    +0.000 A 
ATOM      6  C   UNL     1       1.871  15.127  20.619  0.00  0.00    +0.000 A 
ATOM      7  S   UNL     1       3.146  16.199  21.029  0.00  0.00    +0.000 S 
ATOM      8  C   UNL     1       4.064  14.870  21.606  0.00  0.00    +0.000 A 
ATOM      9  N   UNL     1       3.468  13.699  21.522  0.00  0.00    +0.000 NA
BRANCH   8  10
ATOM     10  C   UNL     1       5.441  15.062  22.186  0.00  0.00    +0.000 C 
BRANCH  10  11
ATOM     11  N   UNL     1       6.344  15.691  21.218  0.00  0.00    +0.000 NA
ATOM     12  H   UNL     1       5.770  16.105  20.480  0.00  0.00    +0.000 HD
ATOM     13  H   UNL     1       6.912  14.974  20.772  0.00  0.00    +0.000 HD
ENDBRANCH  10  11
ENDBRANCH   8  10
ENDBRANCH   3   5
BRANCH   1  14
ATOM     14  C   UNL     1       0.323  10.878  19.345  0.00  0.00    +0.000 C 
BRANCH  14  15
ATOM     15  C   UNL     1       1.092   9.553  19.169  0.00  0.00    +0.000 A 
ATOM     16  C   UNL     1       1.694   9.219  17.932  0.00  0.00    +0.000 A 
ATOM     17  C   UNL     1       2.415   8.042  17.752  0.00  0.00    +0.000 A 
ATOM     18  C   UNL     1       2.578   7.166  18.815  0.00  0.00    +0.000 A 
ATOM     19  C   UNL     1       2.014   7.476  20.058  0.00  0.00    +0.000 A 
ATOM     20  C   UNL     1       1.277   8.654  20.236  0.00  0.00    +0.000 A 
ATOM     21 CL   UNL     1       0.636   8.944  21.814  0.00  0.00    +0.000 Cl
ENDBRANCH  14  15
BRANCH  14  23
ATOM     22  C   UNL     1      -1.847  10.050  18.253  0.00  0.00    +0.000 C 
ATOM     23  C   UNL     1      -0.744  11.128  18.217  0.00  0.00    +0.000 C 
ATOM     24  C   UNL     1      -1.432  12.496  18.285  0.00  0.00    +0.000 C 
ENDBRANCH  14  23
ENDBRANCH   1  14
TORSDOF 6
ENDMDL
MODEL 9
REMARK VINA RESULT:      -6.1      1.309      1.786
REMARK  Name = 
REMARK  9 active torsions:
REMARK  status: ('A' for Active; 'I' for Inactive)
REMARK    1  A    between atoms: C_1  and  C_2
REMARK    2  A    between atoms: C_2  and  C_3
REMARK    3  A    between atoms: C_2  and  C_4
REMARK    4  A    between atoms: C_4  and  C_5
REMARK    5  A    between atoms: C_4  and  N_12
REMARK    6  A    between atoms: N_12  and  C_13
REMARK    7  A    between atoms: C_14  and  C_16
REMARK    8  A    between atoms: C_19  and  C_20
REMARK    9  A    between atoms: C_20  and  N_21
REMARK                            x       y       z     vdW  Elec       q    Type
REMARK                         _______ _______ _______ _____ _____    ______ ____
ROOT
ATOM      1  N   UNL     1       3.066   6.258  18.872  0.00  0.00    +0.000 N 
ATOM      2  C   UNL     1       3.393   7.303  17.907  0.00  0.00    +0.000 C 
ATOM      3  C   UNL     1       2.246   6.526  19.991  0.00  0.00    +0.000 C 
ATOM      4  O   UNL     1       2.020   5.670  20.847  0.00  0.00    +0.000 OA
ENDROOT
BRANCH   3   5
ATOM      5  C   UNL     1       1.672   7.885  20.143  0.00  0.00    +0.000 A 
ATOM      6  C   UNL     1       1.299   8.416  21.366  0.00  0.00    +0.000 A 
ATOM      7  S   UNL     1       0.726  10.022  21.183  0.00  0.00    +0.000 S 
ATOM      8  C   UNL     1       0.951   9.899  19.487  0.00  0.00    +0.000 A 
ATOM      9  N   UNL     1       1.438   8.749  19.068  0.00  0.00    +0.000 NA
BRANCH   8  10
ATOM     10  C   UNL     1       0.632  11.049  18.569  0.00  0.00    +0.000 C 
BRANCH  10  11
ATOM     11  N   UNL     1       1.852  11.696  18.078  0.00  0.00    +0.000 NA
ATOM     12  H   UNL     1       1.666  12.698  18.007  0.00  0.00    +0.000 HD
ATOM     13  H   UNL     1       2.047  11.372  17.133  0.00  0.00    +0.000 HD
ENDBRANCH  10  11
ENDBRANCH   8  10
ENDBRANCH   3   5
BRANCH   1  14
ATOM     14  C   UNL     1       3.638   4.894  18.717  0.00  0.00    +0.000 C 
BRANCH  14  15
ATOM     15  C   UNL     1       5.148   4.954  18.412  0.00  0.00    +0.000 A 
ATOM     16  C   UNL     1       6.086   5.242  19.434  0.00  0.00    +0.000 A 
ATOM     17  C   UNL     1       7.456   5.278  19.193  0.00  0.00    +0.000 A 
ATOM     18  C   UNL     1       7.939   5.004  17.922  0.00  0.00    +0.000 A 
ATOM     19  C   UNL     1       7.041   4.694  16.894  0.00  0.00    +0.000 A 
ATOM     20  C   UNL     1       5.661   4.670  17.132  0.00  0.00    +0.000 A 
ATOM     21 CL   UNL     1       4.643   4.264  15.796  0.00  0.00    +0.000 Cl
ENDBRANCH  14  15
BRANCH  14  23
ATOM     22  C   UNL     1       2.893   2.510  18.131  0.00  0.00    +0.000 C 
ATOM     23  C   UNL     1       2.838   3.992  17.707  0.00  0.00    +0.000 C 
ATOM     24  C   UNL     1       1.362   4.372  17.546  0.00  0.00    +0.000 C 
ENDBRANCH  14  23
ENDBRANCH   1  14
TORSDOF 6
ENDMDL
