MODEL 1
REMARK VINA RESULT:      -8.7      0.000      0.000
REMARK  Name = 
REMARK  6 active torsions:
REMARK  status: ('A' for Active; 'I' for Inactive)
REMARK    1  A    between atoms: C_2  and  C_4
REMARK    2  A    between atoms: C_4  and  C_5
REMARK    3  A    between atoms: C_4  and  C_18
REMARK    4  A    between atoms: C_8  and  C_9
REMARK    5  A    between atoms: C_18  and  N_19
REMARK    6  A    between atoms: C_18  and  C_20
REMARK                            x       y       z     vdW  Elec       q    Type
REMARK                         _______ _______ _______ _____ _____    ______ ____
ROOT
ATOM      1  C   UNL     1       3.275   4.187  20.171  0.00  0.00    +0.000 C 
ENDROOT
BRANCH   1   2
ATOM      2  C   UNL     1       2.545   5.470  19.738  0.00  0.00    +0.000 A 
ATOM      3  C   UNL     1       1.843   6.224  20.712  0.00  0.00    +0.000 A 
ATOM      4  C   UNL     1       1.478   7.556  20.467  0.00  0.00    +0.000 A 
ATOM      5  C   UNL     1       1.748   8.190  19.240  0.00  0.00    +0.000 A 
ATOM      6  C   UNL     1       2.290   7.379  18.231  0.00  0.00    +0.000 A 
ATOM      7  C   UNL     1       2.659   6.036  18.465  0.00  0.00    +0.000 A 
BRANCH   5   8
ATOM      8  C   UNL     1       1.499   9.638  19.044  0.00  0.00    +0.000 A 
ATOM      9  C   UNL     1       2.255  10.406  18.130  0.00  0.00    +0.000 A 
ATOM     10  C   UNL     1       2.081  11.793  18.009  0.00  0.00    +0.000 A 
ATOM     11  C   UNL     1       1.128  12.429  18.786  0.00  0.00    +0.000 A 
ATOM     12  F   UNL     1       0.985  13.759  18.707  0.00  0.00    +0.000 F 
ATOM     13  C   UNL     1       0.323  11.703  19.652  0.00  0.00    +0.000 A 
ATOM     14  C   UNL     1       0.505  10.320  19.774  0.00  0.00    +0.000 A 
ENDBRANCH   5   8
ENDBRANCH   1   2
BRANCH   1  16
ATOM     15  N   UNL     1       1.446   2.519  20.187  0.00  0.00    +0.000 N 
ATOM     16  C   UNL     1       2.444   3.128  20.882  0.00  0.00    +0.000 C 
ATOM     17  O   UNL     1       2.579   2.894  22.081  0.00  0.00    +0.000 OA
ATOM     18  H   UNL     1       0.955   1.781  20.676  0.00  0.00    +0.000 HD
ATOM     19  H   UNL     1       1.487   2.448  19.177  0.00  0.00    +0.000 HD
ENDBRANCH   1  16
BRANCH   1  20
ATOM     20  C   UNL     1       4.293   3.482  19.189  0.00  0.00    +0.000 C 
BRANCH  20  21
ATOM     21  C   UNL     1       5.511   4.336  18.764  0.00  0.00    +0.000 C 
ATOM     22  O   UNL     1       6.206   4.918  19.610  0.00  0.00    +0.000 OA
ATOM     23  N   UNL     1       5.864   4.334  17.427  0.00  0.00    +0.000 N 
ATOM     24  C   UNL     1       7.086   5.005  17.012  0.00  0.00    +0.000 C 
ATOM     25  C   UNL     1       7.056   4.998  15.489  0.00  0.00    +0.000 C 
ATOM     26  C   UNL     1       5.569   5.091  15.208  0.00  0.00    +0.000 C 
ATOM     27  F   UNL     1       5.157   6.368  15.430  0.00  0.00    +0.000 F 
ATOM     28  C   UNL     1       4.967   4.175  16.276  0.00  0.00    +0.000 C 
ENDBRANCH  20  21
BRANCH  20  29
ATOM     29  N   UNL     1       4.810   2.186  19.729  0.00  0.00    +0.000 NA
ATOM     30  H   UNL     1       4.106   1.857  20.408  0.00  0.00    +0.000 HD
ATOM     31  H   UNL     1       5.614   2.394  20.324  0.00  0.00    +0.000 HD
ENDBRANCH  20  29
ENDBRANCH   1  20
TORSDOF 6
ENDMDL
MODEL 2
REMARK VINA RESULT:      -8.6      1.380      1.721
REMARK  Name = 
REMARK  6 active torsions:
REMARK  status: ('A' for Active; 'I' for Inactive)
REMARK    1  A    between atoms: C_2  and  C_4
REMARK    2  A    between atoms: C_4  and  C_5
REMARK    3  A    between atoms: C_4  and  C_18
REMARK    4  A    between atoms: C_8  and  C_9
REMARK    5  A    between atoms: C_18  and  N_19
REMARK    6  A    between atoms: C_18  and  C_20
REMARK                            x       y       z     vdW  Elec       q    Type
REMARK                         _______ _______ _______ _____ _____    ______ ____
ROOT
ATOM      1  C   UNL     1       2.968   3.701  19.096  0.00  0.00    +0.000 C 
ENDROOT
BRANCH   1   2
ATOM      2  C   UNL     1       2.771   5.193  19.416  0.00  0.00    +0.000 A 
ATOM      3  C   UNL     1       3.006   6.152  18.399  0.00  0.00    +0.000 A 
ATOM      4  C   UNL     1       2.507   7.457  18.510  0.00  0.00    +0.000 A 
ATOM      5  C   UNL     1       1.794   7.890  19.644  0.00  0.00    +0.000 A 
ATOM      6  C   UNL     1       1.719   6.981  20.709  0.00  0.00    +0.000 A 
ATOM      7  C   UNL     1       2.219   5.664  20.610  0.00  0.00    +0.000 A 
BRANCH   5   8
ATOM      8  C   UNL     1       1.138   9.219  19.687  0.00  0.00    +0.000 A 
ATOM      9  C   UNL     1       1.200  10.115  18.596  0.00  0.00    +0.000 A 
ATOM     10  C   UNL     1       0.656  11.406  18.668  0.00  0.00    +0.000 A 
ATOM     11  C   UNL     1       0.021  11.811  19.830  0.00  0.00    +0.000 A 
ATOM     12  F   UNL     1      -0.464  13.058  19.922  0.00  0.00    +0.000 F 
ATOM     13  C   UNL     1      -0.115  10.941  20.902  0.00  0.00    +0.000 A 
ATOM     14  C   UNL     1       0.435   9.656  20.827  0.00  0.00    +0.000 A 
ENDBRANCH   5   8
ENDBRANCH   1   2
BRANCH   1  16
ATOM     15  N   UNL     1       2.278   1.829  17.631  0.00  0.00    +0.000 N 
ATOM     16  C   UNL     1       2.009   3.081  18.089  0.00  0.00    +0.000 C 
ATOM     17  O   UNL     1       1.075   3.717  17.605  0.00  0.00    +0.000 OA
ATOM     18  H   UNL     1       1.586   1.430  17.009  0.00  0.00    +0.000 HD
ATOM     19  H   UNL     1       2.818   1.178  18.190  0.00  0.00    +0.000 HD
ENDBRANCH   1  16
BRANCH   1  20
ATOM     20  C   UNL     1       4.419   3.122  18.864  0.00  0.00    +0.000 C 
BRANCH  20  21
ATOM     21  C   UNL     1       5.517   4.170  18.563  0.00  0.00    +0.000 C 
ATOM     22  O   UNL     1       6.093   4.770  19.483  0.00  0.00    +0.000 OA
ATOM     23  N   UNL     1       5.910   4.332  17.247  0.00  0.00    +0.000 N 
ATOM     24  C   UNL     1       7.037   5.200  16.942  0.00  0.00    +0.000 C 
ATOM     25  C   UNL     1       7.058   5.319  15.424  0.00  0.00    +0.000 C 
ATOM     26  C   UNL     1       5.583   5.226  15.084  0.00  0.00    +0.000 C 
ATOM     27  F   UNL     1       4.986   6.410  15.390  0.00  0.00    +0.000 F 
ATOM     28  C   UNL     1       5.083   4.149  16.049  0.00  0.00    +0.000 C 
ENDBRANCH  20  21
BRANCH  20  29
ATOM     29  N   UNL     1       4.893   2.281  20.007  0.00  0.00    +0.000 NA
ATOM     30  H   UNL     1       4.076   2.148  20.623  0.00  0.00    +0.000 HD
ATOM     31  H   UNL     1       5.515   2.854  20.580  0.00  0.00    +0.000 HD
ENDBRANCH  20  29
ENDBRANCH   1  20
TORSDOF 6
ENDMDL
MODEL 3
REMARK VINA RESULT:      -8.4      4.389      8.083
REMARK  Name = 
REMARK  6 active torsions:
REMARK  status: ('A' for Active; 'I' for Inactive)
REMARK    1  A    between atoms: C_2  and  C_4
REMARK    2  A    between atoms: C_4  and  C_5
REMARK    3  A    between atoms: C_4  and  C_18
REMARK    4  A    between atoms: C_8  and  C_9
REMARK    5  A    between atoms: C_18  and  N_19
REMARK    6  A    between atoms: C_18  and  C_20
REMARK                            x       y       z     vdW  Elec       q    Type
REMARK                         _______ _______ _______ _____ _____    ______ ____
ROOT
ATOM      1  C   UNL     1       0.452   9.399  20.858  0.00  0.00    +0.000 C 
ENDROOT
BRANCH   1   2
ATOM      2  C   UNL     1       1.219   8.401  19.974  0.00  0.00    +0.000 A 
ATOM      3  C   UNL     1       1.670   8.817  18.696  0.00  0.00    +0.000 A 
ATOM      4  C   UNL     1       2.662   8.101  18.013  0.00  0.00    +0.000 A 
ATOM      5  C   UNL     1       3.223   6.920  18.535  0.00  0.00    +0.000 A 
ATOM      6  C   UNL     1       2.647   6.432  19.717  0.00  0.00    +0.000 A 
ATOM      7  C   UNL     1       1.646   7.144  20.413  0.00  0.00    +0.000 A 
BRANCH   5   8
ATOM      8  C   UNL     1       4.377   6.256  17.883  0.00  0.00    +0.000 A 
ATOM      9  C   UNL     1       4.738   6.535  16.545  0.00  0.00    +0.000 A 
ATOM     10  C   UNL     1       5.774   5.844  15.899  0.00  0.00    +0.000 A 
ATOM     11  C   UNL     1       6.479   4.875  16.592  0.00  0.00    +0.000 A 
ATOM     12  F   UNL     1       7.441   4.180  15.969  0.00  0.00    +0.000 F 
ATOM     13  C   UNL     1       6.197   4.612  17.924  0.00  0.00    +0.000 A 
ATOM     14  C   UNL     1       5.158   5.301  18.563  0.00  0.00    +0.000 A 
ENDBRANCH   5   8
ENDBRANCH   1   2
BRANCH   1  16
ATOM     15  N   UNL     1      -0.290   9.362  23.219  0.00  0.00    +0.000 N 
ATOM     16  C   UNL     1       0.755   9.372  22.349  0.00  0.00    +0.000 C 
ATOM     17  O   UNL     1       1.902   9.470  22.781  0.00  0.00    +0.000 OA
ATOM     18  H   UNL     1      -0.048   9.285  24.199  0.00  0.00    +0.000 HD
ATOM     19  H   UNL     1      -1.190   8.988  22.942  0.00  0.00    +0.000 HD
ENDBRANCH   1  16
BRANCH   1  20
ATOM     20  C   UNL     1       0.263  10.895  20.388  0.00  0.00    +0.000 C 
BRANCH  20  21
ATOM     21  C   UNL     1      -1.202  11.352  20.185  0.00  0.00    +0.000 C 
ATOM     22  O   UNL     1      -1.834  11.888  21.107  0.00  0.00    +0.000 OA
ATOM     23  N   UNL     1      -1.739  11.245  18.916  0.00  0.00    +0.000 N 
ATOM     24  C   UNL     1      -3.060  11.798  18.653  0.00  0.00    +0.000 C 
ATOM     25  C   UNL     1      -3.426  11.325  17.252  0.00  0.00    +0.000 C 
ATOM     26  C   UNL     1      -2.736   9.975  17.189  0.00  0.00    +0.000 C 
ATOM     27  F   UNL     1      -3.454   9.079  17.919  0.00  0.00    +0.000 F 
ATOM     28  C   UNL     1      -1.405  10.246  17.894  0.00  0.00    +0.000 C 
ENDBRANCH  20  21
BRANCH  20  29
ATOM     29  N   UNL     1       0.923  11.875  21.306  0.00  0.00    +0.000 NA
ATOM     30  H   UNL     1       1.230  11.334  22.129  0.00  0.00    +0.000 HD
ATOM     31  H   UNL     1       0.196  12.479  21.694  0.00  0.00    +0.000 HD
ENDBRANCH  20  29
ENDBRANCH   1  20
TORSDOF 6
ENDMDL
MODEL 4
REMARK VINA RESULT:      -8.4      0.694      1.165
REMARK  Name = 
REMARK  6 active torsions:
REMARK  status: ('A' for Active; 'I' for Inactive)
REMARK    1  A    between atoms: C_2  and  C_4
REMARK    2  A    between atoms: C_4  and  C_5
REMARK    3  A    between atoms: C_4  and  C_18
REMARK    4  A    between atoms: C_8  and  C_9
REMARK    5  A    between atoms: C_18  and  N_19
REMARK    6  A    between atoms: C_18  and  C_20
REMARK                            x       y       z     vdW  Elec       q    Type
REMARK                         _______ _______ _______ _____ _____    ______ ____
ROOT
ATOM      1  C   UNL     1       2.861   4.849  20.216  0.00  0.00    +0.000 C 
ENDROOT
BRANCH   1   2
ATOM      2  C   UNL     1       2.214   6.174  19.781  0.00  0.00    +0.000 A 
ATOM      3  C   UNL     1       1.531   6.958  20.746  0.00  0.00    +0.000 A 
ATOM      4  C   UNL     1       1.246   8.309  20.507  0.00  0.00    +0.000 A 
ATOM      5  C   UNL     1       1.579   8.938  19.293  0.00  0.00    +0.000 A 
ATOM      6  C   UNL     1       2.098   8.108  18.289  0.00  0.00    +0.000 A 
ATOM      7  C   UNL     1       2.388   6.745  18.516  0.00  0.00    +0.000 A 
BRANCH   5   8
ATOM      8  C   UNL     1       1.415  10.400  19.107  0.00  0.00    +0.000 A 
ATOM      9  C   UNL     1       0.372  11.118  19.736  0.00  0.00    +0.000 A 
ATOM     10  C   UNL     1       0.162  12.483  19.491  0.00  0.00    +0.000 A 
ATOM     11  C   UNL     1       1.010  13.157  18.628  0.00  0.00    +0.000 A 
ATOM     12  F   UNL     1       0.791  14.451  18.356  0.00  0.00    +0.000 F 
ATOM     13  C   UNL     1       2.082  12.504  18.038  0.00  0.00    +0.000 A 
ATOM     14  C   UNL     1       2.283  11.139  18.280  0.00  0.00    +0.000 A 
ENDBRANCH   5   8
ENDBRANCH   1   2
BRANCH   1  16
ATOM     15  N   UNL     1       0.807   3.495  20.491  0.00  0.00    +0.000 N 
ATOM     16  C   UNL     1       1.995   3.891  21.022  0.00  0.00    +0.000 C 
ATOM     17  O   UNL     1       2.288   3.560  22.169  0.00  0.00    +0.000 OA
ATOM     18  H   UNL     1       0.289   2.814  21.031  0.00  0.00    +0.000 HD
ATOM     19  H   UNL     1       0.667   3.484  19.488  0.00  0.00    +0.000 HD
ENDBRANCH   1  16
BRANCH   1  20
ATOM     20  C   UNL     1       3.747   4.025  19.199  0.00  0.00    +0.000 C 
BRANCH  20  21
ATOM     21  C   UNL     1       5.099   4.672  18.815  0.00  0.00    +0.000 C 
ATOM     22  O   UNL     1       5.778   5.275  19.659  0.00  0.00    +0.000 OA
ATOM     23  N   UNL     1       5.574   4.458  17.534  0.00  0.00    +0.000 N 
ATOM     24  C   UNL     1       6.907   4.925  17.182  0.00  0.00    +0.000 C 
ATOM     25  C   UNL     1       7.021   4.726  15.676  0.00  0.00    +0.000 C 
ATOM     26  C   UNL     1       5.591   4.951  15.223  0.00  0.00    +0.000 C 
ATOM     27  F   UNL     1       5.327   6.285  15.249  0.00  0.00    +0.000 F 
ATOM     28  C   UNL     1       4.779   4.256  16.318  0.00  0.00    +0.000 C 
ENDBRANCH  20  21
BRANCH  20  29
ATOM     29  N   UNL     1       4.025   2.634  19.673  0.00  0.00    +0.000 NA
ATOM     30  H   UNL     1       4.845   2.307  19.139  0.00  0.00    +0.000 HD
ATOM     31  H   UNL     1       3.278   2.030  19.327  0.00  0.00    +0.000 HD
ENDBRANCH  20  29
ENDBRANCH   1  20
TORSDOF 6
ENDMDL
MODEL 5
REMARK VINA RESULT:      -8.1      2.476      4.521
REMARK  Name = 
REMARK  6 active torsions:
REMARK  status: ('A' for Active; 'I' for Inactive)
REMARK    1  A    between atoms: C_2  and  C_4
REMARK    2  A    between atoms: C_4  and  C_5
REMARK    3  A    between atoms: C_4  and  C_18
REMARK    4  A    between atoms: C_8  and  C_9
REMARK    5  A    between atoms: C_18  and  N_19
REMARK    6  A    between atoms: C_18  and  C_20
REMARK                            x       y       z     vdW  Elec       q    Type
REMARK                         _______ _______ _______ _____ _____    ______ ____
ROOT
ATOM      1  C   UNL     1       4.281   5.714  17.064  0.00  0.00    +0.000 C 
ENDROOT
BRANCH   1   2
ATOM      2  C   UNL     1       3.596   6.830  17.870  0.00  0.00    +0.000 A 
ATOM      3  C   UNL     1       3.313   8.066  17.235  0.00  0.00    +0.000 A 
ATOM      4  C   UNL     1       2.389   8.965  17.784  0.00  0.00    +0.000 A 
ATOM      5  C   UNL     1       1.735   8.711  19.004  0.00  0.00    +0.000 A 
ATOM      6  C   UNL     1       2.152   7.567  19.702  0.00  0.00    +0.000 A 
ATOM      7  C   UNL     1       3.084   6.655  19.160  0.00  0.00    +0.000 A 
BRANCH   5   8
ATOM      8  C   UNL     1       0.649   9.589  19.500  0.00  0.00    +0.000 A 
ATOM      9  C   UNL     1      -0.247  10.235  18.617  0.00  0.00    +0.000 A 
ATOM     10  C   UNL     1      -1.219  11.135  19.079  0.00  0.00    +0.000 A 
ATOM     11  C   UNL     1      -1.323  11.386  20.436  0.00  0.00    +0.000 A 
ATOM     12  F   UNL     1      -2.220  12.277  20.881  0.00  0.00    +0.000 F 
ATOM     13  C   UNL     1      -0.503  10.728  21.341  0.00  0.00    +0.000 A 
ATOM     14  C   UNL     1       0.470   9.834  20.875  0.00  0.00    +0.000 A 
ENDBRANCH   5   8
ENDBRANCH   1   2
BRANCH   1  16
ATOM     15  N   UNL     1       5.646   6.023  15.023  0.00  0.00    +0.000 N 
ATOM     16  C   UNL     1       5.595   6.065  16.381  0.00  0.00    +0.000 C 
ATOM     17  O   UNL     1       6.624   6.275  17.021  0.00  0.00    +0.000 OA
ATOM     18  H   UNL     1       6.519   6.319  14.606  0.00  0.00    +0.000 HD
ATOM     19  H   UNL     1       4.807   6.156  14.469  0.00  0.00    +0.000 HD
ENDBRANCH   1  16
BRANCH   1  20
ATOM     20  C   UNL     1       4.369   4.249  17.651  0.00  0.00    +0.000 C 
BRANCH  20  21
ATOM     21  C   UNL     1       3.015   3.527  17.853  0.00  0.00    +0.000 C 
ATOM     22  O   UNL     1       2.322   3.194  16.881  0.00  0.00    +0.000 OA
ATOM     23  N   UNL     1       2.663   3.169  19.140  0.00  0.00    +0.000 N 
ATOM     24  C   UNL     1       1.471   2.362  19.353  0.00  0.00    +0.000 C 
ATOM     25  C   UNL     1       1.262   2.337  20.862  0.00  0.00    +0.000 C 
ATOM     26  C   UNL     1       1.789   3.699  21.271  0.00  0.00    +0.000 C 
ATOM     27  F   UNL     1       0.870   4.645  20.938  0.00  0.00    +0.000 F 
ATOM     28  C   UNL     1       3.023   3.863  20.382  0.00  0.00    +0.000 C 
ENDBRANCH  20  21
BRANCH  20  29
ATOM     29  N   UNL     1       5.246   3.354  16.834  0.00  0.00    +0.000 NA
ATOM     30  H   UNL     1       5.785   2.788  17.508  0.00  0.00    +0.000 HD
ATOM     31  H   UNL     1       5.968   3.933  16.401  0.00  0.00    +0.000 HD
ENDBRANCH  20  29
ENDBRANCH   1  20
TORSDOF 6
ENDMDL
MODEL 6
REMARK VINA RESULT:      -8.1      1.176      1.555
REMARK  Name = 
REMARK  6 active torsions:
REMARK  status: ('A' for Active; 'I' for Inactive)
REMARK    1  A    between atoms: C_2  and  C_4
REMARK    2  A    between atoms: C_4  and  C_5
REMARK    3  A    between atoms: C_4  and  C_18
REMARK    4  A    between atoms: C_8  and  C_9
REMARK    5  A    between atoms: C_18  and  N_19
REMARK    6  A    between atoms: C_18  and  C_20
REMARK                            x       y       z     vdW  Elec       q    Type
REMARK                         _______ _______ _______ _____ _____    ______ ____
ROOT
ATOM      1  C   UNL     1       3.092   4.443  20.005  0.00  0.00    +0.000 C 
ENDROOT
BRANCH   1   2
ATOM      2  C   UNL     1       2.780   5.940  19.835  0.00  0.00    +0.000 A 
ATOM      3  C   UNL     1       2.924   6.533  18.555  0.00  0.00    +0.000 A 
ATOM      4  C   UNL     1       2.322   7.763  18.259  0.00  0.00    +0.000 A 
ATOM      5  C   UNL     1       1.590   8.486  19.220  0.00  0.00    +0.000 A 
ATOM      6  C   UNL     1       1.602   7.969  20.523  0.00  0.00    +0.000 A 
ATOM      7  C   UNL     1       2.206   6.731  20.834  0.00  0.00    +0.000 A 
BRANCH   5   8
ATOM      8  C   UNL     1       0.830   9.707  18.858  0.00  0.00    +0.000 A 
ATOM      9  C   UNL     1       1.263  10.995  19.244  0.00  0.00    +0.000 A 
ATOM     10  C   UNL     1       0.499  12.142  18.979  0.00  0.00    +0.000 A 
ATOM     11  C   UNL     1      -0.702  12.017  18.303  0.00  0.00    +0.000 A 
ATOM     12  F   UNL     1      -1.458  13.102  18.083  0.00  0.00    +0.000 F 
ATOM     13  C   UNL     1      -1.134  10.778  17.853  0.00  0.00    +0.000 A 
ATOM     14  C   UNL     1      -0.372   9.635  18.125  0.00  0.00    +0.000 A 
ENDBRANCH   5   8
ENDBRANCH   1   2
BRANCH   1  16
ATOM     15  N   UNL     1       2.079   3.064  21.793  0.00  0.00    +0.000 N 
ATOM     16  C   UNL     1       1.970   3.561  20.532  0.00  0.00    +0.000 C 
ATOM     17  O   UNL     1       1.035   3.203  19.818  0.00  0.00    +0.000 OA
ATOM     18  H   UNL     1       1.286   2.532  22.127  0.00  0.00    +0.000 HD
ATOM     19  H   UNL     1       2.632   3.546  22.493  0.00  0.00    +0.000 HD
ENDBRANCH   1  16
BRANCH   1  20
ATOM     20  C   UNL     1       3.888   3.664  18.883  0.00  0.00    +0.000 C 
BRANCH  20  21
ATOM     21  C   UNL     1       5.278   4.243  18.526  0.00  0.00    +0.000 C 
ATOM     22  O   UNL     1       6.064   4.604  19.415  0.00  0.00    +0.000 OA
ATOM     23  N   UNL     1       5.655   4.239  17.196  0.00  0.00    +0.000 N 
ATOM     24  C   UNL     1       7.008   4.639  16.838  0.00  0.00    +0.000 C 
ATOM     25  C   UNL     1       7.015   4.727  15.318  0.00  0.00    +0.000 C 
ATOM     26  C   UNL     1       5.594   5.170  15.025  0.00  0.00    +0.000 C 
ATOM     27  F   UNL     1       5.476   6.492  15.321  0.00  0.00    +0.000 F 
ATOM     28  C   UNL     1       4.775   4.355  16.027  0.00  0.00    +0.000 C 
ENDBRANCH  20  21
BRANCH  20  29
ATOM     29  N   UNL     1       4.067   2.215  19.206  0.00  0.00    +0.000 NA
ATOM     30  H   UNL     1       4.864   2.163  19.860  0.00  0.00    +0.000 HD
ATOM     31  H   UNL     1       4.432   1.751  18.372  0.00  0.00    +0.000 HD
ENDBRANCH  20  29
ENDBRANCH   1  20
TORSDOF 6
ENDMDL
MODEL 7
REMARK VINA RESULT:      -8.1      1.816      2.439
REMARK  Name = 
REMARK  6 active torsions:
REMARK  status: ('A' for Active; 'I' for Inactive)
REMARK    1  A    between atoms: C_2  and  C_4
REMARK    2  A    between atoms: C_4  and  C_5
REMARK    3  A    between atoms: C_4  and  C_18
REMARK    4  A    between atoms: C_8  and  C_9
REMARK    5  A    between atoms: C_18  and  N_19
REMARK    6  A    between atoms: C_18  and  C_20
REMARK                            x       y       z     vdW  Elec       q    Type
REMARK                         _______ _______ _______ _____ _____    ______ ____
ROOT
ATOM      1  C   UNL     1       2.598   5.172  19.206  0.00  0.00    +0.000 C 
ENDROOT
BRANCH   1   2
ATOM      2  C   UNL     1       2.305   6.651  19.510  0.00  0.00    +0.000 A 
ATOM      3  C   UNL     1       2.349   7.593  18.452  0.00  0.00    +0.000 A 
ATOM      4  C   UNL     1       1.751   8.854  18.584  0.00  0.00    +0.000 A 
ATOM      5  C   UNL     1       1.123   9.260  19.776  0.00  0.00    +0.000 A 
ATOM      6  C   UNL     1       1.237   8.383  20.865  0.00  0.00    +0.000 A 
ATOM      7  C   UNL     1       1.839   7.112  20.745  0.00  0.00    +0.000 A 
BRANCH   5   8
ATOM      8  C   UNL     1       0.360  10.529  19.857  0.00  0.00    +0.000 A 
ATOM      9  C   UNL     1      -0.809  10.745  19.093  0.00  0.00    +0.000 A 
ATOM     10  C   UNL     1      -1.482  11.976  19.102  0.00  0.00    +0.000 A 
ATOM     11  C   UNL     1      -1.004  13.005  19.895  0.00  0.00    +0.000 A 
ATOM     12  F   UNL     1      -1.615  14.198  19.877  0.00  0.00    +0.000 F 
ATOM     13  C   UNL     1       0.106  12.816  20.706  0.00  0.00    +0.000 A 
ATOM     14  C   UNL     1       0.777  11.587  20.689  0.00  0.00    +0.000 A 
ENDBRANCH   5   8
ENDBRANCH   1   2
BRANCH   1  16
ATOM     15  N   UNL     1       2.687   3.091  20.545  0.00  0.00    +0.000 N 
ATOM     16  C   UNL     1       1.938   4.139  20.109  0.00  0.00    +0.000 C 
ATOM     17  O   UNL     1       0.734   4.171  20.360  0.00  0.00    +0.000 OA
ATOM     18  H   UNL     1       2.228   2.460  21.189  0.00  0.00    +0.000 HD
ATOM     19  H   UNL     1       3.693   3.173  20.625  0.00  0.00    +0.000 HD
ENDBRANCH   1  16
BRANCH   1  20
ATOM     20  C   UNL     1       2.586   4.649  17.715  0.00  0.00    +0.000 C 
BRANCH  20  21
ATOM     21  C   UNL     1       3.830   3.836  17.282  0.00  0.00    +0.000 C 
ATOM     22  O   UNL     1       3.920   2.626  17.537  0.00  0.00    +0.000 OA
ATOM     23  N   UNL     1       4.780   4.476  16.508  0.00  0.00    +0.000 N 
ATOM     24  C   UNL     1       5.888   3.709  15.960  0.00  0.00    +0.000 C 
ATOM     25  C   UNL     1       6.836   4.738  15.359  0.00  0.00    +0.000 C 
ATOM     26  C   UNL     1       6.635   5.923  16.283  0.00  0.00    +0.000 C 
ATOM     27  F   UNL     1       7.284   5.684  17.454  0.00  0.00    +0.000 F 
ATOM     28  C   UNL     1       5.125   5.903  16.531  0.00  0.00    +0.000 C 
ENDBRANCH  20  21
BRANCH  20  29
ATOM     29  N   UNL     1       1.375   3.829  17.403  0.00  0.00    +0.000 NA
ATOM     30  H   UNL     1       1.502   2.930  17.894  0.00  0.00    +0.000 HD
ATOM     31  H   UNL     1       1.427   3.555  16.420  0.00  0.00    +0.000 HD
ENDBRANCH  20  29
ENDBRANCH   1  20
TORSDOF 6
ENDMDL
MODEL 8
REMARK VINA RESULT:      -8.0      4.797      6.638
REMARK  Name = 
REMARK  6 active torsions:
REMARK  status: ('A' for Active; 'I' for Inactive)
REMARK    1  A    between atoms: C_2  and  C_4
REMARK    2  A    between atoms: C_4  and  C_5
REMARK    3  A    between atoms: C_4  and  C_18
REMARK    4  A    between atoms: C_8  and  C_9
REMARK    5  A    between atoms: C_18  and  N_19
REMARK    6  A    between atoms: C_18  and  C_20
REMARK                            x       y       z     vdW  Elec       q    Type
REMARK                         _______ _______ _______ _____ _____    ______ ____
ROOT
ATOM      1  C   UNL     1       6.201   5.509  17.681  0.00  0.00    +0.000 C 
ENDROOT
BRANCH   1   2
ATOM      2  C   UNL     1       7.222   6.645  17.866  0.00  0.00    +0.000 A 
ATOM      3  C   UNL     1       7.116   7.805  17.058  0.00  0.00    +0.000 A 
ATOM      4  C   UNL     1       7.766   8.995  17.416  0.00  0.00    +0.000 A 
ATOM      5  C   UNL     1       8.583   9.084  18.558  0.00  0.00    +0.000 A 
ATOM      6  C   UNL     1       8.812   7.885  19.249  0.00  0.00    +0.000 A 
ATOM      7  C   UNL     1       8.165   6.680  18.898  0.00  0.00    +0.000 A 
BRANCH   5   8
ATOM      8  C   UNL     1       9.140  10.380  19.014  0.00  0.00    +0.000 A 
ATOM      9  C   UNL     1       9.494  11.400  18.101  0.00  0.00    +0.000 A 
ATOM     10  C   UNL     1      10.103  12.591  18.523  0.00  0.00    +0.000 A 
ATOM     11  C   UNL     1      10.346  12.789  19.872  0.00  0.00    +0.000 A 
ATOM     12  F   UNL     1      10.965  13.905  20.279  0.00  0.00    +0.000 F 
ATOM     13  C   UNL     1       9.959  11.839  20.806  0.00  0.00    +0.000 A 
ATOM     14  C   UNL     1       9.357  10.649  20.379  0.00  0.00    +0.000 A 
ENDBRANCH   5   8
ENDBRANCH   1   2
BRANCH   1  16
ATOM     15  N   UNL     1       5.571   3.680  16.138  0.00  0.00    +0.000 N 
ATOM     16  C   UNL     1       6.573   4.400  16.708  0.00  0.00    +0.000 C 
ATOM     17  O   UNL     1       7.743   4.074  16.512  0.00  0.00    +0.000 OA
ATOM     18  H   UNL     1       5.857   2.992  15.453  0.00  0.00    +0.000 HD
ATOM     19  H   UNL     1       4.647   4.079  16.024  0.00  0.00    +0.000 HD
ENDBRANCH   1  16
BRANCH   1  20
ATOM     20  C   UNL     1       5.472   4.883  18.935  0.00  0.00    +0.000 C 
BRANCH  20  21
ATOM     21  C   UNL     1       3.957   5.182  19.046  0.00  0.00    +0.000 C 
ATOM     22  O   UNL     1       3.498   6.279  18.694  0.00  0.00    +0.000 OA
ATOM     23  N   UNL     1       3.125   4.152  19.442  0.00  0.00    +0.000 N 
ATOM     24  C   UNL     1       1.684   4.351  19.417  0.00  0.00    +0.000 C 
ATOM     25  C   UNL     1       1.093   3.127  20.104  0.00  0.00    +0.000 C 
ATOM     26  C   UNL     1       2.167   2.792  21.121  0.00  0.00    +0.000 C 
ATOM     27  F   UNL     1       2.091   3.680  22.150  0.00  0.00    +0.000 F 
ATOM     28  C   UNL     1       3.459   3.040  20.339  0.00  0.00    +0.000 C 
ENDBRANCH  20  21
BRANCH  20  29
ATOM     29  N   UNL     1       5.651   3.401  19.025  0.00  0.00    +0.000 NA
ATOM     30  H   UNL     1       5.182   3.107  19.896  0.00  0.00    +0.000 HD
ATOM     31  H   UNL     1       6.635   3.217  19.228  0.00  0.00    +0.000 HD
ENDBRANCH  20  29
ENDBRANCH   1  20
TORSDOF 6
ENDMDL
MODEL 9
REMARK VINA RESULT:      -7.9      1.014      1.479
REMARK  Name = 
REMARK  6 active torsions:
REMARK  status: ('A' for Active; 'I' for Inactive)
REMARK    1  A    between atoms: C_2  and  C_4
REMARK    2  A    between atoms: C_4  and  C_5
REMARK    3  A    between atoms: C_4  and  C_18
REMARK    4  A    between atoms: C_8  and  C_9
REMARK    5  A    between atoms: C_18  and  N_19
REMARK    6  A    between atoms: C_18  and  C_20
REMARK                            x       y       z     vdW  Elec       q    Type
REMARK                         _______ _______ _______ _____ _____    ______ ____
ROOT
ATOM      1  C   UNL     1       2.833   4.230  19.712  0.00  0.00    +0.000 C 
ENDROOT
BRANCH   1   2
ATOM      2  C   UNL     1       2.617   5.751  19.633  0.00  0.00    +0.000 A 
ATOM      3  C   UNL     1       2.672   6.390  18.369  0.00  0.00    +0.000 A 
ATOM      4  C   UNL     1       2.136   7.672  18.185  0.00  0.00    +0.000 A 
ATOM      5  C   UNL     1       1.562   8.400  19.244  0.00  0.00    +0.000 A 
ATOM      6  C   UNL     1       1.668   7.823  20.518  0.00  0.00    +0.000 A 
ATOM      7  C   UNL     1       2.208   6.534  20.717  0.00  0.00    +0.000 A 
BRANCH   5   8
ATOM      8  C   UNL     1       0.860   9.685  19.011  0.00  0.00    +0.000 A 
ATOM      9  C   UNL     1      -0.313   9.761  18.227  0.00  0.00    +0.000 A 
ATOM     10  C   UNL     1      -0.928  10.987  17.933  0.00  0.00    +0.000 A 
ATOM     11  C   UNL     1      -0.387  12.157  18.439  0.00  0.00    +0.000 A 
ATOM     12  F   UNL     1      -0.943  13.336  18.128  0.00  0.00    +0.000 F 
ATOM     13  C   UNL     1       0.729  12.121  19.263  0.00  0.00    +0.000 A 
ATOM     14  C   UNL     1       1.342  10.895  19.548  0.00  0.00    +0.000 A 
ENDBRANCH   5   8
ENDBRANCH   1   2
BRANCH   1  16
ATOM     15  N   UNL     1       0.942   2.873  18.871  0.00  0.00    +0.000 N 
ATOM     16  C   UNL     1       1.600   3.370  19.952  0.00  0.00    +0.000 C 
ATOM     17  O   UNL     1       1.130   3.209  21.076  0.00  0.00    +0.000 OA
ATOM     18  H   UNL     1       0.164   2.259  19.073  0.00  0.00    +0.000 HD
ATOM     19  H   UNL     1       1.428   2.719  17.995  0.00  0.00    +0.000 HD
ENDBRANCH   1  16
BRANCH   1  20
ATOM     20  C   UNL     1       3.783   3.507  18.676  0.00  0.00    +0.000 C 
BRANCH  20  21
ATOM     21  C   UNL     1       5.161   4.176  18.454  0.00  0.00    +0.000 C 
ATOM     22  O   UNL     1       5.858   4.530  19.416  0.00  0.00    +0.000 OA
ATOM     23  N   UNL     1       5.634   4.260  17.158  0.00  0.00    +0.000 N 
ATOM     24  C   UNL     1       6.985   4.748  16.923  0.00  0.00    +0.000 C 
ATOM     25  C   UNL     1       7.099   4.915  15.414  0.00  0.00    +0.000 C 
ATOM     26  C   UNL     1       5.681   5.298  15.035  0.00  0.00    +0.000 C 
ATOM     27  F   UNL     1       5.467   6.595  15.385  0.00  0.00    +0.000 F 
ATOM     28  C   UNL     1       4.837   4.390  15.932  0.00  0.00    +0.000 C 
ENDBRANCH  20  21
BRANCH  20  29
ATOM     29  N   UNL     1       4.023   2.071  19.020  0.00  0.00    +0.000 NA
ATOM     30  H   UNL     1       5.017   2.004  19.291  0.00  0.00    +0.000 HD
ATOM     31  H   UNL     1       3.991   1.532  18.153  0.00  0.00    +0.000 HD
ENDBRANCH  20  29
ENDBRANCH   1  20
TORSDOF 6
ENDMDL
