MODEL 1
REMARK VINA RESULT:      -8.5      0.000      0.000
REMARK  Name = 
REMARK  10 active torsions:
REMARK  status: ('A' for Active; 'I' for Inactive)
REMARK    1  A    between atoms: C_1  and  C_2
REMARK    2  A    between atoms: C_2  and  O_3
REMARK    3  A    between atoms: O_3  and  C_4
REMARK    4  A    between atoms: C_4  and  C_6
REMARK    5  A    between atoms: C_8  and  C_9
REMARK    6  A    between atoms: C_9  and  C_10
REMARK    7  A    between atoms: C_10  and  N_11
REMARK    8  A    between atoms: C_20  and  O_21
REMARK    9  A    between atoms: C_24  and  O_25
REMARK   10  A    between atoms: O_25  and  C_26
REMARK                            x       y       z     vdW  Elec       q    Type
REMARK                         _______ _______ _______ _____ _____    ______ ____
ROOT
ATOM      1  C   UNL     1       2.391   4.685  18.384  0.00  0.00    +0.000 A 
ATOM      2  C   UNL     1       2.250   6.085  18.319  0.00  0.00    +0.000 A 
ATOM      3  C   UNL     1       3.306   6.917  17.912  0.00  0.00    +0.000 A 
ATOM      4  C   UNL     1       4.548   6.302  17.581  0.00  0.00    +0.000 A 
ATOM      5  C   UNL     1       4.686   4.872  17.604  0.00  0.00    +0.000 A 
ATOM      6  C   UNL     1       3.599   4.068  18.018  0.00  0.00    +0.000 A 
ATOM      7  C   UNL     1       5.984   4.217  17.175  0.00  0.00    +0.000 C 
ATOM      8  C   UNL     1       6.978   5.111  16.450  0.00  0.00    +0.000 C 
ATOM      9  C   UNL     1       7.062   6.457  17.139  0.00  0.00    +0.000 C 
ATOM     10  C   UNL     1       5.705   7.150  17.083  0.00  0.00    +0.000 C 
ENDROOT
BRANCH   1  11
ATOM     11  C   UNL     1       1.250   3.860  18.860  0.00  0.00    +0.000 C 
ATOM     12  O   UNL     1       0.740   2.951  18.228  0.00  0.00    +0.000 OA
BRANCH  11  13
ATOM     13  O   UNL     1       0.902   4.254  20.115  0.00  0.00    +0.000 OA
BRANCH  13  15
ATOM     14  C   UNL     1       1.595   2.566  21.720  0.00  0.00    +0.000 C 
ATOM     15  C   UNL     1       1.854   3.946  21.143  0.00  0.00    +0.000 C 
ENDBRANCH  13  15
ENDBRANCH  11  13
ENDBRANCH   1  11
BRANCH   6  16
ATOM     16  O   UNL     1       3.565   2.701  17.867  0.00  0.00    +0.000 OA
ATOM     17  C   UNL     1       4.000   1.887  18.950  0.00  0.00    +0.000 C 
ENDBRANCH   6  16
BRANCH   3  18
ATOM     18  C   UNL     1       2.991   8.398  17.676  0.00  0.00    +0.000 C 
BRANCH  18  19
ATOM     19  C   UNL     1       1.524   8.889  17.895  0.00  0.00    +0.000 C 
BRANCH  19  20
ATOM     20  N   UNL     1       1.366   9.857  19.014  0.00  0.00    +0.000 N 
ATOM     21  C   UNL     1       0.398   9.559  19.965  0.00  0.00    +0.000 A 
ATOM     22  N   UNL     1      -0.658  10.318  19.747  0.00  0.00    +0.000 NA
ATOM     23  C   UNL     1      -0.196  11.337  18.924  0.00  0.00    +0.000 A 
ATOM     24  C   UNL     1       1.178  11.223  18.855  0.00  0.00    +0.000 A 
ATOM     25  N   UNL     1       2.101  12.198  19.109  0.00  0.00    +0.000 N 
ATOM     26  C   UNL     1       1.699  13.456  19.570  0.00  0.00    +0.000 C 
ATOM     27  N   UNL     1       0.689  14.200  19.294  0.00  0.00    +0.000 NA
ATOM     28  C   UNL     1      -0.195  13.766  18.208  0.00  0.00    +0.000 C 
ATOM     29  C   UNL     1      -1.029  12.494  18.486  0.00  0.00    +0.000 C 
ATOM     30  H   UNL     1       2.951  11.884  19.573  0.00  0.00    +0.000 HD
BRANCH  29  31
ATOM     31  O   UNL     1      -1.706  12.158  17.255  0.00  0.00    +0.000 OA
ATOM     32  H   UNL     1      -1.051  12.247  16.553  0.00  0.00    +0.000 HD
ENDBRANCH  29  31
ENDBRANCH  19  20
ENDBRANCH  18  19
ENDBRANCH   3  18
TORSDOF 8
ENDMDL
MODEL 2
REMARK VINA RESULT:      -8.5      1.504      2.027
REMARK  Name = 
REMARK  10 active torsions:
REMARK  status: ('A' for Active; 'I' for Inactive)
REMARK    1  A    between atoms: C_1  and  C_2
REMARK    2  A    between atoms: C_2  and  O_3
REMARK    3  A    between atoms: O_3  and  C_4
REMARK    4  A    between atoms: C_4  and  C_6
REMARK    5  A    between atoms: C_8  and  C_9
REMARK    6  A    between atoms: C_9  and  C_10
REMARK    7  A    between atoms: C_10  and  N_11
REMARK    8  A    between atoms: C_20  and  O_21
REMARK    9  A    between atoms: C_24  and  O_25
REMARK   10  A    between atoms: O_25  and  C_26
REMARK                            x       y       z     vdW  Elec       q    Type
REMARK                         _______ _______ _______ _____ _____    ______ ____
ROOT
ATOM      1  C   UNL     1       2.204   4.279  18.374  0.00  0.00    +0.000 A 
ATOM      2  C   UNL     1       2.168   5.685  18.450  0.00  0.00    +0.000 A 
ATOM      3  C   UNL     1       3.178   6.482  17.887  0.00  0.00    +0.000 A 
ATOM      4  C   UNL     1       4.266   5.823  17.245  0.00  0.00    +0.000 A 
ATOM      5  C   UNL     1       4.287   4.392  17.127  0.00  0.00    +0.000 A 
ATOM      6  C   UNL     1       3.251   3.623  17.706  0.00  0.00    +0.000 A 
ATOM      7  C   UNL     1       5.406   3.699  16.373  0.00  0.00    +0.000 C 
ATOM      8  C   UNL     1       6.293   4.591  15.520  0.00  0.00    +0.000 C 
ATOM      9  C   UNL     1       6.631   5.859  16.275  0.00  0.00    +0.000 C 
ATOM     10  C   UNL     1       5.356   6.639  16.572  0.00  0.00    +0.000 C 
ENDROOT
BRANCH   1  11
ATOM     11  C   UNL     1       1.127   3.487  19.024  0.00  0.00    +0.000 C 
ATOM     12  O   UNL     1       0.495   2.598  18.479  0.00  0.00    +0.000 OA
BRANCH  11  13
ATOM     13  O   UNL     1       0.993   3.885  20.318  0.00  0.00    +0.000 OA
BRANCH  13  15
ATOM     14  C   UNL     1       2.677   2.665  21.575  0.00  0.00    +0.000 C 
ATOM     15  C   UNL     1       1.197   2.859  21.300  0.00  0.00    +0.000 C 
ENDBRANCH  13  15
ENDBRANCH  11  13
ENDBRANCH   1  11
BRANCH   6  16
ATOM     16  O   UNL     1       3.073   2.281  17.460  0.00  0.00    +0.000 OA
ATOM     17  C   UNL     1       3.718   1.344  18.314  0.00  0.00    +0.000 C 
ENDBRANCH   6  16
BRANCH   3  18
ATOM     18  C   UNL     1       2.943   7.996  17.840  0.00  0.00    +0.000 C 
BRANCH  18  19
ATOM     19  C   UNL     1       1.835   8.603  18.760  0.00  0.00    +0.000 C 
BRANCH  19  20
ATOM     20  N   UNL     1       1.192   9.829  18.212  0.00  0.00    +0.000 N 
ATOM     21  C   UNL     1       2.017  10.928  18.010  0.00  0.00    +0.000 A 
ATOM     22  N   UNL     1       1.815  11.794  18.983  0.00  0.00    +0.000 NA
ATOM     23  C   UNL     1       0.608  11.410  19.553  0.00  0.00    +0.000 A 
ATOM     24  C   UNL     1       0.062  10.432  18.745  0.00  0.00    +0.000 A 
ATOM     25  N   UNL     1      -1.192  10.416  18.202  0.00  0.00    +0.000 N 
ATOM     26  C   UNL     1      -2.054  11.504  18.367  0.00  0.00    +0.000 C 
ATOM     27  N   UNL     1      -2.272  12.298  19.354  0.00  0.00    +0.000 NA
ATOM     28  C   UNL     1      -1.611  11.992  20.627  0.00  0.00    +0.000 C 
ATOM     29  C   UNL     1      -0.074  12.163  20.645  0.00  0.00    +0.000 C 
ATOM     30  H   UNL     1      -1.255  10.029  17.262  0.00  0.00    +0.000 HD
BRANCH  29  31
ATOM     31  O   UNL     1       0.389  11.674  21.924  0.00  0.00    +0.000 OA
ATOM     32  H   UNL     1      -0.288  11.063  22.240  0.00  0.00    +0.000 HD
ENDBRANCH  29  31
ENDBRANCH  19  20
ENDBRANCH  18  19
ENDBRANCH   3  18
TORSDOF 8
ENDMDL
MODEL 3
REMARK VINA RESULT:      -8.2      1.799      3.844
REMARK  Name = 
REMARK  10 active torsions:
REMARK  status: ('A' for Active; 'I' for Inactive)
REMARK    1  A    between atoms: C_1  and  C_2
REMARK    2  A    between atoms: C_2  and  O_3
REMARK    3  A    between atoms: O_3  and  C_4
REMARK    4  A    between atoms: C_4  and  C_6
REMARK    5  A    between atoms: C_8  and  C_9
REMARK    6  A    between atoms: C_9  and  C_10
REMARK    7  A    between atoms: C_10  and  N_11
REMARK    8  A    between atoms: C_20  and  O_21
REMARK    9  A    between atoms: C_24  and  O_25
REMARK   10  A    between atoms: O_25  and  C_26
REMARK                            x       y       z     vdW  Elec       q    Type
REMARK                         _______ _______ _______ _____ _____    ______ ____
ROOT
ATOM      1  C   UNL     1       4.283   6.369  17.501  0.00  0.00    +0.000 A 
ATOM      2  C   UNL     1       3.419   7.269  18.155  0.00  0.00    +0.000 A 
ATOM      3  C   UNL     1       2.469   6.832  19.093  0.00  0.00    +0.000 A 
ATOM      4  C   UNL     1       2.387   5.434  19.356  0.00  0.00    +0.000 A 
ATOM      5  C   UNL     1       3.294   4.516  18.725  0.00  0.00    +0.000 A 
ATOM      6  C   UNL     1       4.238   4.994  17.787  0.00  0.00    +0.000 A 
ATOM      7  C   UNL     1       3.256   3.039  19.068  0.00  0.00    +0.000 C 
ATOM      8  C   UNL     1       2.450   2.657  20.298  0.00  0.00    +0.000 C 
ATOM      9  C   UNL     1       1.141   3.418  20.316  0.00  0.00    +0.000 C 
ATOM     10  C   UNL     1       1.416   4.915  20.402  0.00  0.00    +0.000 C 
ENDROOT
BRANCH   1  11
ATOM     11  C   UNL     1       5.241   6.885  16.488  0.00  0.00    +0.000 C 
ATOM     12  O   UNL     1       5.095   6.785  15.282  0.00  0.00    +0.000 OA
BRANCH  11  13
ATOM     13  O   UNL     1       6.270   7.513  17.119  0.00  0.00    +0.000 OA
BRANCH  13  15
ATOM     14  C   UNL     1       7.753   6.326  18.634  0.00  0.00    +0.000 C 
ATOM     15  C   UNL     1       7.489   6.760  17.204  0.00  0.00    +0.000 C 
ENDBRANCH  13  15
ENDBRANCH  11  13
ENDBRANCH   1  11
BRANCH   6  16
ATOM     16  O   UNL     1       5.277   4.235  17.301  0.00  0.00    +0.000 OA
ATOM     17  C   UNL     1       5.099   3.550  16.066  0.00  0.00    +0.000 C 
ENDBRANCH   6  16
BRANCH   3  18
ATOM     18  C   UNL     1       1.724   7.902  19.898  0.00  0.00    +0.000 C 
BRANCH  18  19
ATOM     19  C   UNL     1       1.419   9.271  19.207  0.00  0.00    +0.000 C 
BRANCH  19  20
ATOM     20  N   UNL     1       0.969  10.338  20.142  0.00  0.00    +0.000 N 
ATOM     21  C   UNL     1      -0.279  10.169  20.728  0.00  0.00    +0.000 A 
ATOM     22  N   UNL     1      -1.144  10.956  20.118  0.00  0.00    +0.000 NA
ATOM     23  C   UNL     1      -0.361  11.878  19.434  0.00  0.00    +0.000 A 
ATOM     24  C   UNL     1       0.945  11.692  19.841  0.00  0.00    +0.000 A 
ATOM     25  N   UNL     1       1.800  12.641  20.327  0.00  0.00    +0.000 N 
ATOM     26  C   UNL     1       1.362  13.951  20.543  0.00  0.00    +0.000 C 
ATOM     27  N   UNL     1       0.559  14.717  19.895  0.00  0.00    +0.000 NA
ATOM     28  C   UNL     1       0.058  14.234  18.605  0.00  0.00    +0.000 C 
ATOM     29  C   UNL     1      -0.913  13.031  18.667  0.00  0.00    +0.000 C 
ATOM     30  H   UNL     1       2.422  12.328  21.071  0.00  0.00    +0.000 HD
BRANCH  29  31
ATOM     31  O   UNL     1      -1.165  12.623  17.304  0.00  0.00    +0.000 OA
ATOM     32  H   UNL     1      -1.913  12.016  17.338  0.00  0.00    +0.000 HD
ENDBRANCH  29  31
ENDBRANCH  19  20
ENDBRANCH  18  19
ENDBRANCH   3  18
TORSDOF 8
ENDMDL
MODEL 4
REMARK VINA RESULT:      -8.0      1.855      4.012
REMARK  Name = 
REMARK  10 active torsions:
REMARK  status: ('A' for Active; 'I' for Inactive)
REMARK    1  A    between atoms: C_1  and  C_2
REMARK    2  A    between atoms: C_2  and  O_3
REMARK    3  A    between atoms: O_3  and  C_4
REMARK    4  A    between atoms: C_4  and  C_6
REMARK    5  A    between atoms: C_8  and  C_9
REMARK    6  A    between atoms: C_9  and  C_10
REMARK    7  A    between atoms: C_10  and  N_11
REMARK    8  A    between atoms: C_20  and  O_21
REMARK    9  A    between atoms: C_24  and  O_25
REMARK   10  A    between atoms: O_25  and  C_26
REMARK                            x       y       z     vdW  Elec       q    Type
REMARK                         _______ _______ _______ _____ _____    ______ ____
ROOT
ATOM      1  C   UNL     1       4.978   6.352  17.493  0.00  0.00    +0.000 A 
ATOM      2  C   UNL     1       3.821   7.152  17.416  0.00  0.00    +0.000 A 
ATOM      3  C   UNL     1       2.659   6.842  18.141  0.00  0.00    +0.000 A 
ATOM      4  C   UNL     1       2.672   5.671  18.953  0.00  0.00    +0.000 A 
ATOM      5  C   UNL     1       3.863   4.875  19.069  0.00  0.00    +0.000 A 
ATOM      6  C   UNL     1       5.014   5.220  18.324  0.00  0.00    +0.000 A 
ATOM      7  C   UNL     1       3.898   3.674  19.995  0.00  0.00    +0.000 C 
ATOM      8  C   UNL     1       2.751   3.559  20.986  0.00  0.00    +0.000 C 
ATOM      9  C   UNL     1       1.440   3.881  20.301  0.00  0.00    +0.000 C 
ATOM     10  C   UNL     1       1.461   5.320  19.799  0.00  0.00    +0.000 C 
ENDROOT
BRANCH   1  11
ATOM     11  C   UNL     1       6.165   6.707  16.672  0.00  0.00    +0.000 C 
ATOM     12  O   UNL     1       7.102   7.382  17.064  0.00  0.00    +0.000 OA
BRANCH  11  13
ATOM     13  O   UNL     1       6.053   6.132  15.444  0.00  0.00    +0.000 OA
BRANCH  13  15
ATOM     14  C   UNL     1       6.179   3.895  14.503  0.00  0.00    +0.000 C 
ATOM     15  C   UNL     1       6.922   5.015  15.208  0.00  0.00    +0.000 C 
ENDBRANCH  13  15
ENDBRANCH  11  13
ENDBRANCH   1  11
BRANCH   6  16
ATOM     16  O   UNL     1       6.251   4.655  18.533  0.00  0.00    +0.000 OA
ATOM     17  C   UNL     1       7.104   5.233  19.515  0.00  0.00    +0.000 C 
ENDBRANCH   6  16
BRANCH   3  18
ATOM     18  C   UNL     1       1.533   7.881  18.152  0.00  0.00    +0.000 C 
BRANCH  18  19
ATOM     19  C   UNL     1       1.917   9.392  18.051  0.00  0.00    +0.000 C 
BRANCH  19  20
ATOM     20  N   UNL     1       1.484  10.210  19.217  0.00  0.00    +0.000 N 
ATOM     21  C   UNL     1       0.403   9.732  19.947  0.00  0.00    +0.000 A 
ATOM     22  N   UNL     1      -0.668  10.429  19.624  0.00  0.00    +0.000 NA
ATOM     23  C   UNL     1      -0.174  11.568  19.002  0.00  0.00    +0.000 A 
ATOM     24  C   UNL     1       1.196  11.567  19.165  0.00  0.00    +0.000 A 
ATOM     25  N   UNL     1       1.968  12.574  19.675  0.00  0.00    +0.000 N 
ATOM     26  C   UNL     1       1.378  13.736  20.182  0.00  0.00    +0.000 C 
ATOM     27  N   UNL     1       0.362  14.428  19.809  0.00  0.00    +0.000 NA
ATOM     28  C   UNL     1      -0.283  14.057  18.546  0.00  0.00    +0.000 C 
ATOM     29  C   UNL     1      -1.028  12.702  18.543  0.00  0.00    +0.000 C 
ATOM     30  H   UNL     1       2.754  12.273  20.248  0.00  0.00    +0.000 HD
BRANCH  29  31
ATOM     31  O   UNL     1      -1.455  12.459  17.184  0.00  0.00    +0.000 OA
ATOM     32  H   UNL     1      -2.414  12.358  17.217  0.00  0.00    +0.000 HD
ENDBRANCH  29  31
ENDBRANCH  19  20
ENDBRANCH  18  19
ENDBRANCH   3  18
TORSDOF 8
ENDMDL
MODEL 5
REMARK VINA RESULT:      -8.0      2.432      4.589
REMARK  Name = 
REMARK  10 active torsions:
REMARK  status: ('A' for Active; 'I' for Inactive)
REMARK    1  A    between atoms: C_1  and  C_2
REMARK    2  A    between atoms: C_2  and  O_3
REMARK    3  A    between atoms: O_3  and  C_4
REMARK    4  A    between atoms: C_4  and  C_6
REMARK    5  A    between atoms: C_8  and  C_9
REMARK    6  A    between atoms: C_9  and  C_10
REMARK    7  A    between atoms: C_10  and  N_11
REMARK    8  A    between atoms: C_20  and  O_21
REMARK    9  A    between atoms: C_24  and  O_25
REMARK   10  A    between atoms: O_25  and  C_26
REMARK                            x       y       z     vdW  Elec       q    Type
REMARK                         _______ _______ _______ _____ _____    ______ ____
ROOT
ATOM      1  C   UNL     1       5.621   6.198  17.428  0.00  0.00    +0.000 A 
ATOM      2  C   UNL     1       4.422   6.921  17.272  0.00  0.00    +0.000 A 
ATOM      3  C   UNL     1       3.212   6.474  17.827  0.00  0.00    +0.000 A 
ATOM      4  C   UNL     1       3.223   5.244  18.546  0.00  0.00    +0.000 A 
ATOM      5  C   UNL     1       4.449   4.524  18.745  0.00  0.00    +0.000 A 
ATOM      6  C   UNL     1       5.648   5.006  18.171  0.00  0.00    +0.000 A 
ATOM      7  C   UNL     1       4.471   3.256  19.578  0.00  0.00    +0.000 C 
ATOM      8  C   UNL     1       3.231   2.982  20.413  0.00  0.00    +0.000 C 
ATOM      9  C   UNL     1       1.986   3.270  19.601  0.00  0.00    +0.000 C 
ATOM     10  C   UNL     1       1.953   4.744  19.213  0.00  0.00    +0.000 C 
ENDROOT
BRANCH   1  11
ATOM     11  C   UNL     1       6.863   6.699  16.784  0.00  0.00    +0.000 C 
ATOM     12  O   UNL     1       7.546   6.059  16.003  0.00  0.00    +0.000 OA
BRANCH  11  13
ATOM     13  O   UNL     1       7.085   7.985  17.172  0.00  0.00    +0.000 OA
BRANCH  13  15
ATOM     14  C   UNL     1       8.516   9.644  18.221  0.00  0.00    +0.000 C 
ATOM     15  C   UNL     1       8.179   8.171  18.081  0.00  0.00    +0.000 C 
ENDBRANCH  13  15
ENDBRANCH  11  13
ENDBRANCH   1  11
BRANCH   6  16
ATOM     16  O   UNL     1       6.893   4.510  18.485  0.00  0.00    +0.000 OA
ATOM     17  C   UNL     1       7.622   5.125  19.542  0.00  0.00    +0.000 C 
ENDBRANCH   6  16
BRANCH   3  18
ATOM     18  C   UNL     1       2.015   7.430  17.780  0.00  0.00    +0.000 C 
BRANCH  18  19
ATOM     19  C   UNL     1       2.028   8.681  18.717  0.00  0.00    +0.000 C 
BRANCH  19  20
ATOM     20  N   UNL     1       1.399   9.893  18.124  0.00  0.00    +0.000 N 
ATOM     21  C   UNL     1       2.208  11.014  17.990  0.00  0.00    +0.000 A 
ATOM     22  N   UNL     1       1.909  11.870  18.947  0.00  0.00    +0.000 NA
ATOM     23  C   UNL     1       0.672  11.452  19.421  0.00  0.00    +0.000 A 
ATOM     24  C   UNL     1       0.216  10.465  18.570  0.00  0.00    +0.000 A 
ATOM     25  N   UNL     1      -0.992  10.420  17.931  0.00  0.00    +0.000 N 
ATOM     26  C   UNL     1      -1.892  11.486  18.033  0.00  0.00    +0.000 C 
ATOM     27  N   UNL     1      -2.205  12.269  19.002  0.00  0.00    +0.000 NA
ATOM     28  C   UNL     1      -1.637  11.974  20.321  0.00  0.00    +0.000 C 
ATOM     29  C   UNL     1      -0.111  12.183  20.459  0.00  0.00    +0.000 C 
ATOM     30  H   UNL     1      -0.972  10.036  16.988  0.00  0.00    +0.000 HD
BRANCH  29  31
ATOM     31  O   UNL     1       0.264  11.699  21.768  0.00  0.00    +0.000 OA
ATOM     32  H   UNL     1       0.304  10.739  21.699  0.00  0.00    +0.000 HD
ENDBRANCH  29  31
ENDBRANCH  19  20
ENDBRANCH  18  19
ENDBRANCH   3  18
TORSDOF 8
ENDMDL
MODEL 6
REMARK VINA RESULT:      -7.9      1.975      4.140
REMARK  Name = 
REMARK  10 active torsions:
REMARK  status: ('A' for Active; 'I' for Inactive)
REMARK    1  A    between atoms: C_1  and  C_2
REMARK    2  A    between atoms: C_2  and  O_3
REMARK    3  A    between atoms: O_3  and  C_4
REMARK    4  A    between atoms: C_4  and  C_6
REMARK    5  A    between atoms: C_8  and  C_9
REMARK    6  A    between atoms: C_9  and  C_10
REMARK    7  A    between atoms: C_10  and  N_11
REMARK    8  A    between atoms: C_20  and  O_21
REMARK    9  A    between atoms: C_24  and  O_25
REMARK   10  A    between atoms: O_25  and  C_26
REMARK                            x       y       z     vdW  Elec       q    Type
REMARK                         _______ _______ _______ _____ _____    ______ ____
ROOT
ATOM      1  C   UNL     1       5.103   6.358  17.541  0.00  0.00    +0.000 A 
ATOM      2  C   UNL     1       3.949   7.154  17.404  0.00  0.00    +0.000 A 
ATOM      3  C   UNL     1       2.748   6.834  18.058  0.00  0.00    +0.000 A 
ATOM      4  C   UNL     1       2.720   5.656  18.860  0.00  0.00    +0.000 A 
ATOM      5  C   UNL     1       3.905   4.864  19.037  0.00  0.00    +0.000 A 
ATOM      6  C   UNL     1       5.096   5.219  18.363  0.00  0.00    +0.000 A 
ATOM      7  C   UNL     1       3.892   3.656  19.954  0.00  0.00    +0.000 C 
ATOM      8  C   UNL     1       2.691   3.527  20.877  0.00  0.00    +0.000 C 
ATOM      9  C   UNL     1       1.420   3.851  20.120  0.00  0.00    +0.000 C 
ATOM     10  C   UNL     1       1.464   5.294  19.633  0.00  0.00    +0.000 C 
ENDROOT
BRANCH   1  11
ATOM     11  C   UNL     1       6.333   6.725  16.791  0.00  0.00    +0.000 C 
ATOM     12  O   UNL     1       6.864   6.026  15.945  0.00  0.00    +0.000 OA
BRANCH  11  13
ATOM     13  O   UNL     1       6.739   7.967  17.172  0.00  0.00    +0.000 OA
BRANCH  13  15
ATOM     14  C   UNL     1       8.393   9.458  18.144  0.00  0.00    +0.000 C 
ATOM     15  C   UNL     1       8.028   8.026  17.799  0.00  0.00    +0.000 C 
ENDBRANCH  13  15
ENDBRANCH  11  13
ENDBRANCH   1  11
BRANCH   6  16
ATOM     16  O   UNL     1       6.321   4.657  18.637  0.00  0.00    +0.000 OA
ATOM     17  C   UNL     1       7.138   5.263  19.633  0.00  0.00    +0.000 C 
ENDBRANCH   6  16
BRANCH   3  18
ATOM     18  C   UNL     1       1.619   7.869  18.014  0.00  0.00    +0.000 C 
BRANCH  18  19
ATOM     19  C   UNL     1       2.002   9.383  17.954  0.00  0.00    +0.000 C 
BRANCH  19  20
ATOM     20  N   UNL     1       1.557  10.171  19.136  0.00  0.00    +0.000 N 
ATOM     21  C   UNL     1       0.488   9.659  19.860  0.00  0.00    +0.000 A 
ATOM     22  N   UNL     1      -0.597  10.342  19.553  0.00  0.00    +0.000 NA
ATOM     23  C   UNL     1      -0.127  11.501  18.950  0.00  0.00    +0.000 A 
ATOM     24  C   UNL     1       1.244  11.523  19.109  0.00  0.00    +0.000 A 
ATOM     25  N   UNL     1       1.998  12.535  19.635  0.00  0.00    +0.000 N 
ATOM     26  C   UNL     1       1.388  13.676  20.165  0.00  0.00    +0.000 C 
ATOM     27  N   UNL     1       0.358  14.356  19.807  0.00  0.00    +0.000 NA
ATOM     28  C   UNL     1      -0.284  13.995  18.540  0.00  0.00    +0.000 C 
ATOM     29  C   UNL     1      -1.004  12.627  18.515  0.00  0.00    +0.000 C 
ATOM     30  H   UNL     1       2.792  12.239  20.200  0.00  0.00    +0.000 HD
BRANCH  29  31
ATOM     31  O   UNL     1      -1.431  12.400  17.153  0.00  0.00    +0.000 OA
ATOM     32  H   UNL     1      -2.392  12.480  17.155  0.00  0.00    +0.000 HD
ENDBRANCH  29  31
ENDBRANCH  19  20
ENDBRANCH  18  19
ENDBRANCH   3  18
TORSDOF 8
ENDMDL
MODEL 7
REMARK VINA RESULT:      -7.8      1.384      1.657
REMARK  Name = 
REMARK  10 active torsions:
REMARK  status: ('A' for Active; 'I' for Inactive)
REMARK    1  A    between atoms: C_1  and  C_2
REMARK    2  A    between atoms: C_2  and  O_3
REMARK    3  A    between atoms: O_3  and  C_4
REMARK    4  A    between atoms: C_4  and  C_6
REMARK    5  A    between atoms: C_8  and  C_9
REMARK    6  A    between atoms: C_9  and  C_10
REMARK    7  A    between atoms: C_10  and  N_11
REMARK    8  A    between atoms: C_20  and  O_21
REMARK    9  A    between atoms: C_24  and  O_25
REMARK   10  A    between atoms: O_25  and  C_26
REMARK                            x       y       z     vdW  Elec       q    Type
REMARK                         _______ _______ _______ _____ _____    ______ ____
ROOT
ATOM      1  C   UNL     1       2.112   4.473  18.432  0.00  0.00    +0.000 A 
ATOM      2  C   UNL     1       2.065   5.870  18.604  0.00  0.00    +0.000 A 
ATOM      3  C   UNL     1       3.083   6.709  18.121  0.00  0.00    +0.000 A 
ATOM      4  C   UNL     1       4.189   6.100  17.459  0.00  0.00    +0.000 A 
ATOM      5  C   UNL     1       4.221   4.681  17.243  0.00  0.00    +0.000 A 
ATOM      6  C   UNL     1       3.177   3.869  17.744  0.00  0.00    +0.000 A 
ATOM      7  C   UNL     1       5.361   4.046  16.469  0.00  0.00    +0.000 C 
ATOM      8  C   UNL     1       6.261   5.000  15.699  0.00  0.00    +0.000 C 
ATOM      9  C   UNL     1       6.575   6.213  16.548  0.00  0.00    +0.000 C 
ATOM     10  C   UNL     1       5.289   6.966  16.869  0.00  0.00    +0.000 C 
ENDROOT
BRANCH   1  11
ATOM     11  C   UNL     1       1.025   3.633  19.001  0.00  0.00    +0.000 C 
ATOM     12  O   UNL     1       0.373   2.821  18.367  0.00  0.00    +0.000 OA
BRANCH  11  13
ATOM     13  O   UNL     1       0.908   3.888  20.332  0.00  0.00    +0.000 OA
BRANCH  13  15
ATOM     14  C   UNL     1       2.644   2.779  21.621  0.00  0.00    +0.000 C 
ATOM     15  C   UNL     1       1.187   2.777  21.197  0.00  0.00    +0.000 C 
ENDBRANCH  13  15
ENDBRANCH  11  13
ENDBRANCH   1  11
BRANCH   6  16
ATOM     16  O   UNL     1       3.013   2.547  17.402  0.00  0.00    +0.000 OA
ATOM     17  C   UNL     1       3.582   1.552  18.246  0.00  0.00    +0.000 C 
ENDBRANCH   6  16
BRANCH   3  18
ATOM     18  C   UNL     1       2.840   8.221  18.173  0.00  0.00    +0.000 C 
BRANCH  18  19
ATOM     19  C   UNL     1       1.555   8.790  17.490  0.00  0.00    +0.000 C 
BRANCH  19  20
ATOM     20  N   UNL     1       0.516   9.263  18.445  0.00  0.00    +0.000 N 
ATOM     21  C   UNL     1      -0.667   9.740  17.893  0.00  0.00    +0.000 A 
ATOM     22  N   UNL     1      -0.655  11.057  17.942  0.00  0.00    +0.000 NA
ATOM     23  C   UNL     1       0.338  11.368  18.862  0.00  0.00    +0.000 A 
ATOM     24  C   UNL     1       0.736  10.187  19.456  0.00  0.00    +0.000 A 
ATOM     25  N   UNL     1       0.800   9.917  20.794  0.00  0.00    +0.000 N 
ATOM     26  C   UNL     1       0.359  10.856  21.732  0.00  0.00    +0.000 C 
ATOM     27  N   UNL     1       0.437  12.138  21.780  0.00  0.00    +0.000 NA
ATOM     28  C   UNL     1       1.230  12.808  20.745  0.00  0.00    +0.000 C 
ATOM     29  C   UNL     1       0.650  12.756  19.313  0.00  0.00    +0.000 C 
ATOM     30  H   UNL     1       0.537   8.971  21.061  0.00  0.00    +0.000 HD
BRANCH  29  31
ATOM     31  O   UNL     1       1.642  13.332  18.435  0.00  0.00    +0.000 OA
ATOM     32  H   UNL     1       1.686  14.269  18.656  0.00  0.00    +0.000 HD
ENDBRANCH  29  31
ENDBRANCH  19  20
ENDBRANCH  18  19
ENDBRANCH   3  18
TORSDOF 8
ENDMDL
MODEL 8
REMARK VINA RESULT:      -7.8      2.157      4.244
REMARK  Name = 
REMARK  10 active torsions:
REMARK  status: ('A' for Active; 'I' for Inactive)
REMARK    1  A    between atoms: C_1  and  C_2
REMARK    2  A    between atoms: C_2  and  O_3
REMARK    3  A    between atoms: O_3  and  C_4
REMARK    4  A    between atoms: C_4  and  C_6
REMARK    5  A    between atoms: C_8  and  C_9
REMARK    6  A    between atoms: C_9  and  C_10
REMARK    7  A    between atoms: C_10  and  N_11
REMARK    8  A    between atoms: C_20  and  O_21
REMARK    9  A    between atoms: C_24  and  O_25
REMARK   10  A    between atoms: O_25  and  C_26
REMARK                            x       y       z     vdW  Elec       q    Type
REMARK                         _______ _______ _______ _____ _____    ______ ____
ROOT
ATOM      1  C   UNL     1       4.325   6.070  17.305  0.00  0.00    +0.000 A 
ATOM      2  C   UNL     1       3.349   6.792  18.019  0.00  0.00    +0.000 A 
ATOM      3  C   UNL     1       2.336   6.145  18.746  0.00  0.00    +0.000 A 
ATOM      4  C   UNL     1       2.308   4.720  18.727  0.00  0.00    +0.000 A 
ATOM      5  C   UNL     1       3.325   3.978  18.036  0.00  0.00    +0.000 A 
ATOM      6  C   UNL     1       4.330   4.665  17.316  0.00  0.00    +0.000 A 
ATOM      7  C   UNL     1       3.338   2.462  18.083  0.00  0.00    +0.000 C 
ATOM      8  C   UNL     1       2.434   1.817  19.122  0.00  0.00    +0.000 C 
ATOM      9  C   UNL     1       1.089   2.511  19.140  0.00  0.00    +0.000 C 
ATOM     10  C   UNL     1       1.268   3.971  19.541  0.00  0.00    +0.000 C 
ENDROOT
BRANCH   1  11
ATOM     11  C   UNL     1       5.348   6.809  16.521  0.00  0.00    +0.000 C 
ATOM     12  O   UNL     1       5.350   6.912  15.306  0.00  0.00    +0.000 OA
BRANCH  11  13
ATOM     13  O   UNL     1       6.245   7.377  17.372  0.00  0.00    +0.000 OA
BRANCH  13  15
ATOM     14  C   UNL     1       7.862   6.205  18.756  0.00  0.00    +0.000 C 
ATOM     15  C   UNL     1       7.547   6.773  17.384  0.00  0.00    +0.000 C 
ENDBRANCH  13  15
ENDBRANCH  11  13
ENDBRANCH   1  11
BRANCH   6  16
ATOM     16  O   UNL     1       5.454   4.055  16.811  0.00  0.00    +0.000 OA
ATOM     17  C   UNL     1       5.413   3.546  15.482  0.00  0.00    +0.000 C 
ENDBRANCH   6  16
BRANCH   3  18
ATOM     18  C   UNL     1       1.454   7.008  19.654  0.00  0.00    +0.000 C 
BRANCH  18  19
ATOM     19  C   UNL     1       1.818   8.519  19.823  0.00  0.00    +0.000 C 
BRANCH  19  20
ATOM     20  N   UNL     1       1.088   9.429  18.899  0.00  0.00    +0.000 N 
ATOM     21  C   UNL     1       1.864  10.248  18.089  0.00  0.00    +0.000 A 
ATOM     22  N   UNL     1       1.854  11.469  18.587  0.00  0.00    +0.000 NA
ATOM     23  C   UNL     1       0.775  11.484  19.463  0.00  0.00    +0.000 A 
ATOM     24  C   UNL     1       0.082  10.304  19.285  0.00  0.00    +0.000 A 
ATOM     25  N   UNL     1      -1.253  10.161  19.027  0.00  0.00    +0.000 N 
ATOM     26  C   UNL     1      -2.063  11.283  18.827  0.00  0.00    +0.000 C 
ATOM     27  N   UNL     1      -2.086  12.447  19.372  0.00  0.00    +0.000 NA
ATOM     28  C   UNL     1      -1.197  12.676  20.515  0.00  0.00    +0.000 C 
ATOM     29  C   UNL     1       0.316  12.700  20.196  0.00  0.00    +0.000 C 
ATOM     30  H   UNL     1      -1.495   9.407  18.387  0.00  0.00    +0.000 HD
BRANCH  29  31
ATOM     31  O   UNL     1       1.011  12.785  21.460  0.00  0.00    +0.000 OA
ATOM     32  H   UNL     1       1.183  11.877  21.736  0.00  0.00    +0.000 HD
ENDBRANCH  29  31
ENDBRANCH  19  20
ENDBRANCH  18  19
ENDBRANCH   3  18
TORSDOF 8
ENDMDL
MODEL 9
REMARK VINA RESULT:      -7.8      2.414      4.468
REMARK  Name = 
REMARK  10 active torsions:
REMARK  status: ('A' for Active; 'I' for Inactive)
REMARK    1  A    between atoms: C_1  and  C_2
REMARK    2  A    between atoms: C_2  and  O_3
REMARK    3  A    between atoms: O_3  and  C_4
REMARK    4  A    between atoms: C_4  and  C_6
REMARK    5  A    between atoms: C_8  and  C_9
REMARK    6  A    between atoms: C_9  and  C_10
REMARK    7  A    between atoms: C_10  and  N_11
REMARK    8  A    between atoms: C_20  and  O_21
REMARK    9  A    between atoms: C_24  and  O_25
REMARK   10  A    between atoms: O_25  and  C_26
REMARK                            x       y       z     vdW  Elec       q    Type
REMARK                         _______ _______ _______ _____ _____    ______ ____
ROOT
ATOM      1  C   UNL     1       5.637   6.209  17.469  0.00  0.00    +0.000 A 
ATOM      2  C   UNL     1       4.439   6.928  17.293  0.00  0.00    +0.000 A 
ATOM      3  C   UNL     1       3.226   6.491  17.851  0.00  0.00    +0.000 A 
ATOM      4  C   UNL     1       3.235   5.275  18.594  0.00  0.00    +0.000 A 
ATOM      5  C   UNL     1       4.462   4.560  18.813  0.00  0.00    +0.000 A 
ATOM      6  C   UNL     1       5.663   5.033  18.236  0.00  0.00    +0.000 A 
ATOM      7  C   UNL     1       4.481   3.310  19.671  0.00  0.00    +0.000 C 
ATOM      8  C   UNL     1       3.237   3.050  20.505  0.00  0.00    +0.000 C 
ATOM      9  C   UNL     1       1.995   3.321  19.682  0.00  0.00    +0.000 C 
ATOM     10  C   UNL     1       1.963   4.787  19.265  0.00  0.00    +0.000 C 
ENDROOT
BRANCH   1  11
ATOM     11  C   UNL     1       6.882   6.699  16.820  0.00  0.00    +0.000 C 
ATOM     12  O   UNL     1       7.477   7.714  17.141  0.00  0.00    +0.000 OA
BRANCH  11  13
ATOM     13  O   UNL     1       7.261   5.822  15.852  0.00  0.00    +0.000 OA
BRANCH  13  15
ATOM     14  C   UNL     1       6.311   3.943  14.638  0.00  0.00    +0.000 C 
ATOM     15  C   UNL     1       6.226   5.429  14.940  0.00  0.00    +0.000 C 
ENDBRANCH  13  15
ENDBRANCH  11  13
ENDBRANCH   1  11
BRANCH   6  16
ATOM     16  O   UNL     1       6.906   4.545  18.565  0.00  0.00    +0.000 OA
ATOM     17  C   UNL     1       7.663   5.229  19.557  0.00  0.00    +0.000 C 
ENDBRANCH   6  16
BRANCH   3  18
ATOM     18  C   UNL     1       2.029   7.445  17.780  0.00  0.00    +0.000 C 
BRANCH  18  19
ATOM     19  C   UNL     1       2.012   8.687  18.728  0.00  0.00    +0.000 C 
BRANCH  19  20
ATOM     20  N   UNL     1       1.394   9.902  18.130  0.00  0.00    +0.000 N 
ATOM     21  C   UNL     1       2.206  11.023  18.017  0.00  0.00    +0.000 A 
ATOM     22  N   UNL     1       1.889  11.874  18.973  0.00  0.00    +0.000 NA
ATOM     23  C   UNL     1       0.643  11.454  19.421  0.00  0.00    +0.000 A 
ATOM     24  C   UNL     1       0.203  10.472  18.557  0.00  0.00    +0.000 A 
ATOM     25  N   UNL     1      -0.993  10.430  17.896  0.00  0.00    +0.000 N 
ATOM     26  C   UNL     1      -1.894  11.495  17.986  0.00  0.00    +0.000 C 
ATOM     27  N   UNL     1      -2.226  12.272  18.954  0.00  0.00    +0.000 NA
ATOM     28  C   UNL     1      -1.683  11.970  20.281  0.00  0.00    +0.000 C 
ATOM     29  C   UNL     1      -0.159  12.179  20.449  0.00  0.00    +0.000 C 
ATOM     30  H   UNL     1      -0.955  10.051  16.951  0.00  0.00    +0.000 HD
BRANCH  29  31
ATOM     31  O   UNL     1       0.191  11.688  21.762  0.00  0.00    +0.000 OA
ATOM     32  H   UNL     1       0.400  10.753  21.654  0.00  0.00    +0.000 HD
ENDBRANCH  29  31
ENDBRANCH  19  20
ENDBRANCH  18  19
ENDBRANCH   3  18
TORSDOF 8
ENDMDL
