MODEL 1
REMARK VINA RESULT:      -7.1      0.000      0.000
REMARK  Name = 
REMARK  9 active torsions:
REMARK  status: ('A' for Active; 'I' for Inactive)
REMARK    1  A    between atoms: C_1  and  C_2
REMARK    2  A    between atoms: C_2  and  O_3
REMARK    3  A    between atoms: O_3  and  C_4
REMARK    4  A    between atoms: C_4  and  C_6
REMARK    5  A    between atoms: C_10  and  C_12
REMARK    6  A    between atoms: C_12  and  S_13
REMARK    7  A    between atoms: S_13  and  C_14
REMARK    8  A    between atoms: C_17  and  C_18
REMARK    9  A    between atoms: C_21  and  C_22
REMARK                            x       y       z     vdW  Elec       q    Type
REMARK                         _______ _______ _______ _____ _____    ______ ____
ROOT
ATOM      1  C   UNL     1       6.434   4.788  16.634  0.00  0.00    +0.000 A 
ATOM      2  S   UNL     1       5.284   3.682  17.234  0.00  0.00    +0.000 S 
ATOM      3  C   UNL     1       5.286   4.446  18.749  0.00  0.00    +0.000 A 
ATOM      4  N   UNL     1       4.463   4.013  19.771  0.00  0.00    +0.000 N 
ATOM      5  C   UNL     1       3.930   2.738  19.874  0.00  0.00    +0.000 C 
ATOM      6  O   UNL     1       4.037   1.838  19.035  0.00  0.00    +0.000 OA
ATOM      7  N   UNL     1       6.044   5.520  18.831  0.00  0.00    +0.000 NA
ATOM      8  C   UNL     1       6.725   5.725  17.623  0.00  0.00    +0.000 A 
ATOM      9  C   UNL     1       7.631   6.903  17.500  0.00  0.00    +0.000 C 
ATOM     10  H   UNL     1       4.436   4.636  20.567  0.00  0.00    +0.000 HD
ENDROOT
BRANCH   1  11
ATOM     11  C   UNL     1       6.905   4.730  15.260  0.00  0.00    +0.000 C 
ATOM     12  O   UNL     1       7.622   5.553  14.718  0.00  0.00    +0.000 OA
BRANCH  11  13
ATOM     13  O   UNL     1       6.328   3.668  14.616  0.00  0.00    +0.000 OA
BRANCH  13  15
ATOM     14  C   UNL     1       6.372   3.415  12.239  0.00  0.00    +0.000 C 
ATOM     15  C   UNL     1       5.605   3.980  13.420  0.00  0.00    +0.000 C 
ENDBRANCH  13  15
ENDBRANCH  11  13
ENDBRANCH   1  11
BRANCH   5  16
ATOM     16  C   UNL     1       3.144   2.471  21.155  0.00  0.00    +0.000 C 
BRANCH  16  17
ATOM     17  S   UNL     1       1.403   2.971  20.955  0.00  0.00    +0.000 S 
BRANCH  17  18
ATOM     18  C   UNL     1       1.512   4.192  19.720  0.00  0.00    +0.000 A 
ATOM     19  N   UNL     1       1.349   3.898  18.426  0.00  0.00    +0.000 NA
ATOM     20  N   UNL     1       1.721   5.044  17.834  0.00  0.00    +0.000 N 
ATOM     21  C   UNL     1       2.056   5.991  18.762  0.00  0.00    +0.000 A 
ATOM     22  C   UNL     1       2.527   7.347  18.414  0.00  0.00    +0.000 C 
ATOM     23  N   UNL     1       1.929   5.473  19.966  0.00  0.00    +0.000 NA
ATOM     24  H   UNL     1       1.764   5.094  16.820  0.00  0.00    +0.000 HD
ENDBRANCH  17  18
ENDBRANCH  16  17
ENDBRANCH   5  16
TORSDOF 6
ENDMDL
MODEL 2
REMARK VINA RESULT:      -7.0      4.716      6.258
REMARK  Name = 
REMARK  9 active torsions:
REMARK  status: ('A' for Active; 'I' for Inactive)
REMARK    1  A    between atoms: C_1  and  C_2
REMARK    2  A    between atoms: C_2  and  O_3
REMARK    3  A    between atoms: O_3  and  C_4
REMARK    4  A    between atoms: C_4  and  C_6
REMARK    5  A    between atoms: C_10  and  C_12
REMARK    6  A    between atoms: C_12  and  S_13
REMARK    7  A    between atoms: S_13  and  C_14
REMARK    8  A    between atoms: C_17  and  C_18
REMARK    9  A    between atoms: C_21  and  C_22
REMARK                            x       y       z     vdW  Elec       q    Type
REMARK                         _______ _______ _______ _____ _____    ______ ____
ROOT
ATOM      1  C   UNL     1       4.089   5.226  18.308  0.00  0.00    +0.000 A 
ATOM      2  S   UNL     1       2.819   6.155  18.966  0.00  0.00    +0.000 S 
ATOM      3  C   UNL     1       3.148   7.429  17.894  0.00  0.00    +0.000 A 
ATOM      4  N   UNL     1       2.380   8.577  17.890  0.00  0.00    +0.000 N 
ATOM      5  C   UNL     1       1.621   9.028  18.957  0.00  0.00    +0.000 C 
ATOM      6  O   UNL     1       1.449   8.434  20.026  0.00  0.00    +0.000 OA
ATOM      7  N   UNL     1       4.108   7.192  17.024  0.00  0.00    +0.000 NA
ATOM      8  C   UNL     1       4.672   5.930  17.257  0.00  0.00    +0.000 A 
ATOM      9  C   UNL     1       5.773   5.460  16.368  0.00  0.00    +0.000 C 
ATOM     10  H   UNL     1       2.569   9.193  17.110  0.00  0.00    +0.000 HD
ENDROOT
BRANCH   1  11
ATOM     11  C   UNL     1       4.376   3.882  18.782  0.00  0.00    +0.000 C 
ATOM     12  O   UNL     1       5.336   3.556  19.459  0.00  0.00    +0.000 OA
BRANCH  11  13
ATOM     13  O   UNL     1       3.469   3.001  18.257  0.00  0.00    +0.000 OA
BRANCH  13  15
ATOM     14  C   UNL     1       1.218   2.347  18.728  0.00  0.00    +0.000 C 
ATOM     15  C   UNL     1       2.658   2.299  19.205  0.00  0.00    +0.000 C 
ENDBRANCH  13  15
ENDBRANCH  11  13
ENDBRANCH   1  11
BRANCH   5  16
ATOM     16  C   UNL     1       0.950  10.383  18.744  0.00  0.00    +0.000 C 
BRANCH  16  17
ATOM     17  S   UNL     1      -0.736  10.381  19.435  0.00  0.00    +0.000 S 
BRANCH  17  18
ATOM     18  C   UNL     1      -1.698  10.823  18.054  0.00  0.00    +0.000 A 
ATOM     19  N   UNL     1      -2.560  11.844  18.097  0.00  0.00    +0.000 NA
ATOM     20  N   UNL     1      -3.222  11.696  16.938  0.00  0.00    +0.000 N 
ATOM     21  C   UNL     1      -2.732  10.637  16.224  0.00  0.00    +0.000 A 
ATOM     22  C   UNL     1      -3.273  10.212  14.917  0.00  0.00    +0.000 C 
ATOM     23  N   UNL     1      -1.763  10.070  16.912  0.00  0.00    +0.000 NA
ATOM     24  H   UNL     1      -4.003  12.308  16.725  0.00  0.00    +0.000 HD
ENDBRANCH  17  18
ENDBRANCH  16  17
ENDBRANCH   5  16
TORSDOF 6
ENDMDL
MODEL 3
REMARK VINA RESULT:      -7.0      4.532      7.517
REMARK  Name = 
REMARK  9 active torsions:
REMARK  status: ('A' for Active; 'I' for Inactive)
REMARK    1  A    between atoms: C_1  and  C_2
REMARK    2  A    between atoms: C_2  and  O_3
REMARK    3  A    between atoms: O_3  and  C_4
REMARK    4  A    between atoms: C_4  and  C_6
REMARK    5  A    between atoms: C_10  and  C_12
REMARK    6  A    between atoms: C_12  and  S_13
REMARK    7  A    between atoms: S_13  and  C_14
REMARK    8  A    between atoms: C_17  and  C_18
REMARK    9  A    between atoms: C_21  and  C_22
REMARK                            x       y       z     vdW  Elec       q    Type
REMARK                         _______ _______ _______ _____ _____    ______ ____
ROOT
ATOM      1  C   UNL     1       1.091   9.534  19.392  0.00  0.00    +0.000 A 
ATOM      2  S   UNL     1       1.964   8.596  18.267  0.00  0.00    +0.000 S 
ATOM      3  C   UNL     1       2.240   7.392  19.431  0.00  0.00    +0.000 A 
ATOM      4  N   UNL     1       2.927   6.236  19.116  0.00  0.00    +0.000 N 
ATOM      5  C   UNL     1       3.820   6.105  18.064  0.00  0.00    +0.000 C 
ATOM      6  O   UNL     1       4.064   6.963  17.210  0.00  0.00    +0.000 OA
ATOM      7  N   UNL     1       1.671   7.605  20.600  0.00  0.00    +0.000 NA
ATOM      8  C   UNL     1       1.014   8.844  20.600  0.00  0.00    +0.000 A 
ATOM      9  C   UNL     1       0.290   9.273  21.831  0.00  0.00    +0.000 C 
ATOM     10  H   UNL     1       2.893   5.530  19.839  0.00  0.00    +0.000 HD
ENDROOT
BRANCH   1  11
ATOM     11  C   UNL     1       0.483  10.801  19.021  0.00  0.00    +0.000 C 
ATOM     12  O   UNL     1      -0.512  10.939  18.332  0.00  0.00    +0.000 OA
BRANCH  11  13
ATOM     13  O   UNL     1       1.262  11.837  19.464  0.00  0.00    +0.000 OA
BRANCH  13  15
ATOM     14  C   UNL     1       2.775  13.658  19.127  0.00  0.00    +0.000 C 
ATOM     15  C   UNL     1       1.928  12.596  18.450  0.00  0.00    +0.000 C 
ENDBRANCH  13  15
ENDBRANCH  11  13
ENDBRANCH   1  11
BRANCH   5  16
ATOM     16  C   UNL     1       4.536   4.759  17.992  0.00  0.00    +0.000 C 
BRANCH  16  17
ATOM     17  S   UNL     1       6.343   4.993  17.996  0.00  0.00    +0.000 S 
BRANCH  17  18
ATOM     18  C   UNL     1       6.740   4.813  16.311  0.00  0.00    +0.000 A 
ATOM     19  N   UNL     1       7.568   5.659  15.690  0.00  0.00    +0.000 NA
ATOM     20  N   UNL     1       7.422   5.296  14.406  0.00  0.00    +0.000 N 
ATOM     21  C   UNL     1       6.558   4.243  14.288  0.00  0.00    +0.000 A 
ATOM     22  C   UNL     1       6.180   3.636  12.995  0.00  0.00    +0.000 C 
ATOM     23  N   UNL     1       6.115   3.917  15.484  0.00  0.00    +0.000 NA
ATOM     24  H   UNL     1       7.894   5.825  13.679  0.00  0.00    +0.000 HD
ENDBRANCH  17  18
ENDBRANCH  16  17
ENDBRANCH   5  16
TORSDOF 6
ENDMDL
MODEL 4
REMARK VINA RESULT:      -7.0      4.314      6.768
REMARK  Name = 
REMARK  9 active torsions:
REMARK  status: ('A' for Active; 'I' for Inactive)
REMARK    1  A    between atoms: C_1  and  C_2
REMARK    2  A    between atoms: C_2  and  O_3
REMARK    3  A    between atoms: O_3  and  C_4
REMARK    4  A    between atoms: C_4  and  C_6
REMARK    5  A    between atoms: C_10  and  C_12
REMARK    6  A    between atoms: C_12  and  S_13
REMARK    7  A    between atoms: S_13  and  C_14
REMARK    8  A    between atoms: C_17  and  C_18
REMARK    9  A    between atoms: C_21  and  C_22
REMARK                            x       y       z     vdW  Elec       q    Type
REMARK                         _______ _______ _______ _____ _____    ______ ____
ROOT
ATOM      1  C   UNL     1       0.986   9.452  19.225  0.00  0.00    +0.000 A 
ATOM      2  S   UNL     1       1.962   8.555  18.152  0.00  0.00    +0.000 S 
ATOM      3  C   UNL     1       2.384   7.470  19.387  0.00  0.00    +0.000 A 
ATOM      4  N   UNL     1       3.204   6.387  19.137  0.00  0.00    +0.000 N 
ATOM      5  C   UNL     1       4.103   6.296  18.086  0.00  0.00    +0.000 C 
ATOM      6  O   UNL     1       4.239   7.121  17.177  0.00  0.00    +0.000 OA
ATOM      7  N   UNL     1       1.799   7.688  20.546  0.00  0.00    +0.000 NA
ATOM      8  C   UNL     1       0.998   8.837  20.475  0.00  0.00    +0.000 A 
ATOM      9  C   UNL     1       0.232   9.254  21.684  0.00  0.00    +0.000 C 
ATOM     10  H   UNL     1       3.258   5.729  19.904  0.00  0.00    +0.000 HD
ENDROOT
BRANCH   1  11
ATOM     11  C   UNL     1       0.229  10.611  18.782  0.00  0.00    +0.000 C 
ATOM     12  O   UNL     1       0.669  11.740  18.648  0.00  0.00    +0.000 OA
BRANCH  11  13
ATOM     13  O   UNL     1      -1.092  10.278  18.646  0.00  0.00    +0.000 OA
BRANCH  13  15
ATOM     14  C   UNL     1      -2.291  10.036  16.592  0.00  0.00    +0.000 C 
ATOM     15  C   UNL     1      -1.823  11.010  17.657  0.00  0.00    +0.000 C 
ENDBRANCH  13  15
ENDBRANCH  11  13
ENDBRANCH   1  11
BRANCH   5  16
ATOM     16  C   UNL     1       4.975   5.043  18.091  0.00  0.00    +0.000 C 
BRANCH  16  17
ATOM     17  S   UNL     1       4.221   3.731  17.077  0.00  0.00    +0.000 S 
BRANCH  17  18
ATOM     18  C   UNL     1       3.196   2.921  18.227  0.00  0.00    +0.000 A 
ATOM     19  N   UNL     1       2.306   1.999  17.847  0.00  0.00    +0.000 NA
ATOM     20  N   UNL     1       1.608   1.807  18.978  0.00  0.00    +0.000 N 
ATOM     21  C   UNL     1       2.104   2.571  19.998  0.00  0.00    +0.000 A 
ATOM     22  C   UNL     1       1.530   2.592  21.358  0.00  0.00    +0.000 C 
ATOM     23  N   UNL     1       3.114   3.285  19.545  0.00  0.00    +0.000 NA
ATOM     24  H   UNL     1       0.802   1.190  18.971  0.00  0.00    +0.000 HD
ENDBRANCH  17  18
ENDBRANCH  16  17
ENDBRANCH   5  16
TORSDOF 6
ENDMDL
MODEL 5
REMARK VINA RESULT:      -6.9      4.777      7.761
REMARK  Name = 
REMARK  9 active torsions:
REMARK  status: ('A' for Active; 'I' for Inactive)
REMARK    1  A    between atoms: C_1  and  C_2
REMARK    2  A    between atoms: C_2  and  O_3
REMARK    3  A    between atoms: O_3  and  C_4
REMARK    4  A    between atoms: C_4  and  C_6
REMARK    5  A    between atoms: C_10  and  C_12
REMARK    6  A    between atoms: C_12  and  S_13
REMARK    7  A    between atoms: S_13  and  C_14
REMARK    8  A    between atoms: C_17  and  C_18
REMARK    9  A    between atoms: C_21  and  C_22
REMARK                            x       y       z     vdW  Elec       q    Type
REMARK                         _______ _______ _______ _____ _____    ______ ____
ROOT
ATOM      1  C   UNL     1       0.907   9.885  19.641  0.00  0.00    +0.000 A 
ATOM      2  S   UNL     1       1.734   8.991  18.447  0.00  0.00    +0.000 S 
ATOM      3  C   UNL     1       1.990   7.711  19.532  0.00  0.00    +0.000 A 
ATOM      4  N   UNL     1       2.636   6.556  19.137  0.00  0.00    +0.000 N 
ATOM      5  C   UNL     1       3.509   6.462  18.064  0.00  0.00    +0.000 C 
ATOM      6  O   UNL     1       3.766   7.363  17.260  0.00  0.00    +0.000 OA
ATOM      7  N   UNL     1       1.446   7.870  20.721  0.00  0.00    +0.000 NA
ATOM      8  C   UNL     1       0.827   9.125  20.806  0.00  0.00    +0.000 A 
ATOM      9  C   UNL     1       0.135   9.500  22.072  0.00  0.00    +0.000 C 
ATOM     10  H   UNL     1       2.592   5.808  19.816  0.00  0.00    +0.000 HD
ENDROOT
BRANCH   1  11
ATOM     11  C   UNL     1       0.332  11.189  19.357  0.00  0.00    +0.000 C 
ATOM     12  O   UNL     1       0.574  12.220  19.960  0.00  0.00    +0.000 OA
BRANCH  11  13
ATOM     13  O   UNL     1      -0.619  11.075  18.379  0.00  0.00    +0.000 OA
BRANCH  13  15
ATOM     14  C   UNL     1      -2.887  10.773  17.682  0.00  0.00    +0.000 C 
ATOM     15  C   UNL     1      -1.976  11.235  18.805  0.00  0.00    +0.000 C 
ENDBRANCH  13  15
ENDBRANCH  11  13
ENDBRANCH   1  11
BRANCH   5  16
ATOM     16  C   UNL     1       4.182   5.102  17.900  0.00  0.00    +0.000 C 
BRANCH  16  17
ATOM     17  S   UNL     1       5.990   5.257  18.069  0.00  0.00    +0.000 S 
BRANCH  17  18
ATOM     18  C   UNL     1       6.537   4.975  16.441  0.00  0.00    +0.000 A 
ATOM     19  N   UNL     1       7.463   5.749  15.868  0.00  0.00    +0.000 NA
ATOM     20  N   UNL     1       7.423   5.330  14.593  0.00  0.00    +0.000 N 
ATOM     21  C   UNL     1       6.521   4.314  14.438  0.00  0.00    +0.000 A 
ATOM     22  C   UNL     1       6.238   3.662  13.143  0.00  0.00    +0.000 C 
ATOM     23  N   UNL     1       5.949   4.070  15.598  0.00  0.00    +0.000 NA
ATOM     24  H   UNL     1       7.989   5.799  13.893  0.00  0.00    +0.000 HD
ENDBRANCH  17  18
ENDBRANCH  16  17
ENDBRANCH   5  16
TORSDOF 6
ENDMDL
MODEL 6
REMARK VINA RESULT:      -6.8      4.452      7.576
REMARK  Name = 
REMARK  9 active torsions:
REMARK  status: ('A' for Active; 'I' for Inactive)
REMARK    1  A    between atoms: C_1  and  C_2
REMARK    2  A    between atoms: C_2  and  O_3
REMARK    3  A    between atoms: O_3  and  C_4
REMARK    4  A    between atoms: C_4  and  C_6
REMARK    5  A    between atoms: C_10  and  C_12
REMARK    6  A    between atoms: C_12  and  S_13
REMARK    7  A    between atoms: S_13  and  C_14
REMARK    8  A    between atoms: C_17  and  C_18
REMARK    9  A    between atoms: C_21  and  C_22
REMARK                            x       y       z     vdW  Elec       q    Type
REMARK                         _______ _______ _______ _____ _____    ______ ____
ROOT
ATOM      1  C   UNL     1       0.984   9.374  19.495  0.00  0.00    +0.000 A 
ATOM      2  S   UNL     1       1.879   8.572  18.285  0.00  0.00    +0.000 S 
ATOM      3  C   UNL     1       2.370   7.379  19.388  0.00  0.00    +0.000 A 
ATOM      4  N   UNL     1       3.161   6.319  18.991  0.00  0.00    +0.000 N 
ATOM      5  C   UNL     1       3.988   6.318  17.879  0.00  0.00    +0.000 C 
ATOM      6  O   UNL     1       4.073   7.220  17.040  0.00  0.00    +0.000 OA
ATOM      7  N   UNL     1       1.863   7.496  20.598  0.00  0.00    +0.000 NA
ATOM      8  C   UNL     1       1.070   8.650  20.681  0.00  0.00    +0.000 A 
ATOM      9  C   UNL     1       0.389   8.961  21.970  0.00  0.00    +0.000 C 
ATOM     10  H   UNL     1       3.258   5.596  19.691  0.00  0.00    +0.000 HD
ENDROOT
BRANCH   1  11
ATOM     11  C   UNL     1       0.212  10.571  19.206  0.00  0.00    +0.000 C 
ATOM     12  O   UNL     1       0.246  11.610  19.840  0.00  0.00    +0.000 OA
BRANCH  11  13
ATOM     13  O   UNL     1      -0.659  10.325  18.178  0.00  0.00    +0.000 OA
BRANCH  13  15
ATOM     14  C   UNL     1      -2.927   9.942  17.522  0.00  0.00    +0.000 C 
ATOM     15  C   UNL     1      -1.997  10.796  18.365  0.00  0.00    +0.000 C 
ENDBRANCH  13  15
ENDBRANCH  11  13
ENDBRANCH   1  11
BRANCH   5  16
ATOM     16  C   UNL     1       4.847   5.067  17.716  0.00  0.00    +0.000 C 
BRANCH  16  17
ATOM     17  S   UNL     1       6.178   5.354  16.506  0.00  0.00    +0.000 S 
BRANCH  17  18
ATOM     18  C   UNL     1       7.252   6.404  17.384  0.00  0.00    +0.000 A 
ATOM     19  N   UNL     1       7.820   6.024  18.533  0.00  0.00    +0.000 NA
ATOM     20  N   UNL     1       8.369   7.173  18.963  0.00  0.00    +0.000 N 
ATOM     21  C   UNL     1       8.155   8.184  18.068  0.00  0.00    +0.000 A 
ATOM     22  C   UNL     1       8.620   9.571  18.274  0.00  0.00    +0.000 C 
ATOM     23  N   UNL     1       7.450   7.719  17.057  0.00  0.00    +0.000 NA
ATOM     24  H   UNL     1       8.823   7.203  19.870  0.00  0.00    +0.000 HD
ENDBRANCH  17  18
ENDBRANCH  16  17
ENDBRANCH   5  16
TORSDOF 6
ENDMDL
MODEL 7
REMARK VINA RESULT:      -6.8      4.641      6.389
REMARK  Name = 
REMARK  9 active torsions:
REMARK  status: ('A' for Active; 'I' for Inactive)
REMARK    1  A    between atoms: C_1  and  C_2
REMARK    2  A    between atoms: C_2  and  O_3
REMARK    3  A    between atoms: O_3  and  C_4
REMARK    4  A    between atoms: C_4  and  C_6
REMARK    5  A    between atoms: C_10  and  C_12
REMARK    6  A    between atoms: C_12  and  S_13
REMARK    7  A    between atoms: S_13  and  C_14
REMARK    8  A    between atoms: C_17  and  C_18
REMARK    9  A    between atoms: C_21  and  C_22
REMARK                            x       y       z     vdW  Elec       q    Type
REMARK                         _______ _______ _______ _____ _____    ______ ____
ROOT
ATOM      1  C   UNL     1       3.403   5.044  19.271  0.00  0.00    +0.000 A 
ATOM      2  S   UNL     1       3.350   6.578  18.527  0.00  0.00    +0.000 S 
ATOM      3  C   UNL     1       2.143   7.097  19.602  0.00  0.00    +0.000 A 
ATOM      4  N   UNL     1       1.639   8.382  19.547  0.00  0.00    +0.000 N 
ATOM      5  C   UNL     1       1.677   9.202  18.430  0.00  0.00    +0.000 C 
ATOM      6  O   UNL     1       2.237   8.943  17.361  0.00  0.00    +0.000 OA
ATOM      7  N   UNL     1       1.809   6.224  20.530  0.00  0.00    +0.000 NA
ATOM      8  C   UNL     1       2.518   5.028  20.346  0.00  0.00    +0.000 A 
ATOM      9  C   UNL     1       2.296   3.907  21.304  0.00  0.00    +0.000 C 
ATOM     10  H   UNL     1       1.045   8.623  20.328  0.00  0.00    +0.000 HD
ENDROOT
BRANCH   1  11
ATOM     11  C   UNL     1       4.330   4.015  18.831  0.00  0.00    +0.000 C 
ATOM     12  O   UNL     1       5.380   3.723  19.375  0.00  0.00    +0.000 OA
BRANCH  11  13
ATOM     13  O   UNL     1       3.909   3.490  17.638  0.00  0.00    +0.000 OA
BRANCH  13  15
ATOM     14  C   UNL     1       3.438   1.303  18.483  0.00  0.00    +0.000 C 
ATOM     15  C   UNL     1       2.886   2.493  17.720  0.00  0.00    +0.000 C 
ENDBRANCH  13  15
ENDBRANCH  11  13
ENDBRANCH   1  11
BRANCH   5  16
ATOM     16  C   UNL     1       0.954  10.537  18.588  0.00  0.00    +0.000 C 
BRANCH  16  17
ATOM     17  S   UNL     1      -0.572  10.329  19.562  0.00  0.00    +0.000 S 
BRANCH  17  18
ATOM     18  C   UNL     1      -1.803  10.392  18.334  0.00  0.00    +0.000 A 
ATOM     19  N   UNL     1      -1.626   9.832  17.134  0.00  0.00    +0.000 NA
ATOM     20  N   UNL     1      -2.689  10.293  16.454  0.00  0.00    +0.000 N 
ATOM     21  C   UNL     1      -3.481  11.071  17.252  0.00  0.00    +0.000 A 
ATOM     22  C   UNL     1      -4.712  11.738  16.780  0.00  0.00    +0.000 C 
ATOM     23  N   UNL     1      -2.940  11.147  18.449  0.00  0.00    +0.000 NA
ATOM     24  H   UNL     1      -2.784  10.078  15.467  0.00  0.00    +0.000 HD
ENDBRANCH  17  18
ENDBRANCH  16  17
ENDBRANCH   5  16
TORSDOF 6
ENDMDL
MODEL 8
REMARK VINA RESULT:      -6.7      4.303      6.910
REMARK  Name = 
REMARK  9 active torsions:
REMARK  status: ('A' for Active; 'I' for Inactive)
REMARK    1  A    between atoms: C_1  and  C_2
REMARK    2  A    between atoms: C_2  and  O_3
REMARK    3  A    between atoms: O_3  and  C_4
REMARK    4  A    between atoms: C_4  and  C_6
REMARK    5  A    between atoms: C_10  and  C_12
REMARK    6  A    between atoms: C_12  and  S_13
REMARK    7  A    between atoms: S_13  and  C_14
REMARK    8  A    between atoms: C_17  and  C_18
REMARK    9  A    between atoms: C_21  and  C_22
REMARK                            x       y       z     vdW  Elec       q    Type
REMARK                         _______ _______ _______ _____ _____    ______ ____
ROOT
ATOM      1  C   UNL     1       1.098   9.477  19.188  0.00  0.00    +0.000 A 
ATOM      2  S   UNL     1       2.046   8.546  18.119  0.00  0.00    +0.000 S 
ATOM      3  C   UNL     1       2.381   7.418  19.342  0.00  0.00    +0.000 A 
ATOM      4  N   UNL     1       3.145   6.295  19.089  0.00  0.00    +0.000 N 
ATOM      5  C   UNL     1       4.060   6.172  18.055  0.00  0.00    +0.000 C 
ATOM      6  O   UNL     1       4.261   7.004  17.165  0.00  0.00    +0.000 OA
ATOM      7  N   UNL     1       1.783   7.648  20.493  0.00  0.00    +0.000 NA
ATOM      8  C   UNL     1       1.049   8.840  20.426  0.00  0.00    +0.000 A 
ATOM      9  C   UNL     1       0.281   9.279  21.627  0.00  0.00    +0.000 C 
ATOM     10  H   UNL     1       3.146   5.622  19.844  0.00  0.00    +0.000 HD
ENDROOT
BRANCH   1  11
ATOM     11  C   UNL     1       0.416  10.684  18.751  0.00  0.00    +0.000 C 
ATOM     12  O   UNL     1      -0.682  10.730  18.227  0.00  0.00    +0.000 OA
BRANCH  11  13
ATOM     13  O   UNL     1       1.242  11.766  18.906  0.00  0.00    +0.000 OA
BRANCH  13  15
ATOM     14  C   UNL     1       2.246  13.295  20.445  0.00  0.00    +0.000 C 
ATOM     15  C   UNL     1       0.957  12.614  20.023  0.00  0.00    +0.000 C 
ENDBRANCH  13  15
ENDBRANCH  11  13
ENDBRANCH   1  11
BRANCH   5  16
ATOM     16  C   UNL     1       4.861   4.874  18.055  0.00  0.00    +0.000 C 
BRANCH  16  17
ATOM     17  S   UNL     1       3.976   3.573  17.137  0.00  0.00    +0.000 S 
BRANCH  17  18
ATOM     18  C   UNL     1       2.780   3.058  18.291  0.00  0.00    +0.000 A 
ATOM     19  N   UNL     1       1.512   2.829  17.933  0.00  0.00    +0.000 NA
ATOM     20  N   UNL     1       0.912   2.675  19.125  0.00  0.00    +0.000 N 
ATOM     21  C   UNL     1       1.816   2.778  20.146  0.00  0.00    +0.000 A 
ATOM     22  C   UNL     1       1.451   2.676  21.574  0.00  0.00    +0.000 C 
ATOM     23  N   UNL     1       3.007   3.018  19.641  0.00  0.00    +0.000 NA
ATOM     24  H   UNL     1      -0.094   2.552  19.167  0.00  0.00    +0.000 HD
ENDBRANCH  17  18
ENDBRANCH  16  17
ENDBRANCH   5  16
TORSDOF 6
ENDMDL
MODEL 9
REMARK VINA RESULT:      -6.7      4.564      6.024
REMARK  Name = 
REMARK  9 active torsions:
REMARK  status: ('A' for Active; 'I' for Inactive)
REMARK    1  A    between atoms: C_1  and  C_2
REMARK    2  A    between atoms: C_2  and  O_3
REMARK    3  A    between atoms: O_3  and  C_4
REMARK    4  A    between atoms: C_4  and  C_6
REMARK    5  A    between atoms: C_10  and  C_12
REMARK    6  A    between atoms: C_12  and  S_13
REMARK    7  A    between atoms: S_13  and  C_14
REMARK    8  A    between atoms: C_17  and  C_18
REMARK    9  A    between atoms: C_21  and  C_22
REMARK                            x       y       z     vdW  Elec       q    Type
REMARK                         _______ _______ _______ _____ _____    ______ ____
ROOT
ATOM      1  C   UNL     1       4.026   5.545  17.576  0.00  0.00    +0.000 A 
ATOM      2  S   UNL     1       3.759   7.228  17.501  0.00  0.00    +0.000 S 
ATOM      3  C   UNL     1       2.589   7.133  18.728  0.00  0.00    +0.000 A 
ATOM      4  N   UNL     1       1.954   8.264  19.200  0.00  0.00    +0.000 N 
ATOM      5  C   UNL     1       1.823   9.452  18.498  0.00  0.00    +0.000 C 
ATOM      6  O   UNL     1       2.324   9.702  17.398  0.00  0.00    +0.000 OA
ATOM      7  N   UNL     1       2.419   5.933  19.244  0.00  0.00    +0.000 NA
ATOM      8  C   UNL     1       3.231   5.001  18.582  0.00  0.00    +0.000 A 
ATOM      9  C   UNL     1       3.198   3.578  19.025  0.00  0.00    +0.000 C 
ATOM     10  H   UNL     1       1.398   8.106  20.030  0.00  0.00    +0.000 HD
ENDROOT
BRANCH   1  11
ATOM     11  C   UNL     1       5.018   4.891  16.738  0.00  0.00    +0.000 C 
ATOM     12  O   UNL     1       4.919   4.694  15.540  0.00  0.00    +0.000 OA
BRANCH  11  13
ATOM     13  O   UNL     1       6.041   4.417  17.515  0.00  0.00    +0.000 OA
BRANCH  13  15
ATOM     14  C   UNL     1       7.612   5.789  18.685  0.00  0.00    +0.000 C 
ATOM     15  C   UNL     1       7.296   5.091  17.375  0.00  0.00    +0.000 C 
ENDBRANCH  13  15
ENDBRANCH  11  13
ENDBRANCH   1  11
BRANCH   5  16
ATOM     16  C   UNL     1       0.980  10.519  19.191  0.00  0.00    +0.000 C 
BRANCH  16  17
ATOM     17  S   UNL     1      -0.753   9.975  19.335  0.00  0.00    +0.000 S 
BRANCH  17  18
ATOM     18  C   UNL     1      -1.444  10.552  17.845  0.00  0.00    +0.000 A 
ATOM     19  N   UNL     1      -1.712  11.847  17.651  0.00  0.00    +0.000 NA
ATOM     20  N   UNL     1      -2.411  11.815  16.505  0.00  0.00    +0.000 N 
ATOM     21  C   UNL     1      -2.513  10.537  16.027  0.00  0.00    +0.000 A 
ATOM     22  C   UNL     1      -3.243  10.182  14.793  0.00  0.00    +0.000 C 
ATOM     23  N   UNL     1      -1.905   9.720  16.860  0.00  0.00    +0.000 NA
ATOM     24  H   UNL     1      -2.814  12.672  16.139  0.00  0.00    +0.000 HD
ENDBRANCH  17  18
ENDBRANCH  16  17
ENDBRANCH   5  16
TORSDOF 6
ENDMDL
