MODEL 1
REMARK VINA RESULT:      -6.7      0.000      0.000
REMARK  Name = 
REMARK  6 active torsions:
REMARK  status: ('A' for Active; 'I' for Inactive)
REMARK    1  A    between atoms: C_1  and  C_2
REMARK    2  A    between atoms: C_2  and  C_3
REMARK    3  A    between atoms: C_2  and  C_4
REMARK    4  A    between atoms: C_4  and  C_5
REMARK    5  A    between atoms: N_10  and  C_11
REMARK    6  A    between atoms: C_11  and  C_12
REMARK                            x       y       z     vdW  Elec       q    Type
REMARK                         _______ _______ _______ _____ _____    ______ ____
ROOT
ATOM      1  C   UNL     1       2.748   4.392  19.198  0.00  0.00    +0.000 A 
ATOM      2  C   UNL     1       2.259   3.779  20.335  0.00  0.00    +0.000 A 
ATOM      3  N   UNL     1       3.081   2.777  20.758  0.00  0.00    +0.000 NA
ATOM      4  C   UNL     1       4.062   2.738  19.895  0.00  0.00    +0.000 A 
ATOM      5  N   UNL     1       5.112   1.901  19.954  0.00  0.00    +0.000 N 
ATOM      6  N   UNL     1       3.890   3.670  18.891  0.00  0.00    +0.000 N 
ATOM      7  H   UNL     1       5.012   1.168  20.649  0.00  0.00    +0.000 HD
ATOM      8  H   UNL     1       5.540   1.563  19.099  0.00  0.00    +0.000 HD
ENDROOT
BRANCH   1   9
ATOM      9  C   UNL     1       2.202   5.567  18.444  0.00  0.00    +0.000 C 
BRANCH   9  11
ATOM     10  C   UNL     1       2.789   7.990  17.899  0.00  0.00    +0.000 C 
ATOM     11  C   UNL     1       2.760   6.905  18.979  0.00  0.00    +0.000 C 
ATOM     12  C   UNL     1       1.945   7.398  20.177  0.00  0.00    +0.000 C 
ENDBRANCH   9  11
ENDBRANCH   1   9
BRANCH   6  13
ATOM     13  C   UNL     1       4.793   3.865  17.766  0.00  0.00    +0.000 C 
BRANCH  13  14
ATOM     14  C   UNL     1       5.804   4.982  17.948  0.00  0.00    +0.000 A 
ATOM     15  C   UNL     1       6.782   4.997  18.955  0.00  0.00    +0.000 A 
ATOM     16  C   UNL     1       7.726   6.026  19.023  0.00  0.00    +0.000 A 
ATOM     17  C   UNL     1       7.707   7.059  18.091  0.00  0.00    +0.000 A 
ATOM     18  C   UNL     1       6.729   7.081  17.103  0.00  0.00    +0.000 A 
ATOM     19  C   UNL     1       5.781   6.053  17.034  0.00  0.00    +0.000 A 
ENDBRANCH  13  14
ENDBRANCH   6  13
TORSDOF 4
ENDMDL
MODEL 2
REMARK VINA RESULT:      -6.6      2.775      5.679
REMARK  Name = 
REMARK  6 active torsions:
REMARK  status: ('A' for Active; 'I' for Inactive)
REMARK    1  A    between atoms: C_1  and  C_2
REMARK    2  A    between atoms: C_2  and  C_3
REMARK    3  A    between atoms: C_2  and  C_4
REMARK    4  A    between atoms: C_4  and  C_5
REMARK    5  A    between atoms: N_10  and  C_11
REMARK    6  A    between atoms: C_11  and  C_12
REMARK                            x       y       z     vdW  Elec       q    Type
REMARK                         _______ _______ _______ _____ _____    ______ ____
ROOT
ATOM      1  C   UNL     1       6.167   4.807  16.042  0.00  0.00    +0.000 A 
ATOM      2  C   UNL     1       7.436   4.463  16.465  0.00  0.00    +0.000 A 
ATOM      3  N   UNL     1       7.536   4.491  17.824  0.00  0.00    +0.000 NA
ATOM      4  C   UNL     1       6.362   4.867  18.257  0.00  0.00    +0.000 A 
ATOM      5  N   UNL     1       6.020   5.002  19.549  0.00  0.00    +0.000 N 
ATOM      6  N   UNL     1       5.495   5.120  17.212  0.00  0.00    +0.000 N 
ATOM      7  H   UNL     1       6.807   4.943  20.188  0.00  0.00    +0.000 HD
ATOM      8  H   UNL     1       5.353   5.714  19.826  0.00  0.00    +0.000 HD
ENDROOT
BRANCH   1   9
ATOM      9  C   UNL     1       5.608   4.842  14.652  0.00  0.00    +0.000 C 
BRANCH   9  11
ATOM     10  C   UNL     1       5.696   3.378  12.563  0.00  0.00    +0.000 C 
ATOM     11  C   UNL     1       6.510   4.089  13.648  0.00  0.00    +0.000 C 
ATOM     12  C   UNL     1       7.513   5.042  12.992  0.00  0.00    +0.000 C 
ENDBRANCH   9  11
ENDBRANCH   1   9
BRANCH   6  13
ATOM     13  C   UNL     1       4.121   5.578  17.356  0.00  0.00    +0.000 C 
BRANCH  13  14
ATOM     14  C   UNL     1       3.137   4.508  17.792  0.00  0.00    +0.000 A 
ATOM     15  C   UNL     1       3.163   3.184  17.327  0.00  0.00    +0.000 A 
ATOM     16  C   UNL     1       2.267   2.232  17.823  0.00  0.00    +0.000 A 
ATOM     17  C   UNL     1       1.327   2.587  18.786  0.00  0.00    +0.000 A 
ATOM     18  C   UNL     1       1.263   3.900  19.238  0.00  0.00    +0.000 A 
ATOM     19  C   UNL     1       2.158   4.855  18.742  0.00  0.00    +0.000 A 
ENDBRANCH  13  14
ENDBRANCH   6  13
TORSDOF 4
ENDMDL
MODEL 3
REMARK VINA RESULT:      -6.6      1.135      1.163
REMARK  Name = 
REMARK  6 active torsions:
REMARK  status: ('A' for Active; 'I' for Inactive)
REMARK    1  A    between atoms: C_1  and  C_2
REMARK    2  A    between atoms: C_2  and  C_3
REMARK    3  A    between atoms: C_2  and  C_4
REMARK    4  A    between atoms: C_4  and  C_5
REMARK    5  A    between atoms: N_10  and  C_11
REMARK    6  A    between atoms: C_11  and  C_12
REMARK                            x       y       z     vdW  Elec       q    Type
REMARK                         _______ _______ _______ _____ _____    ______ ____
ROOT
ATOM      1  C   UNL     1       2.269   3.904  18.300  0.00  0.00    +0.000 A 
ATOM      2  C   UNL     1       1.588   3.070  19.164  0.00  0.00    +0.000 A 
ATOM      3  N   UNL     1       2.232   1.879  19.324  0.00  0.00    +0.000 NA
ATOM      4  C   UNL     1       3.290   1.945  18.559  0.00  0.00    +0.000 A 
ATOM      5  N   UNL     1       4.218   0.981  18.437  0.00  0.00    +0.000 N 
ATOM      6  N   UNL     1       3.342   3.141  17.871  0.00  0.00    +0.000 N 
ATOM      7  H   UNL     1       3.955   0.103  18.873  0.00  0.00    +0.000 HD
ATOM      8  H   UNL     1       4.693   0.843  17.552  0.00  0.00    +0.000 HD
ENDROOT
BRANCH   1   9
ATOM      9  C   UNL     1       1.954   5.313  17.896  0.00  0.00    +0.000 C 
BRANCH   9  11
ATOM     10  C   UNL     1       2.948   7.663  17.949  0.00  0.00    +0.000 C 
ATOM     11  C   UNL     1       2.778   6.342  18.704  0.00  0.00    +0.000 C 
ATOM     12  C   UNL     1       2.133   6.610  20.066  0.00  0.00    +0.000 C 
ENDBRANCH   9  11
ENDBRANCH   1   9
BRANCH   6  13
ATOM     13  C   UNL     1       4.379   3.515  16.920  0.00  0.00    +0.000 C 
BRANCH  13  14
ATOM     14  C   UNL     1       5.388   4.521  17.443  0.00  0.00    +0.000 A 
ATOM     15  C   UNL     1       5.865   4.538  18.764  0.00  0.00    +0.000 A 
ATOM     16  C   UNL     1       6.846   5.451  19.160  0.00  0.00    +0.000 A 
ATOM     17  C   UNL     1       7.364   6.367  18.249  0.00  0.00    +0.000 A 
ATOM     18  C   UNL     1       6.884   6.388  16.944  0.00  0.00    +0.000 A 
ATOM     19  C   UNL     1       5.901   5.476  16.545  0.00  0.00    +0.000 A 
ENDBRANCH  13  14
ENDBRANCH   6  13
TORSDOF 4
ENDMDL
MODEL 4
REMARK VINA RESULT:      -6.6      1.388      1.978
REMARK  Name = 
REMARK  6 active torsions:
REMARK  status: ('A' for Active; 'I' for Inactive)
REMARK    1  A    between atoms: C_1  and  C_2
REMARK    2  A    between atoms: C_2  and  C_3
REMARK    3  A    between atoms: C_2  and  C_4
REMARK    4  A    between atoms: C_4  and  C_5
REMARK    5  A    between atoms: N_10  and  C_11
REMARK    6  A    between atoms: C_11  and  C_12
REMARK                            x       y       z     vdW  Elec       q    Type
REMARK                         _______ _______ _______ _____ _____    ______ ____
ROOT
ATOM      1  C   UNL     1       2.556   4.566  18.739  0.00  0.00    +0.000 A 
ATOM      2  C   UNL     1       1.488   3.964  18.102  0.00  0.00    +0.000 A 
ATOM      3  N   UNL     1       1.758   2.665  17.791  0.00  0.00    +0.000 NA
ATOM      4  C   UNL     1       2.981   2.450  18.201  0.00  0.00    +0.000 A 
ATOM      5  N   UNL     1       3.634   1.280  18.107  0.00  0.00    +0.000 N 
ATOM      6  N   UNL     1       3.538   3.589  18.747  0.00  0.00    +0.000 N 
ATOM      7  H   UNL     1       3.157   0.590  17.535  0.00  0.00    +0.000 HD
ATOM      8  H   UNL     1       4.638   1.270  17.964  0.00  0.00    +0.000 HD
ENDROOT
BRANCH   1   9
ATOM      9  C   UNL     1       2.664   5.949  19.306  0.00  0.00    +0.000 C 
BRANCH   9  11
ATOM     10  C   UNL     1       1.911   8.338  18.815  0.00  0.00    +0.000 C 
ATOM     11  C   UNL     1       2.455   7.034  18.225  0.00  0.00    +0.000 C 
ATOM     12  C   UNL     1       3.759   7.317  17.475  0.00  0.00    +0.000 C 
ENDBRANCH   9  11
ENDBRANCH   1   9
BRANCH   6  13
ATOM     13  C   UNL     1       4.892   3.690  19.273  0.00  0.00    +0.000 C 
BRANCH  13  14
ATOM     14  C   UNL     1       5.829   4.557  18.452  0.00  0.00    +0.000 A 
ATOM     15  C   UNL     1       5.933   4.491  17.053  0.00  0.00    +0.000 A 
ATOM     16  C   UNL     1       6.769   5.368  16.355  0.00  0.00    +0.000 A 
ATOM     17  C   UNL     1       7.520   6.319  17.040  0.00  0.00    +0.000 A 
ATOM     18  C   UNL     1       7.455   6.381  18.427  0.00  0.00    +0.000 A 
ATOM     19  C   UNL     1       6.620   5.504  19.129  0.00  0.00    +0.000 A 
ENDBRANCH  13  14
ENDBRANCH   6  13
TORSDOF 4
ENDMDL
MODEL 5
REMARK VINA RESULT:      -6.6      2.768      5.668
REMARK  Name = 
REMARK  6 active torsions:
REMARK  status: ('A' for Active; 'I' for Inactive)
REMARK    1  A    between atoms: C_1  and  C_2
REMARK    2  A    between atoms: C_2  and  C_3
REMARK    3  A    between atoms: C_2  and  C_4
REMARK    4  A    between atoms: C_4  and  C_5
REMARK    5  A    between atoms: N_10  and  C_11
REMARK    6  A    between atoms: C_11  and  C_12
REMARK                            x       y       z     vdW  Elec       q    Type
REMARK                         _______ _______ _______ _____ _____    ______ ____
ROOT
ATOM      1  C   UNL     1       6.137   4.755  16.056  0.00  0.00    +0.000 A 
ATOM      2  C   UNL     1       7.409   4.417  16.476  0.00  0.00    +0.000 A 
ATOM      3  N   UNL     1       7.523   4.481  17.833  0.00  0.00    +0.000 NA
ATOM      4  C   UNL     1       6.354   4.874  18.267  0.00  0.00    +0.000 A 
ATOM      5  N   UNL     1       6.026   5.045  19.559  0.00  0.00    +0.000 N 
ATOM      6  N   UNL     1       5.478   5.103  17.225  0.00  0.00    +0.000 N 
ATOM      7  H   UNL     1       6.819   5.000  20.191  0.00  0.00    +0.000 HD
ATOM      8  H   UNL     1       5.365   5.767  19.823  0.00  0.00    +0.000 HD
ENDROOT
BRANCH   1   9
ATOM      9  C   UNL     1       5.563   4.755  14.672  0.00  0.00    +0.000 C 
BRANCH   9  11
ATOM     10  C   UNL     1       5.720   3.360  12.540  0.00  0.00    +0.000 C 
ATOM     11  C   UNL     1       6.499   4.056  13.660  0.00  0.00    +0.000 C 
ATOM     12  C   UNL     1       7.489   5.053  13.051  0.00  0.00    +0.000 C 
ENDBRANCH   9  11
ENDBRANCH   1   9
BRANCH   6  13
ATOM     13  C   UNL     1       4.107   5.571  17.370  0.00  0.00    +0.000 C 
BRANCH  13  14
ATOM     14  C   UNL     1       3.138   4.539  17.918  0.00  0.00    +0.000 A 
ATOM     15  C   UNL     1       2.180   4.813  18.907  0.00  0.00    +0.000 A 
ATOM     16  C   UNL     1       1.272   3.832  19.318  0.00  0.00    +0.000 A 
ATOM     17  C   UNL     1       1.310   2.560  18.753  0.00  0.00    +0.000 A 
ATOM     18  C   UNL     1       2.270   2.258  17.795  0.00  0.00    +0.000 A 
ATOM     19  C   UNL     1       3.181   3.238  17.383  0.00  0.00    +0.000 A 
ENDBRANCH  13  14
ENDBRANCH   6  13
TORSDOF 4
ENDMDL
MODEL 6
REMARK VINA RESULT:      -6.6      0.196      1.182
REMARK  Name = 
REMARK  6 active torsions:
REMARK  status: ('A' for Active; 'I' for Inactive)
REMARK    1  A    between atoms: C_1  and  C_2
REMARK    2  A    between atoms: C_2  and  C_3
REMARK    3  A    between atoms: C_2  and  C_4
REMARK    4  A    between atoms: C_4  and  C_5
REMARK    5  A    between atoms: N_10  and  C_11
REMARK    6  A    between atoms: C_11  and  C_12
REMARK                            x       y       z     vdW  Elec       q    Type
REMARK                         _______ _______ _______ _____ _____    ______ ____
ROOT
ATOM      1  C   UNL     1       2.763   4.490  19.025  0.00  0.00    +0.000 A 
ATOM      2  C   UNL     1       2.281   3.914  20.184  0.00  0.00    +0.000 A 
ATOM      3  N   UNL     1       3.083   2.897  20.610  0.00  0.00    +0.000 NA
ATOM      4  C   UNL     1       4.044   2.812  19.728  0.00  0.00    +0.000 A 
ATOM      5  N   UNL     1       5.070   1.946  19.782  0.00  0.00    +0.000 N 
ATOM      6  N   UNL     1       3.877   3.729  18.710  0.00  0.00    +0.000 N 
ATOM      7  H   UNL     1       4.963   1.230  20.494  0.00  0.00    +0.000 HD
ATOM      8  H   UNL     1       5.469   1.578  18.925  0.00  0.00    +0.000 HD
ENDROOT
BRANCH   1   9
ATOM      9  C   UNL     1       2.236   5.665  18.260  0.00  0.00    +0.000 C 
BRANCH   9  11
ATOM     10  C   UNL     1       2.750   8.112  17.752  0.00  0.00    +0.000 C 
ATOM     11  C   UNL     1       2.783   7.003  18.806  0.00  0.00    +0.000 C 
ATOM     12  C   UNL     1       2.001   7.449  20.044  0.00  0.00    +0.000 C 
ENDBRANCH   9  11
ENDBRANCH   1   9
BRANCH   6  13
ATOM     13  C   UNL     1       4.760   3.875  17.561  0.00  0.00    +0.000 C 
BRANCH  13  14
ATOM     14  C   UNL     1       5.778   4.995  17.680  0.00  0.00    +0.000 A 
ATOM     15  C   UNL     1       5.770   6.148  16.878  0.00  0.00    +0.000 A 
ATOM     16  C   UNL     1       6.698   7.173  17.088  0.00  0.00    +0.000 A 
ATOM     17  C   UNL     1       7.651   7.062  18.096  0.00  0.00    +0.000 A 
ATOM     18  C   UNL     1       7.696   5.917  18.881  0.00  0.00    +0.000 A 
ATOM     19  C   UNL     1       6.770   4.888  18.673  0.00  0.00    +0.000 A 
ENDBRANCH  13  14
ENDBRANCH   6  13
TORSDOF 4
ENDMDL
MODEL 7
REMARK VINA RESULT:      -6.5      1.088      1.581
REMARK  Name = 
REMARK  6 active torsions:
REMARK  status: ('A' for Active; 'I' for Inactive)
REMARK    1  A    between atoms: C_1  and  C_2
REMARK    2  A    between atoms: C_2  and  C_3
REMARK    3  A    between atoms: C_2  and  C_4
REMARK    4  A    between atoms: C_4  and  C_5
REMARK    5  A    between atoms: N_10  and  C_11
REMARK    6  A    between atoms: C_11  and  C_12
REMARK                            x       y       z     vdW  Elec       q    Type
REMARK                         _______ _______ _______ _____ _____    ______ ____
ROOT
ATOM      1  C   UNL     1       2.339   4.004  18.317  0.00  0.00    +0.000 A 
ATOM      2  C   UNL     1       1.671   3.222  19.239  0.00  0.00    +0.000 A 
ATOM      3  N   UNL     1       2.283   2.016  19.410  0.00  0.00    +0.000 NA
ATOM      4  C   UNL     1       3.306   2.021  18.597  0.00  0.00    +0.000 A 
ATOM      5  N   UNL     1       4.196   1.022  18.468  0.00  0.00    +0.000 N 
ATOM      6  N   UNL     1       3.367   3.191  17.868  0.00  0.00    +0.000 N 
ATOM      7  H   UNL     1       3.924   0.168  18.944  0.00  0.00    +0.000 HD
ATOM      8  H   UNL     1       4.626   0.840  17.568  0.00  0.00    +0.000 HD
ENDROOT
BRANCH   1   9
ATOM      9  C   UNL     1       2.053   5.409  17.880  0.00  0.00    +0.000 C 
BRANCH   9  11
ATOM     10  C   UNL     1       3.145   7.715  17.857  0.00  0.00    +0.000 C 
ATOM     11  C   UNL     1       2.895   6.440  18.666  0.00  0.00    +0.000 C 
ATOM     12  C   UNL     1       2.220   6.800  19.992  0.00  0.00    +0.000 C 
ENDBRANCH   9  11
ENDBRANCH   1   9
BRANCH   6  13
ATOM     13  C   UNL     1       4.371   3.499  16.860  0.00  0.00    +0.000 C 
BRANCH  13  14
ATOM     14  C   UNL     1       5.419   4.508  17.294  0.00  0.00    +0.000 A 
ATOM     15  C   UNL     1       5.938   5.507  16.455  0.00  0.00    +0.000 A 
ATOM     16  C   UNL     1       6.852   6.447  16.941  0.00  0.00    +0.000 A 
ATOM     17  C   UNL     1       7.266   6.404  18.269  0.00  0.00    +0.000 A 
ATOM     18  C   UNL     1       6.788   5.405  19.109  0.00  0.00    +0.000 A 
ATOM     19  C   UNL     1       5.874   4.461  18.625  0.00  0.00    +0.000 A 
ENDBRANCH  13  14
ENDBRANCH   6  13
TORSDOF 4
ENDMDL
MODEL 8
REMARK VINA RESULT:      -6.5      2.175      4.462
REMARK  Name = 
REMARK  6 active torsions:
REMARK  status: ('A' for Active; 'I' for Inactive)
REMARK    1  A    between atoms: C_1  and  C_2
REMARK    2  A    between atoms: C_2  and  C_3
REMARK    3  A    between atoms: C_2  and  C_4
REMARK    4  A    between atoms: C_4  and  C_5
REMARK    5  A    between atoms: N_10  and  C_11
REMARK    6  A    between atoms: C_11  and  C_12
REMARK                            x       y       z     vdW  Elec       q    Type
REMARK                         _______ _______ _______ _____ _____    ______ ____
ROOT
ATOM      1  C   UNL     1       5.234   6.498  17.137  0.00  0.00    +0.000 A 
ATOM      2  C   UNL     1       6.327   7.248  17.526  0.00  0.00    +0.000 A 
ATOM      3  N   UNL     1       7.464   6.497  17.560  0.00  0.00    +0.000 NA
ATOM      4  C   UNL     1       7.099   5.288  17.223  0.00  0.00    +0.000 A 
ATOM      5  N   UNL     1       7.925   4.234  17.108  0.00  0.00    +0.000 N 
ATOM      6  N   UNL     1       5.740   5.215  16.997  0.00  0.00    +0.000 N 
ATOM      7  H   UNL     1       8.859   4.406  17.466  0.00  0.00    +0.000 HD
ATOM      8  H   UNL     1       7.593   3.303  17.333  0.00  0.00    +0.000 HD
ENDROOT
BRANCH   1   9
ATOM      9  C   UNL     1       3.819   6.932  16.907  0.00  0.00    +0.000 C 
BRANCH   9  11
ATOM     10  C   UNL     1       2.163   8.678  17.759  0.00  0.00    +0.000 C 
ATOM     11  C   UNL     1       3.226   7.645  18.144  0.00  0.00    +0.000 C 
ATOM     12  C   UNL     1       2.624   6.634  19.122  0.00  0.00    +0.000 C 
ENDBRANCH   9  11
ENDBRANCH   1   9
BRANCH   6  13
ATOM     13  C   UNL     1       5.015   4.007  16.629  0.00  0.00    +0.000 C 
BRANCH  13  14
ATOM     14  C   UNL     1       3.963   3.567  17.630  0.00  0.00    +0.000 A 
ATOM     15  C   UNL     1       2.611   3.365  17.307  0.00  0.00    +0.000 A 
ATOM     16  C   UNL     1       1.709   2.892  18.265  0.00  0.00    +0.000 A 
ATOM     17  C   UNL     1       2.137   2.620  19.560  0.00  0.00    +0.000 A 
ATOM     18  C   UNL     1       3.464   2.842  19.910  0.00  0.00    +0.000 A 
ATOM     19  C   UNL     1       4.370   3.316  18.954  0.00  0.00    +0.000 A 
ENDBRANCH  13  14
ENDBRANCH   6  13
TORSDOF 4
ENDMDL
MODEL 9
REMARK VINA RESULT:      -6.4      3.914      6.184
REMARK  Name = 
REMARK  6 active torsions:
REMARK  status: ('A' for Active; 'I' for Inactive)
REMARK    1  A    between atoms: C_1  and  C_2
REMARK    2  A    between atoms: C_2  and  C_3
REMARK    3  A    between atoms: C_2  and  C_4
REMARK    4  A    between atoms: C_4  and  C_5
REMARK    5  A    between atoms: N_10  and  C_11
REMARK    6  A    between atoms: C_11  and  C_12
REMARK                            x       y       z     vdW  Elec       q    Type
REMARK                         _______ _______ _______ _____ _____    ______ ____
ROOT
ATOM      1  C   UNL     1       5.892   4.115  14.117  0.00  0.00    +0.000 A 
ATOM      2  C   UNL     1       6.958   4.874  13.676  0.00  0.00    +0.000 A 
ATOM      3  N   UNL     1       7.775   5.238  14.705  0.00  0.00    +0.000 NA
ATOM      4  C   UNL     1       7.226   4.741  15.783  0.00  0.00    +0.000 A 
ATOM      5  N   UNL     1       7.727   4.849  17.026  0.00  0.00    +0.000 N 
ATOM      6  N   UNL     1       6.048   4.084  15.494  0.00  0.00    +0.000 N 
ATOM      7  H   UNL     1       8.503   5.499  17.098  0.00  0.00    +0.000 HD
ATOM      8  H   UNL     1       7.100   4.909  17.821  0.00  0.00    +0.000 HD
ENDROOT
BRANCH   1   9
ATOM      9  C   UNL     1       4.802   3.460  13.325  0.00  0.00    +0.000 C 
BRANCH   9  11
ATOM     10  C   UNL     1       5.894   1.971  11.564  0.00  0.00    +0.000 C 
ATOM     11  C   UNL     1       5.186   3.301  11.836  0.00  0.00    +0.000 C 
ATOM     12  C   UNL     1       3.953   3.418  10.937  0.00  0.00    +0.000 C 
ENDBRANCH   9  11
ENDBRANCH   1   9
BRANCH   6  13
ATOM     13  C   UNL     1       5.184   3.442  16.474  0.00  0.00    +0.000 C 
BRANCH  13  14
ATOM     14  C   UNL     1       4.149   4.355  17.104  0.00  0.00    +0.000 A 
ATOM     15  C   UNL     1       4.368   5.715  17.380  0.00  0.00    +0.000 A 
ATOM     16  C   UNL     1       3.346   6.514  17.899  0.00  0.00    +0.000 A 
ATOM     17  C   UNL     1       2.091   5.971  18.158  0.00  0.00    +0.000 A 
ATOM     18  C   UNL     1       1.861   4.621  17.921  0.00  0.00    +0.000 A 
ATOM     19  C   UNL     1       2.883   3.817  17.403  0.00  0.00    +0.000 A 
ENDBRANCH  13  14
ENDBRANCH   6  13
TORSDOF 4
ENDMDL
