MODEL 1
REMARK VINA RESULT:      -6.6      0.000      0.000
REMARK  Name = 
REMARK  5 active torsions:
REMARK  status: ('A' for Active; 'I' for Inactive)
REMARK    1  A    between atoms: C_1  and  O_2
REMARK    2  A    between atoms: O_2  and  C_3
REMARK    3  A    between atoms: C_3  and  C_4
REMARK    4  A    between atoms: C_7  and  C_9
REMARK    5  A    between atoms: N_20  and  C_21
REMARK                            x       y       z     vdW  Elec       q    Type
REMARK                         _______ _______ _______ _____ _____    ______ ____
ROOT
ATOM      1  C   UNL     1       6.293   5.517  17.488  0.00  0.00    +0.000 C 
ATOM      2  C   UNL     1       4.921   5.002  17.980  0.00  0.00    +0.000 C 
ATOM      3  N   UNL     1       4.156   3.979  17.230  0.00  0.00    +0.000 N 
ATOM      4  C   UNL     1       2.993   3.360  17.733  0.00  0.00    +0.000 C 
ATOM      5  O   UNL     1       2.303   2.609  17.036  0.00  0.00    +0.000 OA
ATOM      6  C   UNL     1       4.470   3.655  15.825  0.00  0.00    +0.000 C 
ATOM      7  C   UNL     1       5.670   4.368  15.348  0.00  0.00    +0.000 A 
ATOM      8  C   UNL     1       6.497   5.205  16.061  0.00  0.00    +0.000 A 
ATOM      9  C   UNL     1       7.463   5.638  15.146  0.00  0.00    +0.000 A 
ATOM     10  N   UNL     1       7.280   5.104  13.940  0.00  0.00    +0.000 NA
ATOM     11  N   UNL     1       6.198   4.317  14.088  0.00  0.00    +0.000 N 
ATOM     12  C   UNL     1       5.739   3.533  12.966  0.00  0.00    +0.000 C 
ENDROOT
BRANCH   4  13
ATOM     13  C   UNL     1       2.598   3.491  19.163  0.00  0.00    +0.000 A 
ATOM     14  C   UNL     1       1.882   4.544  19.722  0.00  0.00    +0.000 A 
ATOM     15  C   UNL     1       1.783   4.614  21.099  0.00  0.00    +0.000 A 
ATOM     16  N   UNL     1       2.272   3.658  21.908  0.00  0.00    +0.000 NA
ATOM     17  N   UNL     1       2.858   2.560  21.363  0.00  0.00    +0.000 NA
ATOM     18  C   UNL     1       3.016   2.490  20.022  0.00  0.00    +0.000 A 
ENDBRANCH   4  13
BRANCH   1  19
ATOM     19  C   UNL     1       7.417   4.995  18.393  0.00  0.00    +0.000 C 
BRANCH  19  21
ATOM     20  C   UNL     1       8.113   7.251  18.482  0.00  0.00    +0.000 C 
ATOM     21  O   UNL     1       7.893   6.059  19.223  0.00  0.00    +0.000 OA
ENDBRANCH  19  21
ENDBRANCH   1  19
TORSDOF 3
ENDMDL
MODEL 2
REMARK VINA RESULT:      -6.5      0.549      1.041
REMARK  Name = 
REMARK  5 active torsions:
REMARK  status: ('A' for Active; 'I' for Inactive)
REMARK    1  A    between atoms: C_1  and  O_2
REMARK    2  A    between atoms: O_2  and  C_3
REMARK    3  A    between atoms: C_3  and  C_4
REMARK    4  A    between atoms: C_7  and  C_9
REMARK    5  A    between atoms: N_20  and  C_21
REMARK                            x       y       z     vdW  Elec       q    Type
REMARK                         _______ _______ _______ _____ _____    ______ ____
ROOT
ATOM      1  C   UNL     1       6.438   5.376  17.373  0.00  0.00    +0.000 C 
ATOM      2  C   UNL     1       5.076   4.871  17.902  0.00  0.00    +0.000 C 
ATOM      3  N   UNL     1       4.269   3.877  17.158  0.00  0.00    +0.000 N 
ATOM      4  C   UNL     1       3.114   3.265  17.689  0.00  0.00    +0.000 C 
ATOM      5  O   UNL     1       2.388   2.541  17.001  0.00  0.00    +0.000 OA
ATOM      6  C   UNL     1       4.528   3.580  15.736  0.00  0.00    +0.000 C 
ATOM      7  C   UNL     1       5.722   4.285  15.232  0.00  0.00    +0.000 A 
ATOM      8  C   UNL     1       6.586   5.092  15.933  0.00  0.00    +0.000 A 
ATOM      9  C   UNL     1       7.527   5.531  14.994  0.00  0.00    +0.000 A 
ATOM     10  N   UNL     1       7.292   5.027  13.784  0.00  0.00    +0.000 NA
ATOM     11  N   UNL     1       6.203   4.253  13.953  0.00  0.00    +0.000 N 
ATOM     12  C   UNL     1       5.693   3.502  12.831  0.00  0.00    +0.000 C 
ENDROOT
BRANCH   4  13
ATOM     13  C   UNL     1       2.773   3.371  19.135  0.00  0.00    +0.000 A 
ATOM     14  C   UNL     1       3.347   2.638  20.168  0.00  0.00    +0.000 A 
ATOM     15  C   UNL     1       2.769   2.707  21.422  0.00  0.00    +0.000 A 
ATOM     16  N   UNL     1       1.737   3.523  21.699  0.00  0.00    +0.000 NA
ATOM     17  N   UNL     1       1.254   4.340  20.726  0.00  0.00    +0.000 NA
ATOM     18  C   UNL     1       1.764   4.255  19.476  0.00  0.00    +0.000 A 
ENDBRANCH   4  13
BRANCH   1  19
ATOM     19  C   UNL     1       7.586   4.816  18.226  0.00  0.00    +0.000 C 
BRANCH  19  21
ATOM     20  C   UNL     1       8.070   7.105  18.554  0.00  0.00    +0.000 C 
ATOM     21  O   UNL     1       8.023   5.816  19.150  0.00  0.00    +0.000 OA
ENDBRANCH  19  21
ENDBRANCH   1  19
TORSDOF 3
ENDMDL
MODEL 3
REMARK VINA RESULT:      -6.4      2.573      6.461
REMARK  Name = 
REMARK  5 active torsions:
REMARK  status: ('A' for Active; 'I' for Inactive)
REMARK    1  A    between atoms: C_1  and  O_2
REMARK    2  A    between atoms: O_2  and  C_3
REMARK    3  A    between atoms: C_3  and  C_4
REMARK    4  A    between atoms: C_7  and  C_9
REMARK    5  A    between atoms: N_20  and  C_21
REMARK                            x       y       z     vdW  Elec       q    Type
REMARK                         _______ _______ _______ _____ _____    ______ ____
ROOT
ATOM      1  C   UNL     1       3.361   7.293  18.426  0.00  0.00    +0.000 C 
ATOM      2  C   UNL     1       4.307   6.333  17.668  0.00  0.00    +0.000 C 
ATOM      3  N   UNL     1       4.095   4.867  17.665  0.00  0.00    +0.000 N 
ATOM      4  C   UNL     1       4.827   3.982  16.847  0.00  0.00    +0.000 C 
ATOM      5  O   UNL     1       4.722   2.757  16.959  0.00  0.00    +0.000 OA
ATOM      6  C   UNL     1       3.208   4.213  18.646  0.00  0.00    +0.000 C 
ATOM      7  C   UNL     1       2.506   5.193  19.497  0.00  0.00    +0.000 A 
ATOM      8  C   UNL     1       2.558   6.565  19.427  0.00  0.00    +0.000 A 
ATOM      9  C   UNL     1       1.739   7.020  20.467  0.00  0.00    +0.000 A 
ATOM     10  N   UNL     1       1.190   6.013  21.143  0.00  0.00    +0.000 NA
ATOM     11  N   UNL     1       1.650   4.909  20.524  0.00  0.00    +0.000 N 
ATOM     12  C   UNL     1       1.206   3.612  20.976  0.00  0.00    +0.000 C 
ENDROOT
BRANCH   4  13
ATOM     13  C   UNL     1       5.681   4.478  15.733  0.00  0.00    +0.000 A 
ATOM     14  C   UNL     1       5.533   4.166  14.385  0.00  0.00    +0.000 A 
ATOM     15  C   UNL     1       6.535   4.541  13.511  0.00  0.00    +0.000 A 
ATOM     16  N   UNL     1       7.595   5.274  13.896  0.00  0.00    +0.000 NA
ATOM     17  N   UNL     1       7.681   5.695  15.185  0.00  0.00    +0.000 NA
ATOM     18  C   UNL     1       6.743   5.298  16.075  0.00  0.00    +0.000 A 
ENDBRANCH   4  13
BRANCH   1  19
ATOM     19  C   UNL     1       2.513   8.103  17.436  0.00  0.00    +0.000 C 
BRANCH  19  21
ATOM     20  C   UNL     1       0.978   9.759  18.131  0.00  0.00    +0.000 C 
ATOM     21  O   UNL     1       2.346   9.434  17.932  0.00  0.00    +0.000 OA
ENDBRANCH  19  21
ENDBRANCH   1  19
TORSDOF 3
ENDMDL
MODEL 4
REMARK VINA RESULT:      -6.3      4.191      5.982
REMARK  Name = 
REMARK  5 active torsions:
REMARK  status: ('A' for Active; 'I' for Inactive)
REMARK    1  A    between atoms: C_1  and  O_2
REMARK    2  A    between atoms: O_2  and  C_3
REMARK    3  A    between atoms: C_3  and  C_4
REMARK    4  A    between atoms: C_7  and  C_9
REMARK    5  A    between atoms: N_20  and  C_21
REMARK                            x       y       z     vdW  Elec       q    Type
REMARK                         _______ _______ _______ _____ _____    ______ ____
ROOT
ATOM      1  C   UNL     1       2.466   5.404  20.288  0.00  0.00    +0.000 C 
ATOM      2  C   UNL     1       2.085   6.845  19.880  0.00  0.00    +0.000 C 
ATOM      3  N   UNL     1       2.554   7.450  18.612  0.00  0.00    +0.000 N 
ATOM      4  C   UNL     1       2.087   8.688  18.126  0.00  0.00    +0.000 C 
ATOM      5  O   UNL     1       2.589   9.229  17.137  0.00  0.00    +0.000 OA
ATOM      6  C   UNL     1       3.673   6.867  17.848  0.00  0.00    +0.000 C 
ATOM      7  C   UNL     1       4.143   5.597  18.433  0.00  0.00    +0.000 A 
ATOM      8  C   UNL     1       3.631   4.926  19.519  0.00  0.00    +0.000 A 
ATOM      9  C   UNL     1       4.446   3.800  19.675  0.00  0.00    +0.000 A 
ATOM     10  N   UNL     1       5.401   3.744  18.748  0.00  0.00    +0.000 NA
ATOM     11  N   UNL     1       5.185   4.835  17.988  0.00  0.00    +0.000 N 
ATOM     12  C   UNL     1       6.025   5.066  16.836  0.00  0.00    +0.000 C 
ENDROOT
BRANCH   4  13
ATOM     13  C   UNL     1       0.891   9.354  18.715  0.00  0.00    +0.000 A 
ATOM     14  C   UNL     1      -0.270   9.705  18.034  0.00  0.00    +0.000 A 
ATOM     15  C   UNL     1      -1.194  10.503  18.680  0.00  0.00    +0.000 A 
ATOM     16  N   UNL     1      -1.057  10.873  19.966  0.00  0.00    +0.000 NA
ATOM     17  N   UNL     1       0.010  10.425  20.678  0.00  0.00    +0.000 NA
ATOM     18  C   UNL     1       0.958   9.687  20.056  0.00  0.00    +0.000 A 
ENDBRANCH   4  13
BRANCH   1  19
ATOM     19  C   UNL     1       1.247   4.477  20.187  0.00  0.00    +0.000 C 
BRANCH  19  21
ATOM     20  C   UNL     1       0.890   2.573  18.835  0.00  0.00    +0.000 C 
ATOM     21  O   UNL     1       1.145   3.970  18.853  0.00  0.00    +0.000 OA
ENDBRANCH  19  21
ENDBRANCH   1  19
TORSDOF 3
ENDMDL
MODEL 5
REMARK VINA RESULT:      -6.2      4.099      5.946
REMARK  Name = 
REMARK  5 active torsions:
REMARK  status: ('A' for Active; 'I' for Inactive)
REMARK    1  A    between atoms: C_1  and  O_2
REMARK    2  A    between atoms: O_2  and  C_3
REMARK    3  A    between atoms: C_3  and  C_4
REMARK    4  A    between atoms: C_7  and  C_9
REMARK    5  A    between atoms: N_20  and  C_21
REMARK                            x       y       z     vdW  Elec       q    Type
REMARK                         _______ _______ _______ _____ _____    ______ ____
ROOT
ATOM      1  C   UNL     1       2.498   5.225  20.378  0.00  0.00    +0.000 C 
ATOM      2  C   UNL     1       2.199   6.683  19.959  0.00  0.00    +0.000 C 
ATOM      3  N   UNL     1       2.667   7.237  18.668  0.00  0.00    +0.000 N 
ATOM      4  C   UNL     1       2.267   8.497  18.177  0.00  0.00    +0.000 C 
ATOM      5  O   UNL     1       2.773   8.990  17.165  0.00  0.00    +0.000 OA
ATOM      6  C   UNL     1       3.721   6.572  17.879  0.00  0.00    +0.000 C 
ATOM      7  C   UNL     1       4.124   5.282  18.470  0.00  0.00    +0.000 A 
ATOM      8  C   UNL     1       3.603   4.660  19.581  0.00  0.00    +0.000 A 
ATOM      9  C   UNL     1       4.348   3.485  19.730  0.00  0.00    +0.000 A 
ATOM     10  N   UNL     1       5.267   3.354  18.775  0.00  0.00    +0.000 NA
ATOM     11  N   UNL     1       5.100   4.446  18.004  0.00  0.00    +0.000 N 
ATOM     12  C   UNL     1       5.917   4.605  16.825  0.00  0.00    +0.000 C 
ENDROOT
BRANCH   4  13
ATOM     13  C   UNL     1       1.137   9.248  18.792  0.00  0.00    +0.000 A 
ATOM     14  C   UNL     1       0.942   9.468  20.151  0.00  0.00    +0.000 A 
ATOM     15  C   UNL     1      -0.265  10.000  20.564  0.00  0.00    +0.000 A 
ATOM     16  N   UNL     1      -1.214  10.398  19.698  0.00  0.00    +0.000 NA
ATOM     17  N   UNL     1      -0.978  10.307  18.363  0.00  0.00    +0.000 NA
ATOM     18  C   UNL     1       0.172   9.741  17.931  0.00  0.00    +0.000 A 
ENDBRANCH   4  13
BRANCH   1  19
ATOM     19  C   UNL     1       1.217   4.379  20.328  0.00  0.00    +0.000 C 
BRANCH  19  21
ATOM     20  C   UNL     1       0.779   2.493  18.975  0.00  0.00    +0.000 C 
ATOM     21  O   UNL     1       1.021   3.892  18.997  0.00  0.00    +0.000 OA
ENDBRANCH  19  21
ENDBRANCH   1  19
TORSDOF 3
ENDMDL
MODEL 6
REMARK VINA RESULT:      -6.2      1.974      6.525
REMARK  Name = 
REMARK  5 active torsions:
REMARK  status: ('A' for Active; 'I' for Inactive)
REMARK    1  A    between atoms: C_1  and  O_2
REMARK    2  A    between atoms: O_2  and  C_3
REMARK    3  A    between atoms: C_3  and  C_4
REMARK    4  A    between atoms: C_7  and  C_9
REMARK    5  A    between atoms: N_20  and  C_21
REMARK                            x       y       z     vdW  Elec       q    Type
REMARK                         _______ _______ _______ _____ _____    ______ ____
ROOT
ATOM      1  C   UNL     1       2.766   2.739  18.007  0.00  0.00    +0.000 C 
ATOM      2  C   UNL     1       3.523   3.692  17.053  0.00  0.00    +0.000 C 
ATOM      3  N   UNL     1       3.837   5.089  17.430  0.00  0.00    +0.000 N 
ATOM      4  C   UNL     1       4.673   5.927  16.663  0.00  0.00    +0.000 C 
ATOM      5  O   UNL     1       4.812   7.125  16.930  0.00  0.00    +0.000 OA
ATOM      6  C   UNL     1       3.159   5.755  18.558  0.00  0.00    +0.000 C 
ATOM      7  C   UNL     1       2.268   4.835  19.290  0.00  0.00    +0.000 A 
ATOM      8  C   UNL     1       2.069   3.493  19.066  0.00  0.00    +0.000 A 
ATOM      9  C   UNL     1       1.114   3.099  20.009  0.00  0.00    +0.000 A 
ATOM     10  N   UNL     1       0.741   4.110  20.792  0.00  0.00    +0.000 NA
ATOM     11  N   UNL     1       1.471   5.153  20.354  0.00  0.00    +0.000 N 
ATOM     12  C   UNL     1       1.351   6.426  21.024  0.00  0.00    +0.000 C 
ENDROOT
BRANCH   4  13
ATOM     13  C   UNL     1       5.516   5.387  15.560  0.00  0.00    +0.000 A 
ATOM     14  C   UNL     1       5.080   4.574  14.520  0.00  0.00    +0.000 A 
ATOM     15  C   UNL     1       6.029   3.990  13.702  0.00  0.00    +0.000 A 
ATOM     16  N   UNL     1       7.343   4.253  13.816  0.00  0.00    +0.000 NA
ATOM     17  N   UNL     1       7.764   5.149  14.747  0.00  0.00    +0.000 NA
ATOM     18  C   UNL     1       6.865   5.694  15.596  0.00  0.00    +0.000 A 
ENDBRANCH   4  13
BRANCH   1  19
ATOM     19  C   UNL     1       3.714   1.661  18.551  0.00  0.00    +0.000 C 
BRANCH  19  21
ATOM     20  C   UNL     1       4.775   1.719  20.661  0.00  0.00    +0.000 C 
ATOM     21  O   UNL     1       4.723   2.277  19.356  0.00  0.00    +0.000 OA
ENDBRANCH  19  21
ENDBRANCH   1  19
TORSDOF 3
ENDMDL
MODEL 7
REMARK VINA RESULT:      -6.2      4.420      6.008
REMARK  Name = 
REMARK  5 active torsions:
REMARK  status: ('A' for Active; 'I' for Inactive)
REMARK    1  A    between atoms: C_1  and  O_2
REMARK    2  A    between atoms: O_2  and  C_3
REMARK    3  A    between atoms: C_3  and  C_4
REMARK    4  A    between atoms: C_7  and  C_9
REMARK    5  A    between atoms: N_20  and  C_21
REMARK                            x       y       z     vdW  Elec       q    Type
REMARK                         _______ _______ _______ _____ _____    ______ ____
ROOT
ATOM      1  C   UNL     1       2.641   5.673  20.175  0.00  0.00    +0.000 C 
ATOM      2  C   UNL     1       2.234   7.146  19.940  0.00  0.00    +0.000 C 
ATOM      3  N   UNL     1       2.432   7.812  18.632  0.00  0.00    +0.000 N 
ATOM      4  C   UNL     1       1.918   9.090  18.329  0.00  0.00    +0.000 C 
ATOM      5  O   UNL     1       2.208   9.675  17.282  0.00  0.00    +0.000 OA
ATOM      6  C   UNL     1       3.330   7.247  17.606  0.00  0.00    +0.000 C 
ATOM      7  C   UNL     1       3.867   5.933  18.004  0.00  0.00    +0.000 A 
ATOM      8  C   UNL     1       3.584   5.211  19.140  0.00  0.00    +0.000 A 
ATOM      9  C   UNL     1       4.370   4.056  19.050  0.00  0.00    +0.000 A 
ATOM     10  N   UNL     1       5.090   4.032  17.930  0.00  0.00    +0.000 NA
ATOM     11  N   UNL     1       4.754   5.171  17.296  0.00  0.00    +0.000 N 
ATOM     12  C   UNL     1       5.324   5.448  15.999  0.00  0.00    +0.000 C 
ENDROOT
BRANCH   4  13
ATOM     13  C   UNL     1       0.910   9.750  19.205  0.00  0.00    +0.000 A 
ATOM     14  C   UNL     1       0.982   9.872  20.589  0.00  0.00    +0.000 A 
ATOM     15  C   UNL     1      -0.134  10.325  21.267  0.00  0.00    +0.000 A 
ATOM     16  N   UNL     1      -1.247  10.737  20.635  0.00  0.00    +0.000 NA
ATOM     17  N   UNL     1      -1.277  10.744  19.276  0.00  0.00    +0.000 NA
ATOM     18  C   UNL     1      -0.220  10.257  18.588  0.00  0.00    +0.000 A 
ENDBRANCH   4  13
BRANCH   1  19
ATOM     19  C   UNL     1       1.394   4.787  20.303  0.00  0.00    +0.000 C 
BRANCH  19  21
ATOM     20  C   UNL     1       1.570   2.519  20.943  0.00  0.00    +0.000 C 
ATOM     21  O   UNL     1       1.572   3.869  21.385  0.00  0.00    +0.000 OA
ENDBRANCH  19  21
ENDBRANCH   1  19
TORSDOF 3
ENDMDL
MODEL 8
REMARK VINA RESULT:      -6.1      2.643      6.128
REMARK  Name = 
REMARK  5 active torsions:
REMARK  status: ('A' for Active; 'I' for Inactive)
REMARK    1  A    between atoms: C_1  and  O_2
REMARK    2  A    between atoms: O_2  and  C_3
REMARK    3  A    between atoms: C_3  and  C_4
REMARK    4  A    between atoms: C_7  and  C_9
REMARK    5  A    between atoms: N_20  and  C_21
REMARK                            x       y       z     vdW  Elec       q    Type
REMARK                         _______ _______ _______ _____ _____    ______ ____
ROOT
ATOM      1  C   UNL     1       2.878   5.902  20.178  0.00  0.00    +0.000 C 
ATOM      2  C   UNL     1       4.291   5.815  19.556  0.00  0.00    +0.000 C 
ATOM      3  N   UNL     1       4.624   4.819  18.511  0.00  0.00    +0.000 N 
ATOM      4  C   UNL     1       5.841   4.823  17.799  0.00  0.00    +0.000 C 
ATOM      5  O   UNL     1       6.147   3.908  17.029  0.00  0.00    +0.000 OA
ATOM      6  C   UNL     1       3.764   3.647  18.259  0.00  0.00    +0.000 C 
ATOM      7  C   UNL     1       2.530   3.682  19.066  0.00  0.00    +0.000 A 
ATOM      8  C   UNL     1       2.112   4.666  19.931  0.00  0.00    +0.000 A 
ATOM      9  C   UNL     1       0.901   4.205  20.459  0.00  0.00    +0.000 A 
ATOM     10  N   UNL     1       0.559   3.020  19.957  0.00  0.00    +0.000 NA
ATOM     11  N   UNL     1       1.551   2.728  19.094  0.00  0.00    +0.000 N 
ATOM     12  C   UNL     1       1.476   1.511  18.322  0.00  0.00    +0.000 C 
ENDROOT
BRANCH   4  13
ATOM     13  C   UNL     1       6.771   5.986  17.854  0.00  0.00    +0.000 A 
ATOM     14  C   UNL     1       7.804   6.167  18.767  0.00  0.00    +0.000 A 
ATOM     15  C   UNL     1       8.433   7.397  18.811  0.00  0.00    +0.000 A 
ATOM     16  N   UNL     1       8.148   8.387  17.947  0.00  0.00    +0.000 NA
ATOM     17  N   UNL     1       7.231   8.172  16.968  0.00  0.00    +0.000 NA
ATOM     18  C   UNL     1       6.561   6.998  16.933  0.00  0.00    +0.000 A 
ENDBRANCH   4  13
BRANCH   1  19
ATOM     19  C   UNL     1       2.159   7.172  19.700  0.00  0.00    +0.000 C 
BRANCH  19  21
ATOM     20  C   UNL     1       2.062   8.635  17.847  0.00  0.00    +0.000 C 
ATOM     21  O   UNL     1       2.332   7.311  18.287  0.00  0.00    +0.000 OA
ENDBRANCH  19  21
ENDBRANCH   1  19
TORSDOF 3
ENDMDL
MODEL 9
REMARK VINA RESULT:      -5.9      4.779      7.691
REMARK  Name = 
REMARK  5 active torsions:
REMARK  status: ('A' for Active; 'I' for Inactive)
REMARK    1  A    between atoms: C_1  and  O_2
REMARK    2  A    between atoms: O_2  and  C_3
REMARK    3  A    between atoms: C_3  and  C_4
REMARK    4  A    between atoms: C_7  and  C_9
REMARK    5  A    between atoms: N_20  and  C_21
REMARK                            x       y       z     vdW  Elec       q    Type
REMARK                         _______ _______ _______ _____ _____    ______ ____
ROOT
ATOM      1  C   UNL     1       1.547   9.533  18.788  0.00  0.00    +0.000 C 
ATOM      2  C   UNL     1       2.141   8.112  18.916  0.00  0.00    +0.000 C 
ATOM      3  N   UNL     1       1.812   7.227  20.057  0.00  0.00    +0.000 N 
ATOM      4  C   UNL     1       2.192   5.870  20.119  0.00  0.00    +0.000 C 
ATOM      5  O   UNL     1       2.019   5.193  21.136  0.00  0.00    +0.000 OA
ATOM      6  C   UNL     1       1.200   7.755  21.292  0.00  0.00    +0.000 C 
ATOM      7  C   UNL     1       0.868   9.187  21.177  0.00  0.00    +0.000 A 
ATOM      8  C   UNL     1       1.015  10.004  20.081  0.00  0.00    +0.000 A 
ATOM      9  C   UNL     1       0.581  11.267  20.500  0.00  0.00    +0.000 A 
ATOM     10  N   UNL     1       0.170  11.256  21.767  0.00  0.00    +0.000 NA
ATOM     11  N   UNL     1       0.331   9.977  22.155  0.00  0.00    +0.000 N 
ATOM     12  C   UNL     1      -0.070   9.590  23.487  0.00  0.00    +0.000 C 
ENDROOT
BRANCH   4  13
ATOM     13  C   UNL     1       2.718   5.155  18.923  0.00  0.00    +0.000 A 
ATOM     14  C   UNL     1       1.963   4.462  17.984  0.00  0.00    +0.000 A 
ATOM     15  C   UNL     1       2.624   3.680  17.056  0.00  0.00    +0.000 A 
ATOM     16  N   UNL     1       3.966   3.640  16.969  0.00  0.00    +0.000 NA
ATOM     17  N   UNL     1       4.710   4.417  17.799  0.00  0.00    +0.000 NA
ATOM     18  C   UNL     1       4.092   5.150  18.752  0.00  0.00    +0.000 A 
ENDBRANCH   4  13
BRANCH   1  19
ATOM     19  C   UNL     1       0.517   9.584  17.650  0.00  0.00    +0.000 C 
BRANCH  19  21
ATOM     20  C   UNL     1      -1.760  10.042  17.216  0.00  0.00    +0.000 C 
ATOM     21  O   UNL     1      -0.797   9.704  18.204  0.00  0.00    +0.000 OA
ENDBRANCH  19  21
ENDBRANCH   1  19
TORSDOF 3
ENDMDL
