MODEL 1
REMARK VINA RESULT:      -7.8      0.000      0.000
REMARK  Name = 
REMARK  7 active torsions:
REMARK  status: ('A' for Active; 'I' for Inactive)
REMARK    1  A    between atoms: C_1  and  C_2
REMARK    2  A    between atoms: C_5  and  N_6
REMARK    3  A    between atoms: C_7  and  C_9
REMARK    4  A    between atoms: N_14  and  C_15
REMARK    5  A    between atoms: C_28  and  C_29
REMARK    6  A    between atoms: C_28  and  C_30
REMARK    7  A    between atoms: C_32  and  C_33
REMARK                            x       y       z     vdW  Elec       q    Type
REMARK                         _______ _______ _______ _____ _____    ______ ____
ROOT
ATOM      1  C   UNL     1      -0.129  11.092  19.333  0.00  0.00    +0.000 A 
ATOM      2  C   UNL     1      -1.543  11.139  19.489  0.00  0.00    +0.000 A 
ATOM      3  C   UNL     1      -2.185  12.270  20.018  0.00  0.00    +0.000 A 
ATOM      4  N   UNL     1      -3.509  12.540  20.223  0.00  0.00    +0.000 NA
ATOM      5  C   UNL     1      -3.542  13.708  20.829  0.00  0.00    +0.000 A 
ATOM      6  N   UNL     1      -4.584  14.338  21.419  0.00  0.00    +0.000 N 
ATOM      7  N   UNL     1      -2.288  14.260  20.915  0.00  0.00    +0.000 N 
ATOM      8  C   UNL     1      -1.413  13.336  20.437  0.00  0.00    +0.000 A 
ATOM      9  C   UNL     1      -0.061  13.341  20.334  0.00  0.00    +0.000 A 
ATOM     10  C   UNL     1       0.572  12.232  19.752  0.00  0.00    +0.000 A 
ATOM     11  O   UNL     1       1.944  12.445  19.625  0.00  0.00    +0.000 OA
ATOM     12  C   UNL     1       2.107  13.896  19.858  0.00  0.00    +0.000 C 
ATOM     13  C   UNL     1       3.412  14.146  20.612  0.00  0.00    +0.000 C 
ATOM     14  C   UNL     1       2.153  14.581  18.482  0.00  0.00    +0.000 C 
ATOM     15  C   UNL     1       0.888  14.395  20.679  0.00  0.00    +0.000 C 
ATOM     16  H   UNL     1      -4.896  15.183  20.938  0.00  0.00    +0.000 HD
ATOM     17  H   UNL     1      -2.073  15.134  21.372  0.00  0.00    +0.000 HD
ENDROOT
BRANCH   6  18
ATOM     18  C   UNL     1      -5.722  13.604  21.883  0.00  0.00    +0.000 A 
ATOM     19  C   UNL     1      -6.822  13.260  21.062  0.00  0.00    +0.000 A 
ATOM     20 CL   UNL     1      -6.874  13.541  19.348  0.00  0.00    +0.000 Cl
ATOM     21  C   UNL     1      -7.915  12.552  21.580  0.00  0.00    +0.000 A 
ATOM     22  C   UNL     1      -7.916  12.115  22.900  0.00  0.00    +0.000 A 
ATOM     23  C   UNL     1      -6.823  12.391  23.715  0.00  0.00    +0.000 A 
ATOM     24  C   UNL     1      -5.745  13.135  23.215  0.00  0.00    +0.000 A 
ATOM     25 CL   UNL     1      -4.424  13.456  24.290  0.00  0.00    +0.000 Cl
ENDBRANCH   6  18
BRANCH   1  27
ATOM     26  N   UNL     1       1.525   9.277  19.312  0.00  0.00    +0.000 N 
ATOM     27  C   UNL     1       0.445   9.883  18.695  0.00  0.00    +0.000 C 
ATOM     28  O   UNL     1      -0.083   9.510  17.651  0.00  0.00    +0.000 OA
ATOM     29  H   UNL     1       1.836   9.712  20.173  0.00  0.00    +0.000 HD
BRANCH  26  34
ATOM     30  C   UNL     1       4.279   4.608  17.522  0.00  0.00    +0.000 C 
ATOM     31  C   UNL     1       3.572   5.853  17.967  0.00  0.00    +0.000 A 
ATOM     32  C   UNL     1       3.656   7.012  17.221  0.00  0.00    +0.000 A 
ATOM     33  C   UNL     1       2.978   8.143  17.669  0.00  0.00    +0.000 A 
ATOM     34  C   UNL     1       2.225   8.124  18.848  0.00  0.00    +0.000 A 
ATOM     35  C   UNL     1       2.201   6.907  19.545  0.00  0.00    +0.000 A 
ATOM     36  C   UNL     1       1.457   6.681  20.830  0.00  0.00    +0.000 C 
ATOM     37  N   UNL     1       2.862   5.785  19.113  0.00  0.00    +0.000 NA
ENDBRANCH  26  34
ENDBRANCH   1  27
TORSDOF 3
ENDMDL
MODEL 2
REMARK VINA RESULT:      -7.7      1.334      2.136
REMARK  Name = 
REMARK  7 active torsions:
REMARK  status: ('A' for Active; 'I' for Inactive)
REMARK    1  A    between atoms: C_1  and  C_2
REMARK    2  A    between atoms: C_5  and  N_6
REMARK    3  A    between atoms: C_7  and  C_9
REMARK    4  A    between atoms: N_14  and  C_15
REMARK    5  A    between atoms: C_28  and  C_29
REMARK    6  A    between atoms: C_28  and  C_30
REMARK    7  A    between atoms: C_32  and  C_33
REMARK                            x       y       z     vdW  Elec       q    Type
REMARK                         _______ _______ _______ _____ _____    ______ ____
ROOT
ATOM      1  C   UNL     1       0.722  10.742  18.765  0.00  0.00    +0.000 A 
ATOM      2  C   UNL     1      -0.691  10.614  18.653  0.00  0.00    +0.000 A 
ATOM      3  C   UNL     1      -1.551  11.671  18.989  0.00  0.00    +0.000 A 
ATOM      4  N   UNL     1      -2.913  11.777  18.929  0.00  0.00    +0.000 NA
ATOM      5  C   UNL     1      -3.199  12.950  19.452  0.00  0.00    +0.000 A 
ATOM      6  N   UNL     1      -4.401  13.462  19.802  0.00  0.00    +0.000 N 
ATOM      7  N   UNL     1      -2.058  13.660  19.738  0.00  0.00    +0.000 N 
ATOM      8  C   UNL     1      -1.005  12.839  19.484  0.00  0.00    +0.000 A 
ATOM      9  C   UNL     1       0.331  13.012  19.633  0.00  0.00    +0.000 A 
ATOM     10  C   UNL     1       1.191  11.974  19.242  0.00  0.00    +0.000 A 
ATOM     11  O   UNL     1       2.526  12.356  19.360  0.00  0.00    +0.000 OA
ATOM     12  C   UNL     1       2.468  13.823  19.537  0.00  0.00    +0.000 C 
ATOM     13  C   UNL     1       3.566  14.261  20.505  0.00  0.00    +0.000 C 
ATOM     14  C   UNL     1       2.696  14.462  18.158  0.00  0.00    +0.000 C 
ATOM     15  C   UNL     1       1.064  14.190  20.089  0.00  0.00    +0.000 C 
ATOM     16  H   UNL     1      -4.714  14.244  19.225  0.00  0.00    +0.000 HD
ATOM     17  H   UNL     1      -2.041  14.568  20.177  0.00  0.00    +0.000 HD
ENDROOT
BRANCH   6  18
ATOM     18  C   UNL     1      -5.512  12.605  20.087  0.00  0.00    +0.000 A 
ATOM     19  C   UNL     1      -5.935  12.278  21.397  0.00  0.00    +0.000 A 
ATOM     20 CL   UNL     1      -5.271  12.994  22.834  0.00  0.00    +0.000 Cl
ATOM     21  C   UNL     1      -7.023  11.420  21.611  0.00  0.00    +0.000 A 
ATOM     22  C   UNL     1      -7.752  10.918  20.539  0.00  0.00    +0.000 A 
ATOM     23  C   UNL     1      -7.391  11.266  19.241  0.00  0.00    +0.000 A 
ATOM     24  C   UNL     1      -6.280  12.090  19.019  0.00  0.00    +0.000 A 
ATOM     25 CL   UNL     1      -5.878  12.471  17.376  0.00  0.00    +0.000 Cl
ENDBRANCH   6  18
BRANCH   1  27
ATOM     26  N   UNL     1       1.699   8.526  19.179  0.00  0.00    +0.000 N 
ATOM     27  C   UNL     1       1.547   9.595  18.313  0.00  0.00    +0.000 C 
ATOM     28  O   UNL     1       2.046   9.684  17.195  0.00  0.00    +0.000 OA
ATOM     29  H   UNL     1       1.216   8.612  20.067  0.00  0.00    +0.000 HD
BRANCH  26  34
ATOM     30  C   UNL     1       4.700   3.755  18.282  0.00  0.00    +0.000 C 
ATOM     31  C   UNL     1       3.932   5.024  18.494  0.00  0.00    +0.000 A 
ATOM     32  C   UNL     1       4.131   6.111  17.665  0.00  0.00    +0.000 A 
ATOM     33  C   UNL     1       3.391   7.269  17.895  0.00  0.00    +0.000 A 
ATOM     34  C   UNL     1       2.463   7.347  18.940  0.00  0.00    +0.000 A 
ATOM     35  C   UNL     1       2.332   6.199  19.734  0.00  0.00    +0.000 A 
ATOM     36  C   UNL     1       1.397   6.081  20.904  0.00  0.00    +0.000 C 
ATOM     37  N   UNL     1       3.052   5.052  19.517  0.00  0.00    +0.000 NA
ENDBRANCH  26  34
ENDBRANCH   1  27
TORSDOF 3
ENDMDL
MODEL 3
REMARK VINA RESULT:      -7.7      0.271      1.578
REMARK  Name = 
REMARK  7 active torsions:
REMARK  status: ('A' for Active; 'I' for Inactive)
REMARK    1  A    between atoms: C_1  and  C_2
REMARK    2  A    between atoms: C_5  and  N_6
REMARK    3  A    between atoms: C_7  and  C_9
REMARK    4  A    between atoms: N_14  and  C_15
REMARK    5  A    between atoms: C_28  and  C_29
REMARK    6  A    between atoms: C_28  and  C_30
REMARK    7  A    between atoms: C_32  and  C_33
REMARK                            x       y       z     vdW  Elec       q    Type
REMARK                         _______ _______ _______ _____ _____    ______ ____
ROOT
ATOM      1  C   UNL     1      -0.070  11.185  19.394  0.00  0.00    +0.000 A 
ATOM      2  C   UNL     1      -1.480  11.243  19.584  0.00  0.00    +0.000 A 
ATOM      3  C   UNL     1      -2.102  12.387  20.109  0.00  0.00    +0.000 A 
ATOM      4  N   UNL     1      -3.419  12.668  20.342  0.00  0.00    +0.000 NA
ATOM      5  C   UNL     1      -3.431  13.846  20.929  0.00  0.00    +0.000 A 
ATOM      6  N   UNL     1      -4.454  14.491  21.533  0.00  0.00    +0.000 N 
ATOM      7  N   UNL     1      -2.171  14.391  20.975  0.00  0.00    +0.000 N 
ATOM      8  C   UNL     1      -1.314  13.454  20.492  0.00  0.00    +0.000 A 
ATOM      9  C   UNL     1       0.035  13.450  20.355  0.00  0.00    +0.000 A 
ATOM     10  C   UNL     1       0.647  12.327  19.777  0.00  0.00    +0.000 A 
ATOM     11  O   UNL     1       2.017  12.530  19.613  0.00  0.00    +0.000 OA
ATOM     12  C   UNL     1       2.194  13.984  19.818  0.00  0.00    +0.000 C 
ATOM     13  C   UNL     1       3.518  14.238  20.535  0.00  0.00    +0.000 C 
ATOM     14  C   UNL     1       2.211  14.645  18.430  0.00  0.00    +0.000 C 
ATOM     15  C   UNL     1       0.998  14.504  20.660  0.00  0.00    +0.000 C 
ATOM     16  H   UNL     1      -4.774  15.330  21.047  0.00  0.00    +0.000 HD
ATOM     17  H   UNL     1      -1.941  15.271  21.412  0.00  0.00    +0.000 HD
ENDROOT
BRANCH   6  18
ATOM     18  C   UNL     1      -5.585  13.772  22.037  0.00  0.00    +0.000 A 
ATOM     19  C   UNL     1      -5.611  13.137  23.301  0.00  0.00    +0.000 A 
ATOM     20 CL   UNL     1      -4.342  13.275  24.478  0.00  0.00    +0.000 Cl
ATOM     21  C   UNL     1      -6.745  12.434  23.732  0.00  0.00    +0.000 A 
ATOM     22  C   UNL     1      -7.895  12.397  22.951  0.00  0.00    +0.000 A 
ATOM     23  C   UNL     1      -7.917  13.060  21.728  0.00  0.00    +0.000 A 
ATOM     24  C   UNL     1      -6.773  13.729  21.273  0.00  0.00    +0.000 A 
ATOM     25 CL   UNL     1      -6.863  14.518  19.733  0.00  0.00    +0.000 Cl
ENDBRANCH   6  18
BRANCH   1  27
ATOM     26  N   UNL     1       1.523   9.316  19.404  0.00  0.00    +0.000 N 
ATOM     27  C   UNL     1       0.481   9.962  18.763  0.00  0.00    +0.000 C 
ATOM     28  O   UNL     1      -0.029   9.615  17.701  0.00  0.00    +0.000 OA
ATOM     29  H   UNL     1       1.824   9.734  20.278  0.00  0.00    +0.000 HD
BRANCH  26  34
ATOM     30  C   UNL     1       4.173   4.572  17.657  0.00  0.00    +0.000 C 
ATOM     31  C   UNL     1       3.493   5.836  18.090  0.00  0.00    +0.000 A 
ATOM     32  C   UNL     1       3.600   6.985  17.332  0.00  0.00    +0.000 A 
ATOM     33  C   UNL     1       2.948   8.135  17.770  0.00  0.00    +0.000 A 
ATOM     34  C   UNL     1       2.197   8.144  18.951  0.00  0.00    +0.000 A 
ATOM     35  C   UNL     1       2.149   6.935  19.660  0.00  0.00    +0.000 A 
ATOM     36  C   UNL     1       1.403   6.738  20.948  0.00  0.00    +0.000 C 
ATOM     37  N   UNL     1       2.785   5.794  19.239  0.00  0.00    +0.000 NA
ENDBRANCH  26  34
ENDBRANCH   1  27
TORSDOF 3
ENDMDL
MODEL 4
REMARK VINA RESULT:      -7.6      1.320      1.446
REMARK  Name = 
REMARK  7 active torsions:
REMARK  status: ('A' for Active; 'I' for Inactive)
REMARK    1  A    between atoms: C_1  and  C_2
REMARK    2  A    between atoms: C_5  and  N_6
REMARK    3  A    between atoms: C_7  and  C_9
REMARK    4  A    between atoms: N_14  and  C_15
REMARK    5  A    between atoms: C_28  and  C_29
REMARK    6  A    between atoms: C_28  and  C_30
REMARK    7  A    between atoms: C_32  and  C_33
REMARK                            x       y       z     vdW  Elec       q    Type
REMARK                         _______ _______ _______ _____ _____    ______ ____
ROOT
ATOM      1  C   UNL     1       0.737  10.949  18.803  0.00  0.00    +0.000 A 
ATOM      2  C   UNL     1      -0.671  10.789  18.673  0.00  0.00    +0.000 A 
ATOM      3  C   UNL     1      -1.561  11.818  19.022  0.00  0.00    +0.000 A 
ATOM      4  N   UNL     1      -2.924  11.891  18.949  0.00  0.00    +0.000 NA
ATOM      5  C   UNL     1      -3.245  13.046  19.493  0.00  0.00    +0.000 A 
ATOM      6  N   UNL     1      -4.463  13.521  19.840  0.00  0.00    +0.000 N 
ATOM      7  N   UNL     1      -2.125  13.777  19.806  0.00  0.00    +0.000 N 
ATOM      8  C   UNL     1      -1.049  12.988  19.546  0.00  0.00    +0.000 A 
ATOM      9  C   UNL     1       0.281  13.191  19.714  0.00  0.00    +0.000 A 
ATOM     10  C   UNL     1       1.170  12.182  19.311  0.00  0.00    +0.000 A 
ATOM     11  O   UNL     1       2.494  12.594  19.451  0.00  0.00    +0.000 OA
ATOM     12  C   UNL     1       2.399  14.055  19.659  0.00  0.00    +0.000 C 
ATOM     13  C   UNL     1       3.475  14.499  20.647  0.00  0.00    +0.000 C 
ATOM     14  C   UNL     1       2.625  14.729  18.296  0.00  0.00    +0.000 C 
ATOM     15  C   UNL     1       0.980  14.376  20.202  0.00  0.00    +0.000 C 
ATOM     16  H   UNL     1      -4.788  14.307  19.277  0.00  0.00    +0.000 HD
ATOM     17  H   UNL     1      -2.134  14.676  20.264  0.00  0.00    +0.000 HD
ENDROOT
BRANCH   6  18
ATOM     18  C   UNL     1      -5.555  12.631  20.095  0.00  0.00    +0.000 A 
ATOM     19  C   UNL     1      -6.270  11.955  19.079  0.00  0.00    +0.000 A 
ATOM     20 CL   UNL     1      -5.824  11.986  17.400  0.00  0.00    +0.000 Cl
ATOM     21  C   UNL     1      -7.341  11.107  19.392  0.00  0.00    +0.000 A 
ATOM     22  C   UNL     1      -7.687  10.861  20.716  0.00  0.00    +0.000 A 
ATOM     23  C   UNL     1      -6.965  11.469  21.739  0.00  0.00    +0.000 A 
ATOM     24  C   UNL     1      -5.920  12.350  21.431  0.00  0.00    +0.000 A 
ATOM     25 CL   UNL     1      -5.074  13.086  22.753  0.00  0.00    +0.000 Cl
ENDBRANCH   6  18
BRANCH   1  27
ATOM     26  N   UNL     1       1.652   8.691  19.117  0.00  0.00    +0.000 N 
ATOM     27  C   UNL     1       1.594   9.832  18.337  0.00  0.00    +0.000 C 
ATOM     28  O   UNL     1       2.203  10.009  17.285  0.00  0.00    +0.000 OA
ATOM     29  H   UNL     1       1.083   8.708  19.957  0.00  0.00    +0.000 HD
BRANCH  26  34
ATOM     30  C   UNL     1       4.703   3.971  18.121  0.00  0.00    +0.000 C 
ATOM     31  C   UNL     1       3.921   5.228  18.358  0.00  0.00    +0.000 A 
ATOM     32  C   UNL     1       4.064   6.313  17.515  0.00  0.00    +0.000 A 
ATOM     33  C   UNL     1       3.312   7.457  17.770  0.00  0.00    +0.000 A 
ATOM     34  C   UNL     1       2.428   7.525  18.852  0.00  0.00    +0.000 A 
ATOM     35  C   UNL     1       2.352   6.380  19.658  0.00  0.00    +0.000 A 
ATOM     36  C   UNL     1       1.469   6.252  20.866  0.00  0.00    +0.000 C 
ATOM     37  N   UNL     1       3.084   5.245  19.417  0.00  0.00    +0.000 NA
ENDBRANCH  26  34
ENDBRANCH   1  27
TORSDOF 3
ENDMDL
MODEL 5
REMARK VINA RESULT:      -7.5      3.045      4.584
REMARK  Name = 
REMARK  7 active torsions:
REMARK  status: ('A' for Active; 'I' for Inactive)
REMARK    1  A    between atoms: C_1  and  C_2
REMARK    2  A    between atoms: C_5  and  N_6
REMARK    3  A    between atoms: C_7  and  C_9
REMARK    4  A    between atoms: N_14  and  C_15
REMARK    5  A    between atoms: C_28  and  C_29
REMARK    6  A    between atoms: C_28  and  C_30
REMARK    7  A    between atoms: C_32  and  C_33
REMARK                            x       y       z     vdW  Elec       q    Type
REMARK                         _______ _______ _______ _____ _____    ______ ____
ROOT
ATOM      1  C   UNL     1       0.292  10.698  18.934  0.00  0.00    +0.000 A 
ATOM      2  C   UNL     1       0.460  11.389  20.167  0.00  0.00    +0.000 A 
ATOM      3  C   UNL     1      -0.554  12.205  20.694  0.00  0.00    +0.000 A 
ATOM      4  N   UNL     1      -0.620  12.923  21.855  0.00  0.00    +0.000 NA
ATOM      5  C   UNL     1      -1.760  13.578  21.802  0.00  0.00    +0.000 A 
ATOM      6  N   UNL     1      -2.218  14.567  22.603  0.00  0.00    +0.000 N 
ATOM      7  N   UNL     1      -2.492  13.214  20.699  0.00  0.00    +0.000 N 
ATOM      8  C   UNL     1      -1.717  12.371  19.967  0.00  0.00    +0.000 A 
ATOM      9  C   UNL     1      -1.926  11.756  18.777  0.00  0.00    +0.000 A 
ATOM     10  C   UNL     1      -0.933  10.897  18.282  0.00  0.00    +0.000 A 
ATOM     11  O   UNL     1      -1.352  10.267  17.110  0.00  0.00    +0.000 OA
ATOM     12  C   UNL     1      -2.807  10.524  17.062  0.00  0.00    +0.000 C 
ATOM     13  C   UNL     1      -3.238  10.734  15.611  0.00  0.00    +0.000 C 
ATOM     14  C   UNL     1      -3.512   9.290  17.648  0.00  0.00    +0.000 C 
ATOM     15  C   UNL     1      -3.105  11.786  17.917  0.00  0.00    +0.000 C 
ATOM     16  H   UNL     1      -3.013  14.307  23.187  0.00  0.00    +0.000 HD
ATOM     17  H   UNL     1      -3.381  13.616  20.440  0.00  0.00    +0.000 HD
ENDROOT
BRANCH   6  18
ATOM     18  C   UNL     1      -1.315  15.379  23.361  0.00  0.00    +0.000 A 
ATOM     19  C   UNL     1      -0.259  16.124  22.786  0.00  0.00    +0.000 A 
ATOM     20 CL   UNL     1      -0.009  16.285  21.075  0.00  0.00    +0.000 Cl
ATOM     21  C   UNL     1       0.603  16.889  23.585  0.00  0.00    +0.000 A 
ATOM     22  C   UNL     1       0.400  16.983  24.958  0.00  0.00    +0.000 A 
ATOM     23  C   UNL     1      -0.664  16.304  25.543  0.00  0.00    +0.000 A 
ATOM     24  C   UNL     1      -1.503  15.505  24.756  0.00  0.00    +0.000 A 
ATOM     25 CL   UNL     1      -2.800  14.674  25.551  0.00  0.00    +0.000 Cl
ENDBRANCH   6  18
BRANCH   1  27
ATOM     26  N   UNL     1       1.445   8.532  19.047  0.00  0.00    +0.000 N 
ATOM     27  C   UNL     1       1.392   9.803  18.501  0.00  0.00    +0.000 C 
ATOM     28  O   UNL     1       2.187  10.264  17.688  0.00  0.00    +0.000 OA
ATOM     29  H   UNL     1       0.705   8.308  19.705  0.00  0.00    +0.000 HD
BRANCH  26  34
ATOM     30  C   UNL     1       5.337   4.484  18.022  0.00  0.00    +0.000 C 
ATOM     31  C   UNL     1       4.330   5.568  18.267  0.00  0.00    +0.000 A 
ATOM     32  C   UNL     1       4.285   6.681  17.451  0.00  0.00    +0.000 A 
ATOM     33  C   UNL     1       3.329   7.661  17.712  0.00  0.00    +0.000 A 
ATOM     34  C   UNL     1       2.428   7.536  18.775  0.00  0.00    +0.000 A 
ATOM     35  C   UNL     1       2.551   6.377  19.556  0.00  0.00    +0.000 A 
ATOM     36  C   UNL     1       1.685   6.059  20.740  0.00  0.00    +0.000 C 
ATOM     37  N   UNL     1       3.486   5.404  19.308  0.00  0.00    +0.000 NA
ENDBRANCH  26  34
ENDBRANCH   1  27
TORSDOF 3
ENDMDL
MODEL 6
REMARK VINA RESULT:      -7.4      3.680      5.818
REMARK  Name = 
REMARK  7 active torsions:
REMARK  status: ('A' for Active; 'I' for Inactive)
REMARK    1  A    between atoms: C_1  and  C_2
REMARK    2  A    between atoms: C_5  and  N_6
REMARK    3  A    between atoms: C_7  and  C_9
REMARK    4  A    between atoms: N_14  and  C_15
REMARK    5  A    between atoms: C_28  and  C_29
REMARK    6  A    between atoms: C_28  and  C_30
REMARK    7  A    between atoms: C_32  and  C_33
REMARK                            x       y       z     vdW  Elec       q    Type
REMARK                         _______ _______ _______ _____ _____    ______ ____
ROOT
ATOM      1  C   UNL     1       0.521  10.285  19.621  0.00  0.00    +0.000 A 
ATOM      2  C   UNL     1       0.898  11.429  20.379  0.00  0.00    +0.000 A 
ATOM      3  C   UNL     1       0.331  12.690  20.134  0.00  0.00    +0.000 A 
ATOM      4  N   UNL     1       0.517  13.896  20.749  0.00  0.00    +0.000 NA
ATOM      5  C   UNL     1      -0.195  14.760  20.058  0.00  0.00    +0.000 A 
ATOM      6  N   UNL     1      -0.208  16.111  20.129  0.00  0.00    +0.000 N 
ATOM      7  N   UNL     1      -0.933  14.131  19.085  0.00  0.00    +0.000 N 
ATOM      8  C   UNL     1      -0.577  12.820  19.100  0.00  0.00    +0.000 A 
ATOM      9  C   UNL     1      -0.958  11.771  18.330  0.00  0.00    +0.000 A 
ATOM     10  C   UNL     1      -0.432  10.502  18.615  0.00  0.00    +0.000 A 
ATOM     11  O   UNL     1      -1.008   9.525  17.804  0.00  0.00    +0.000 OA
ATOM     12  C   UNL     1      -2.180  10.198  17.205  0.00  0.00    +0.000 C 
ATOM     13  C   UNL     1      -2.367   9.711  15.769  0.00  0.00    +0.000 C 
ATOM     14  C   UNL     1      -3.407   9.824  18.052  0.00  0.00    +0.000 C 
ATOM     15  C   UNL     1      -1.933  11.730  17.243  0.00  0.00    +0.000 C 
ATOM     16  H   UNL     1      -1.074  16.508  20.496  0.00  0.00    +0.000 HD
ATOM     17  H   UNL     1      -1.523  14.603  18.415  0.00  0.00    +0.000 HD
ENDROOT
BRANCH   6  18
ATOM     18  C   UNL     1       0.909  16.832  20.658  0.00  0.00    +0.000 A 
ATOM     19  C   UNL     1       2.104  17.065  19.937  0.00  0.00    +0.000 A 
ATOM     20 CL   UNL     1       2.321  16.651  18.264  0.00  0.00    +0.000 Cl
ATOM     21  C   UNL     1       3.171  17.767  20.517  0.00  0.00    +0.000 A 
ATOM     22  C   UNL     1       3.055  18.305  21.793  0.00  0.00    +0.000 A 
ATOM     23  C   UNL     1       1.871  18.138  22.504  0.00  0.00    +0.000 A 
ATOM     24  C   UNL     1       0.816  17.402  21.947  0.00  0.00    +0.000 A 
ATOM     25 CL   UNL     1      -0.624  17.219  22.893  0.00  0.00    +0.000 Cl
ENDBRANCH   6  18
BRANCH   1  27
ATOM     26  N   UNL     1       1.765   8.252  19.025  0.00  0.00    +0.000 N 
ATOM     27  C   UNL     1       1.122   8.985  20.007  0.00  0.00    +0.000 C 
ATOM     28  O   UNL     1       0.995   8.649  21.181  0.00  0.00    +0.000 OA
ATOM     29  H   UNL     1       1.783   8.678  18.104  0.00  0.00    +0.000 HD
BRANCH  26  34
ATOM     30  C   UNL     1       4.320   3.184  19.629  0.00  0.00    +0.000 C 
ATOM     31  C   UNL     1       3.624   4.505  19.494  0.00  0.00    +0.000 A 
ATOM     32  C   UNL     1       2.596   4.847  20.350  0.00  0.00    +0.000 A 
ATOM     33  C   UNL     1       1.982   6.088  20.191  0.00  0.00    +0.000 A 
ATOM     34  C   UNL     1       2.385   6.979  19.191  0.00  0.00    +0.000 A 
ATOM     35  C   UNL     1       3.432   6.546  18.364  0.00  0.00    +0.000 A 
ATOM     36  C   UNL     1       4.006   7.351  17.233  0.00  0.00    +0.000 C 
ATOM     37  N   UNL     1       4.047   5.329  18.511  0.00  0.00    +0.000 NA
ENDBRANCH  26  34
ENDBRANCH   1  27
TORSDOF 3
ENDMDL
MODEL 7
REMARK VINA RESULT:      -7.3      3.701      5.943
REMARK  Name = 
REMARK  7 active torsions:
REMARK  status: ('A' for Active; 'I' for Inactive)
REMARK    1  A    between atoms: C_1  and  C_2
REMARK    2  A    between atoms: C_5  and  N_6
REMARK    3  A    between atoms: C_7  and  C_9
REMARK    4  A    between atoms: N_14  and  C_15
REMARK    5  A    between atoms: C_28  and  C_29
REMARK    6  A    between atoms: C_28  and  C_30
REMARK    7  A    between atoms: C_32  and  C_33
REMARK                            x       y       z     vdW  Elec       q    Type
REMARK                         _______ _______ _______ _____ _____    ______ ____
ROOT
ATOM      1  C   UNL     1       0.493  10.249  19.686  0.00  0.00    +0.000 A 
ATOM      2  C   UNL     1       0.873  11.378  20.465  0.00  0.00    +0.000 A 
ATOM      3  C   UNL     1       0.327  12.649  20.228  0.00  0.00    +0.000 A 
ATOM      4  N   UNL     1       0.520  13.844  20.863  0.00  0.00    +0.000 NA
ATOM      5  C   UNL     1      -0.169  14.727  20.172  0.00  0.00    +0.000 A 
ATOM      6  N   UNL     1      -0.165  16.077  20.262  0.00  0.00    +0.000 N 
ATOM      7  N   UNL     1      -0.900  14.121  19.180  0.00  0.00    +0.000 N 
ATOM      8  C   UNL     1      -0.561  12.805  19.183  0.00  0.00    +0.000 A 
ATOM      9  C   UNL     1      -0.945  11.773  18.392  0.00  0.00    +0.000 A 
ATOM     10  C   UNL     1      -0.440  10.493  18.668  0.00  0.00    +0.000 A 
ATOM     11  O   UNL     1      -1.016   9.535  17.835  0.00  0.00    +0.000 OA
ATOM     12  C   UNL     1      -2.170  10.231  17.227  0.00  0.00    +0.000 C 
ATOM     13  C   UNL     1      -2.340   9.766  15.782  0.00  0.00    +0.000 C 
ATOM     14  C   UNL     1      -3.415   9.863  18.049  0.00  0.00    +0.000 C 
ATOM     15  C   UNL     1      -1.902  11.759  17.290  0.00  0.00    +0.000 C 
ATOM     16  H   UNL     1      -1.031  16.481  20.620  0.00  0.00    +0.000 HD
ATOM     17  H   UNL     1      -1.472  14.610  18.507  0.00  0.00    +0.000 HD
ENDROOT
BRANCH   6  18
ATOM     18  C   UNL     1       0.954  16.775  20.818  0.00  0.00    +0.000 A 
ATOM     19  C   UNL     1       1.067  17.110  22.188  0.00  0.00    +0.000 A 
ATOM     20 CL   UNL     1      -0.052  16.584  23.407  0.00  0.00    +0.000 Cl
ATOM     21  C   UNL     1       2.183  17.809  22.669  0.00  0.00    +0.000 A 
ATOM     22  C   UNL     1       3.235  18.136  21.821  0.00  0.00    +0.000 A 
ATOM     23  C   UNL     1       3.175  17.771  20.480  0.00  0.00    +0.000 A 
ATOM     24  C   UNL     1       2.044  17.109  19.984  0.00  0.00    +0.000 A 
ATOM     25 CL   UNL     1       2.028  16.698  18.300  0.00  0.00    +0.000 Cl
ENDBRANCH   6  18
BRANCH   1  27
ATOM     26  N   UNL     1       1.753   8.226  19.093  0.00  0.00    +0.000 N 
ATOM     27  C   UNL     1       1.070   8.936  20.064  0.00  0.00    +0.000 C 
ATOM     28  O   UNL     1       0.890   8.570  21.222  0.00  0.00    +0.000 OA
ATOM     29  H   UNL     1       1.814   8.674  18.185  0.00  0.00    +0.000 HD
BRANCH  26  34
ATOM     30  C   UNL     1       4.251   3.126  19.670  0.00  0.00    +0.000 C 
ATOM     31  C   UNL     1       3.571   4.456  19.542  0.00  0.00    +0.000 A 
ATOM     32  C   UNL     1       2.557   4.811  20.410  0.00  0.00    +0.000 A 
ATOM     33  C   UNL     1       1.957   6.059  20.258  0.00  0.00    +0.000 A 
ATOM     34  C   UNL     1       2.359   6.945  19.253  0.00  0.00    +0.000 A 
ATOM     35  C   UNL     1       3.391   6.498  18.414  0.00  0.00    +0.000 A 
ATOM     36  C   UNL     1       3.961   7.295  17.276  0.00  0.00    +0.000 C 
ATOM     37  N   UNL     1       3.992   5.273  18.554  0.00  0.00    +0.000 NA
ENDBRANCH  26  34
ENDBRANCH   1  27
TORSDOF 3
ENDMDL
MODEL 8
REMARK VINA RESULT:      -7.3      1.312      2.312
REMARK  Name = 
REMARK  7 active torsions:
REMARK  status: ('A' for Active; 'I' for Inactive)
REMARK    1  A    between atoms: C_1  and  C_2
REMARK    2  A    between atoms: C_5  and  N_6
REMARK    3  A    between atoms: C_7  and  C_9
REMARK    4  A    between atoms: N_14  and  C_15
REMARK    5  A    between atoms: C_28  and  C_29
REMARK    6  A    between atoms: C_28  and  C_30
REMARK    7  A    between atoms: C_32  and  C_33
REMARK                            x       y       z     vdW  Elec       q    Type
REMARK                         _______ _______ _______ _____ _____    ______ ____
ROOT
ATOM      1  C   UNL     1       0.284  11.112  20.902  0.00  0.00    +0.000 A 
ATOM      2  C   UNL     1      -1.132  11.071  21.038  0.00  0.00    +0.000 A 
ATOM      3  C   UNL     1      -1.919  12.221  20.862  0.00  0.00    +0.000 A 
ATOM      4  N   UNL     1      -3.273  12.401  20.912  0.00  0.00    +0.000 NA
ATOM      5  C   UNL     1      -3.463  13.696  20.766  0.00  0.00    +0.000 A 
ATOM      6  N   UNL     1      -4.593  14.419  20.928  0.00  0.00    +0.000 N 
ATOM      7  N   UNL     1      -2.282  14.345  20.500  0.00  0.00    +0.000 N 
ATOM      8  C   UNL     1      -1.289  13.421  20.598  0.00  0.00    +0.000 A 
ATOM      9  C   UNL     1       0.057  13.527  20.478  0.00  0.00    +0.000 A 
ATOM     10  C   UNL     1       0.835  12.365  20.599  0.00  0.00    +0.000 A 
ATOM     11  O   UNL     1       2.179  12.631  20.343  0.00  0.00    +0.000 OA
ATOM     12  C   UNL     1       2.170  13.974  19.724  0.00  0.00    +0.000 C 
ATOM     13  C   UNL     1       3.403  14.752  20.180  0.00  0.00    +0.000 C 
ATOM     14  C   UNL     1       2.205  13.779  18.200  0.00  0.00    +0.000 C 
ATOM     15  C   UNL     1       0.867  14.698  20.156  0.00  0.00    +0.000 C 
ATOM     16  H   UNL     1      -4.974  14.811  20.066  0.00  0.00    +0.000 HD
ATOM     17  H   UNL     1      -2.187  15.343  20.388  0.00  0.00    +0.000 HD
ENDROOT
BRANCH   6  18
ATOM     18  C   UNL     1      -5.664  13.939  21.748  0.00  0.00    +0.000 A 
ATOM     19  C   UNL     1      -5.712  14.106  23.152  0.00  0.00    +0.000 A 
ATOM     20 CL   UNL     1      -4.565  15.049  24.053  0.00  0.00    +0.000 Cl
ATOM     21  C   UNL     1      -6.782  13.599  23.903  0.00  0.00    +0.000 A 
ATOM     22  C   UNL     1      -7.855  12.974  23.276  0.00  0.00    +0.000 A 
ATOM     23  C   UNL     1      -7.860  12.846  21.891  0.00  0.00    +0.000 A 
ATOM     24  C   UNL     1      -6.774  13.313  21.139  0.00  0.00    +0.000 A 
ATOM     25 CL   UNL     1      -6.839  13.105  19.419  0.00  0.00    +0.000 Cl
ENDBRANCH   6  18
BRANCH   1  27
ATOM     26  N   UNL     1       1.058   8.992  19.932  0.00  0.00    +0.000 N 
ATOM     27  C   UNL     1       1.017   9.829  21.033  0.00  0.00    +0.000 C 
ATOM     28  O   UNL     1       1.532   9.600  22.124  0.00  0.00    +0.000 OA
ATOM     29  H   UNL     1       0.582   9.335  19.105  0.00  0.00    +0.000 HD
BRANCH  26  34
ATOM     30  C   UNL     1       3.653   3.919  19.591  0.00  0.00    +0.000 C 
ATOM     31  C   UNL     1       2.951   5.239  19.707  0.00  0.00    +0.000 A 
ATOM     32  C   UNL     1       2.084   5.483  20.754  0.00  0.00    +0.000 A 
ATOM     33  C   UNL     1       1.458   6.726  20.825  0.00  0.00    +0.000 A 
ATOM     34  C   UNL     1       1.691   7.716  19.864  0.00  0.00    +0.000 A 
ATOM     35  C   UNL     1       2.580   7.379  18.834  0.00  0.00    +0.000 A 
ATOM     36  C   UNL     1       2.958   8.298  17.707  0.00  0.00    +0.000 C 
ATOM     37  N   UNL     1       3.205   6.161  18.753  0.00  0.00    +0.000 NA
ENDBRANCH  26  34
ENDBRANCH   1  27
TORSDOF 3
ENDMDL
MODEL 9
REMARK VINA RESULT:      -7.3      1.369      1.795
REMARK  Name = 
REMARK  7 active torsions:
REMARK  status: ('A' for Active; 'I' for Inactive)
REMARK    1  A    between atoms: C_1  and  C_2
REMARK    2  A    between atoms: C_5  and  N_6
REMARK    3  A    between atoms: C_7  and  C_9
REMARK    4  A    between atoms: N_14  and  C_15
REMARK    5  A    between atoms: C_28  and  C_29
REMARK    6  A    between atoms: C_28  and  C_30
REMARK    7  A    between atoms: C_32  and  C_33
REMARK                            x       y       z     vdW  Elec       q    Type
REMARK                         _______ _______ _______ _____ _____    ______ ____
ROOT
ATOM      1  C   UNL     1       0.322  11.180  20.925  0.00  0.00    +0.000 A 
ATOM      2  C   UNL     1      -1.097  11.138  21.033  0.00  0.00    +0.000 A 
ATOM      3  C   UNL     1      -1.880  12.290  20.854  0.00  0.00    +0.000 A 
ATOM      4  N   UNL     1      -3.234  12.471  20.880  0.00  0.00    +0.000 NA
ATOM      5  C   UNL     1      -3.421  13.766  20.745  0.00  0.00    +0.000 A 
ATOM      6  N   UNL     1      -4.554  14.489  20.893  0.00  0.00    +0.000 N 
ATOM      7  N   UNL     1      -2.235  14.418  20.509  0.00  0.00    +0.000 N 
ATOM      8  C   UNL     1      -1.244  13.493  20.616  0.00  0.00    +0.000 A 
ATOM      9  C   UNL     1       0.104  13.599  20.524  0.00  0.00    +0.000 A 
ATOM     10  C   UNL     1       0.879  12.436  20.647  0.00  0.00    +0.000 A 
ATOM     11  O   UNL     1       2.228  12.704  20.420  0.00  0.00    +0.000 OA
ATOM     12  C   UNL     1       2.231  14.054  19.816  0.00  0.00    +0.000 C 
ATOM     13  C   UNL     1       3.455  14.826  20.305  0.00  0.00    +0.000 C 
ATOM     14  C   UNL     1       2.296  13.876  18.291  0.00  0.00    +0.000 C 
ATOM     15  C   UNL     1       0.920  14.774  20.231  0.00  0.00    +0.000 C 
ATOM     16  H   UNL     1      -4.918  14.890  20.028  0.00  0.00    +0.000 HD
ATOM     17  H   UNL     1      -2.137  15.418  20.410  0.00  0.00    +0.000 HD
ENDROOT
BRANCH   6  18
ATOM     18  C   UNL     1      -5.641  14.000  21.687  0.00  0.00    +0.000 A 
ATOM     19  C   UNL     1      -6.649  13.139  21.192  0.00  0.00    +0.000 A 
ATOM     20 CL   UNL     1      -6.622  12.432  19.606  0.00  0.00    +0.000 Cl
ATOM     21  C   UNL     1      -7.697  12.707  22.016  0.00  0.00    +0.000 A 
ATOM     22  C   UNL     1      -7.736  13.063  23.359  0.00  0.00    +0.000 A 
ATOM     23  C   UNL     1      -6.727  13.864  23.887  0.00  0.00    +0.000 A 
ATOM     24  C   UNL     1      -5.700  14.334  23.058  0.00  0.00    +0.000 A 
ATOM     25 CL   UNL     1      -4.485  15.341  23.776  0.00  0.00    +0.000 Cl
ENDBRANCH   6  18
BRANCH   1  27
ATOM     26  N   UNL     1       1.040   9.031  19.975  0.00  0.00    +0.000 N 
ATOM     27  C   UNL     1       1.051   9.895  21.055  0.00  0.00    +0.000 C 
ATOM     28  O   UNL     1       1.612   9.689  22.128  0.00  0.00    +0.000 OA
ATOM     29  H   UNL     1       0.531   9.358  19.160  0.00  0.00    +0.000 HD
BRANCH  26  34
ATOM     30  C   UNL     1       3.590   3.935  19.650  0.00  0.00    +0.000 C 
ATOM     31  C   UNL     1       2.900   5.261  19.761  0.00  0.00    +0.000 A 
ATOM     32  C   UNL     1       2.029   5.514  20.803  0.00  0.00    +0.000 A 
ATOM     33  C   UNL     1       1.414   6.762  20.870  0.00  0.00    +0.000 A 
ATOM     34  C   UNL     1       1.662   7.750  19.911  0.00  0.00    +0.000 A 
ATOM     35  C   UNL     1       2.554   7.404  18.886  0.00  0.00    +0.000 A 
ATOM     36  C   UNL     1       2.947   8.319  17.761  0.00  0.00    +0.000 C 
ATOM     37  N   UNL     1       3.168   6.180  18.809  0.00  0.00    +0.000 NA
ENDBRANCH  26  34
ENDBRANCH   1  27
TORSDOF 3
ENDMDL
