MODEL 1
REMARK VINA RESULT:      -7.8      0.000      0.000
REMARK  Name = 
REMARK  11 active torsions:
REMARK  status: ('A' for Active; 'I' for Inactive)
REMARK    1  A    between atoms: C_1  and  O_2
REMARK    2  A    between atoms: O_2  and  C_3
REMARK    3  A    between atoms: C_3  and  C_5
REMARK    4  A    between atoms: C_5  and  C_6
REMARK    5  A    between atoms: C_8  and  C_9
REMARK    6  A    between atoms: C_9  and  N_10
REMARK    7  A    between atoms: N_10  and  C_11
REMARK    8  A    between atoms: C_12  and  C_14
REMARK    9  A    between atoms: C_14  and  O_15
REMARK   10  A    between atoms: O_15  and  C_16
REMARK   11  A    between atoms: N_25  and  C_26
REMARK                            x       y       z     vdW  Elec       q    Type
REMARK                         _______ _______ _______ _____ _____    ______ ____
ROOT
ATOM      1  C   UNL     1       4.524   5.464  17.330  0.00  0.00    +0.000 C 
ATOM      2  C   UNL     1       4.798   5.675  15.831  0.00  0.00    +0.000 C 
ATOM      3  N   UNL     1       4.158   6.761  17.967  0.00  0.00    +0.000 NA
ATOM      4  C   UNL     1       2.720   6.767  18.252  0.00  0.00    +0.000 C 
ATOM      5  C   UNL     1       2.364   5.307  18.456  0.00  0.00    +0.000 C 
ATOM      6  C   UNL     1       2.631   4.635  19.783  0.00  0.00    +0.000 C 
ATOM      7  O   UNL     1       2.324   5.073  20.878  0.00  0.00    +0.000 OA
ATOM      8  N   UNL     1       3.143   3.393  19.515  0.00  0.00    +0.000 N 
ATOM      9  C   UNL     1       3.344   2.366  20.507  0.00  0.00    +0.000 C 
ATOM     10  C   UNL     1       3.518   3.250  18.210  0.00  0.00    +0.000 C 
ATOM     11  O   UNL     1       4.000   2.267  17.681  0.00  0.00    +0.000 OA
ATOM     12  C   UNL     1       3.291   4.558  17.504  0.00  0.00    +0.000 C 
ATOM     13  H   UNL     1       4.446   7.574  17.423  0.00  0.00    +0.000 HD
ENDROOT
BRANCH   1  14
ATOM     14  C   UNL     1       5.840   4.949  17.987  0.00  0.00    +0.000 C 
ATOM     15  O   UNL     1       6.656   4.226  17.427  0.00  0.00    +0.000 OA
BRANCH  14  17
ATOM     16  C   UNL     1       7.346   5.697  19.632  0.00  0.00    +0.000 C 
ATOM     17  O   UNL     1       5.994   5.443  19.248  0.00  0.00    +0.000 OA
ENDBRANCH  14  17
ENDBRANCH   1  14
BRANCH   4  18
ATOM     18  C   UNL     1       2.286   7.714  19.394  0.00  0.00    +0.000 C 
BRANCH  18  19
ATOM     19  N   UNL     1       1.713   8.997  18.946  0.00  0.00    +0.000 N 
ATOM     20  C   UNL     1       1.937   9.411  17.569  0.00  0.00    +0.000 C 
ATOM     21  C   UNL     1       0.689   9.558  19.725  0.00  0.00    +0.000 C 
ATOM     22  O   UNL     1       0.351   9.092  20.817  0.00  0.00    +0.000 OA
BRANCH  21  23
ATOM     23  C   UNL     1      -0.050  10.780  19.170  0.00  0.00    +0.000 C 
BRANCH  23  24
ATOM     24  O   UNL     1      -1.445  10.658  19.422  0.00  0.00    +0.000 OA
BRANCH  24  25
ATOM     25  C   UNL     1      -2.239  10.748  18.311  0.00  0.00    +0.000 A 
ATOM     26  C   UNL     1      -1.818  10.017  17.196  0.00  0.00    +0.000 A 
ATOM     27  C   UNL     1      -2.575  10.025  16.022  0.00  0.00    +0.000 A 
ATOM     28  C   UNL     1      -3.760  10.753  15.959  0.00  0.00    +0.000 A 
ATOM     29  C   UNL     1      -4.191  11.470  17.074  0.00  0.00    +0.000 A 
ATOM     30  C   UNL     1      -3.435  11.462  18.247  0.00  0.00    +0.000 A 
ENDBRANCH  24  25
ENDBRANCH  23  24
ENDBRANCH  21  23
ENDBRANCH  18  19
ENDBRANCH   4  18
TORSDOF 7
ENDMDL
MODEL 2
REMARK VINA RESULT:      -7.3      0.774      1.386
REMARK  Name = 
REMARK  11 active torsions:
REMARK  status: ('A' for Active; 'I' for Inactive)
REMARK    1  A    between atoms: C_1  and  O_2
REMARK    2  A    between atoms: O_2  and  C_3
REMARK    3  A    between atoms: C_3  and  C_5
REMARK    4  A    between atoms: C_5  and  C_6
REMARK    5  A    between atoms: C_8  and  C_9
REMARK    6  A    between atoms: C_9  and  N_10
REMARK    7  A    between atoms: N_10  and  C_11
REMARK    8  A    between atoms: C_12  and  C_14
REMARK    9  A    between atoms: C_14  and  O_15
REMARK   10  A    between atoms: O_15  and  C_16
REMARK   11  A    between atoms: N_25  and  C_26
REMARK                            x       y       z     vdW  Elec       q    Type
REMARK                         _______ _______ _______ _____ _____    ______ ____
ROOT
ATOM      1  C   UNL     1       4.399   5.658  17.656  0.00  0.00    +0.000 C 
ATOM      2  C   UNL     1       4.880   5.935  16.222  0.00  0.00    +0.000 C 
ATOM      3  N   UNL     1       3.992   6.933  18.311  0.00  0.00    +0.000 NA
ATOM      4  C   UNL     1       2.529   6.981  18.401  0.00  0.00    +0.000 C 
ATOM      5  C   UNL     1       2.102   5.528  18.473  0.00  0.00    +0.000 C 
ATOM      6  C   UNL     1       2.165   4.779  19.783  0.00  0.00    +0.000 C 
ATOM      7  O   UNL     1       1.726   5.171  20.850  0.00  0.00    +0.000 OA
ATOM      8  N   UNL     1       2.668   3.533  19.516  0.00  0.00    +0.000 N 
ATOM      9  C   UNL     1       2.699   2.449  20.466  0.00  0.00    +0.000 C 
ATOM     10  C   UNL     1       3.211   3.443  18.267  0.00  0.00    +0.000 C 
ATOM     11  O   UNL     1       3.728   2.470  17.752  0.00  0.00    +0.000 OA
ATOM     12  C   UNL     1       3.124   4.794  17.612  0.00  0.00    +0.000 C 
ATOM     13  H   UNL     1       4.377   7.761  17.857  0.00  0.00    +0.000 HD
ENDROOT
BRANCH   1  14
ATOM     14  C   UNL     1       5.596   5.058  18.453  0.00  0.00    +0.000 C 
ATOM     15  O   UNL     1       5.734   5.150  19.668  0.00  0.00    +0.000 OA
BRANCH  14  17
ATOM     16  C   UNL     1       7.833   4.622  17.873  0.00  0.00    +0.000 C 
ATOM     17  O   UNL     1       6.446   4.375  17.636  0.00  0.00    +0.000 OA
ENDBRANCH  14  17
ENDBRANCH   1  14
BRANCH   4  18
ATOM     18  C   UNL     1       1.975   7.885  19.526  0.00  0.00    +0.000 C 
BRANCH  18  19
ATOM     19  N   UNL     1       1.443   9.182  19.069  0.00  0.00    +0.000 N 
ATOM     20  C   UNL     1       1.808   9.650  17.740  0.00  0.00    +0.000 C 
ATOM     21  C   UNL     1       0.338   9.709  19.757  0.00  0.00    +0.000 C 
ATOM     22  O   UNL     1      -0.109   9.201  20.789  0.00  0.00    +0.000 OA
BRANCH  21  23
ATOM     23  C   UNL     1      -0.347  10.949  19.173  0.00  0.00    +0.000 C 
BRANCH  23  24
ATOM     24  O   UNL     1      -1.066  10.595  17.997  0.00  0.00    +0.000 OA
BRANCH  24  25
ATOM     25  C   UNL     1      -2.385  10.961  17.999  0.00  0.00    +0.000 A 
ATOM     26  C   UNL     1      -2.791  11.783  19.054  0.00  0.00    +0.000 A 
ATOM     27  C   UNL     1      -4.112  12.231  19.130  0.00  0.00    +0.000 A 
ATOM     28  C   UNL     1      -5.030  11.868  18.148  0.00  0.00    +0.000 A 
ATOM     29  C   UNL     1      -4.625  11.061  17.086  0.00  0.00    +0.000 A 
ATOM     30  C   UNL     1      -3.305  10.615  17.010  0.00  0.00    +0.000 A 
ENDBRANCH  24  25
ENDBRANCH  23  24
ENDBRANCH  21  23
ENDBRANCH  18  19
ENDBRANCH   4  18
TORSDOF 7
ENDMDL
MODEL 3
REMARK VINA RESULT:      -7.3      1.900      2.652
REMARK  Name = 
REMARK  11 active torsions:
REMARK  status: ('A' for Active; 'I' for Inactive)
REMARK    1  A    between atoms: C_1  and  O_2
REMARK    2  A    between atoms: O_2  and  C_3
REMARK    3  A    between atoms: C_3  and  C_5
REMARK    4  A    between atoms: C_5  and  C_6
REMARK    5  A    between atoms: C_8  and  C_9
REMARK    6  A    between atoms: C_9  and  N_10
REMARK    7  A    between atoms: N_10  and  C_11
REMARK    8  A    between atoms: C_12  and  C_14
REMARK    9  A    between atoms: C_14  and  O_15
REMARK   10  A    between atoms: O_15  and  C_16
REMARK   11  A    between atoms: N_25  and  C_26
REMARK                            x       y       z     vdW  Elec       q    Type
REMARK                         _______ _______ _______ _____ _____    ______ ____
ROOT
ATOM      1  C   UNL     1       4.338   5.470  17.651  0.00  0.00    +0.000 C 
ATOM      2  C   UNL     1       4.823   5.803  16.230  0.00  0.00    +0.000 C 
ATOM      3  N   UNL     1       4.038   6.727  18.393  0.00  0.00    +0.000 NA
ATOM      4  C   UNL     1       2.584   6.880  18.509  0.00  0.00    +0.000 C 
ATOM      5  C   UNL     1       2.048   5.462  18.495  0.00  0.00    +0.000 C 
ATOM      6  C   UNL     1       2.067   4.627  19.753  0.00  0.00    +0.000 C 
ATOM      7  O   UNL     1       1.672   4.980  20.850  0.00  0.00    +0.000 OA
ATOM      8  N   UNL     1       2.471   3.366  19.399  0.00  0.00    +0.000 N 
ATOM      9  C   UNL     1       2.429   2.223  20.277  0.00  0.00    +0.000 C 
ATOM     10  C   UNL     1       2.991   3.316  18.138  0.00  0.00    +0.000 C 
ATOM     11  O   UNL     1       3.426   2.343  17.553  0.00  0.00    +0.000 OA
ATOM     12  C   UNL     1       3.001   4.710  17.572  0.00  0.00    +0.000 C 
ATOM     13  H   UNL     1       4.480   7.551  17.987  0.00  0.00    +0.000 HD
ENDROOT
BRANCH   1  14
ATOM     14  C   UNL     1       5.495   4.730  18.388  0.00  0.00    +0.000 C 
ATOM     15  O   UNL     1       5.563   4.591  19.604  0.00  0.00    +0.000 OA
BRANCH  14  17
ATOM     16  C   UNL     1       7.757   4.565  17.770  0.00  0.00    +0.000 C 
ATOM     17  O   UNL     1       6.398   4.215  17.507  0.00  0.00    +0.000 OA
ENDBRANCH  14  17
ENDBRANCH   1  14
BRANCH   4  18
ATOM     18  C   UNL     1       2.114   7.748  19.699  0.00  0.00    +0.000 C 
BRANCH  18  19
ATOM     19  N   UNL     1       1.415   8.989  19.319  0.00  0.00    +0.000 N 
ATOM     20  C   UNL     1       1.566   9.478  17.956  0.00  0.00    +0.000 C 
ATOM     21  C   UNL     1       0.364   9.421  20.143  0.00  0.00    +0.000 C 
ATOM     22  O   UNL     1       0.097   8.882  21.220  0.00  0.00    +0.000 OA
BRANCH  21  23
ATOM     23  C   UNL     1      -0.497  10.591  19.655  0.00  0.00    +0.000 C 
BRANCH  23  24
ATOM     24  O   UNL     1      -0.374  11.689  20.552  0.00  0.00    +0.000 OA
BRANCH  24  25
ATOM     25  C   UNL     1      -1.526  12.022  21.212  0.00  0.00    +0.000 A 
ATOM     26  C   UNL     1      -1.547  11.751  22.583  0.00  0.00    +0.000 A 
ATOM     27  C   UNL     1      -2.669  12.079  23.349  0.00  0.00    +0.000 A 
ATOM     28  C   UNL     1      -3.770  12.688  22.751  0.00  0.00    +0.000 A 
ATOM     29  C   UNL     1      -3.746  12.974  21.387  0.00  0.00    +0.000 A 
ATOM     30  C   UNL     1      -2.625  12.647  20.623  0.00  0.00    +0.000 A 
ENDBRANCH  24  25
ENDBRANCH  23  24
ENDBRANCH  21  23
ENDBRANCH  18  19
ENDBRANCH   4  18
TORSDOF 7
ENDMDL
MODEL 4
REMARK VINA RESULT:      -7.3      0.797      1.045
REMARK  Name = 
REMARK  11 active torsions:
REMARK  status: ('A' for Active; 'I' for Inactive)
REMARK    1  A    between atoms: C_1  and  O_2
REMARK    2  A    between atoms: O_2  and  C_3
REMARK    3  A    between atoms: C_3  and  C_5
REMARK    4  A    between atoms: C_5  and  C_6
REMARK    5  A    between atoms: C_8  and  C_9
REMARK    6  A    between atoms: C_9  and  N_10
REMARK    7  A    between atoms: N_10  and  C_11
REMARK    8  A    between atoms: C_12  and  C_14
REMARK    9  A    between atoms: C_14  and  O_15
REMARK   10  A    between atoms: O_15  and  C_16
REMARK   11  A    between atoms: N_25  and  C_26
REMARK                            x       y       z     vdW  Elec       q    Type
REMARK                         _______ _______ _______ _____ _____    ______ ____
ROOT
ATOM      1  C   UNL     1       4.378   5.615  17.683  0.00  0.00    +0.000 C 
ATOM      2  C   UNL     1       4.841   5.895  16.243  0.00  0.00    +0.000 C 
ATOM      3  N   UNL     1       3.969   6.888  18.341  0.00  0.00    +0.000 NA
ATOM      4  C   UNL     1       2.507   6.927  18.447  0.00  0.00    +0.000 C 
ATOM      5  C   UNL     1       2.091   5.471  18.525  0.00  0.00    +0.000 C 
ATOM      6  C   UNL     1       2.173   4.723  19.834  0.00  0.00    +0.000 C 
ATOM      7  O   UNL     1       1.744   5.112  20.906  0.00  0.00    +0.000 OA
ATOM      8  N   UNL     1       2.682   3.479  19.563  0.00  0.00    +0.000 N 
ATOM      9  C   UNL     1       2.730   2.397  20.513  0.00  0.00    +0.000 C 
ATOM     10  C   UNL     1       3.212   3.392  18.308  0.00  0.00    +0.000 C 
ATOM     11  O   UNL     1       3.729   2.423  17.788  0.00  0.00    +0.000 OA
ATOM     12  C   UNL     1       3.108   4.742  17.653  0.00  0.00    +0.000 C 
ATOM     13  H   UNL     1       4.344   7.718  17.883  0.00  0.00    +0.000 HD
ENDROOT
BRANCH   1  14
ATOM     14  C   UNL     1       5.587   5.024  18.466  0.00  0.00    +0.000 C 
ATOM     15  O   UNL     1       5.742   5.123  19.679  0.00  0.00    +0.000 OA
BRANCH  14  17
ATOM     16  C   UNL     1       7.817   4.611  17.841  0.00  0.00    +0.000 C 
ATOM     17  O   UNL     1       6.429   4.339  17.642  0.00  0.00    +0.000 OA
ENDBRANCH  14  17
ENDBRANCH   1  14
BRANCH   4  18
ATOM     18  C   UNL     1       1.960   7.827  19.578  0.00  0.00    +0.000 C 
BRANCH  18  19
ATOM     19  N   UNL     1       1.589   9.190  19.156  0.00  0.00    +0.000 N 
ATOM     20  C   UNL     1       1.826   9.573  17.772  0.00  0.00    +0.000 C 
ATOM     21  C   UNL     1       0.702   9.905  19.976  0.00  0.00    +0.000 C 
ATOM     22  O   UNL     1       0.334   9.492  21.079  0.00  0.00    +0.000 OA
BRANCH  21  23
ATOM     23  C   UNL     1       0.153  11.236  19.451  0.00  0.00    +0.000 C 
BRANCH  23  24
ATOM     24  O   UNL     1      -1.267  11.243  19.541  0.00  0.00    +0.000 OA
BRANCH  24  25
ATOM     25  C   UNL     1      -1.917  10.948  18.374  0.00  0.00    +0.000 A 
ATOM     26  C   UNL     1      -2.690   9.783  18.381  0.00  0.00    +0.000 A 
ATOM     27  C   UNL     1      -3.412   9.409  17.244  0.00  0.00    +0.000 A 
ATOM     28  C   UNL     1      -3.373  10.203  16.100  0.00  0.00    +0.000 A 
ATOM     29  C   UNL     1      -2.617  11.373  16.095  0.00  0.00    +0.000 A 
ATOM     30  C   UNL     1      -1.896  11.746  17.231  0.00  0.00    +0.000 A 
ENDBRANCH  24  25
ENDBRANCH  23  24
ENDBRANCH  21  23
ENDBRANCH  18  19
ENDBRANCH   4  18
TORSDOF 7
ENDMDL
MODEL 5
REMARK VINA RESULT:      -7.2      1.898      2.550
REMARK  Name = 
REMARK  11 active torsions:
REMARK  status: ('A' for Active; 'I' for Inactive)
REMARK    1  A    between atoms: C_1  and  O_2
REMARK    2  A    between atoms: O_2  and  C_3
REMARK    3  A    between atoms: C_3  and  C_5
REMARK    4  A    between atoms: C_5  and  C_6
REMARK    5  A    between atoms: C_8  and  C_9
REMARK    6  A    between atoms: C_9  and  N_10
REMARK    7  A    between atoms: N_10  and  C_11
REMARK    8  A    between atoms: C_12  and  C_14
REMARK    9  A    between atoms: C_14  and  O_15
REMARK   10  A    between atoms: O_15  and  C_16
REMARK   11  A    between atoms: N_25  and  C_26
REMARK                            x       y       z     vdW  Elec       q    Type
REMARK                         _______ _______ _______ _____ _____    ______ ____
ROOT
ATOM      1  C   UNL     1       4.780   5.689  17.201  0.00  0.00    +0.000 C 
ATOM      2  C   UNL     1       5.048   6.112  15.747  0.00  0.00    +0.000 C 
ATOM      3  N   UNL     1       4.322   6.864  17.995  0.00  0.00    +0.000 NA
ATOM      4  C   UNL     1       2.884   6.735  18.257  0.00  0.00    +0.000 C 
ATOM      5  C   UNL     1       2.630   5.241  18.265  0.00  0.00    +0.000 C 
ATOM      6  C   UNL     1       2.934   4.422  19.496  0.00  0.00    +0.000 C 
ATOM      7  O   UNL     1       2.590   4.691  20.634  0.00  0.00    +0.000 OA
ATOM      8  N   UNL     1       3.532   3.262  19.078  0.00  0.00    +0.000 N 
ATOM      9  C   UNL     1       3.797   2.131  19.931  0.00  0.00    +0.000 C 
ATOM     10  C   UNL     1       3.924   3.316  17.772  0.00  0.00    +0.000 C 
ATOM     11  O   UNL     1       4.475   2.445  17.127  0.00  0.00    +0.000 OA
ATOM     12  C   UNL     1       3.611   4.687  17.237  0.00  0.00    +0.000 C 
ATOM     13  H   UNL     1       4.556   7.759  17.566  0.00  0.00    +0.000 HD
ENDROOT
BRANCH   1  14
ATOM     14  C   UNL     1       6.124   5.183  17.806  0.00  0.00    +0.000 C 
ATOM     15  O   UNL     1       6.988   4.589  17.171  0.00  0.00    +0.000 OA
BRANCH  14  17
ATOM     16  C   UNL     1       7.581   5.726  19.571  0.00  0.00    +0.000 C 
ATOM     17  O   UNL     1       6.240   5.527  19.119  0.00  0.00    +0.000 OA
ENDBRANCH  14  17
ENDBRANCH   1  14
BRANCH   4  18
ATOM     18  C   UNL     1       2.379   7.494  19.505  0.00  0.00    +0.000 C 
BRANCH  18  19
ATOM     19  N   UNL     1       1.677   8.758  19.215  0.00  0.00    +0.000 N 
ATOM     20  C   UNL     1       1.525   9.162  17.825  0.00  0.00    +0.000 C 
ATOM     21  C   UNL     1       0.877   9.304  20.232  0.00  0.00    +0.000 C 
ATOM     22  O   UNL     1       0.847   8.843  21.376  0.00  0.00    +0.000 OA
BRANCH  21  23
ATOM     23  C   UNL     1      -0.012  10.502  19.881  0.00  0.00    +0.000 C 
BRANCH  23  24
ATOM     24  O   UNL     1       0.105  11.501  20.887  0.00  0.00    +0.000 OA
BRANCH  24  25
ATOM     25  C   UNL     1      -1.076  11.863  21.476  0.00  0.00    +0.000 A 
ATOM     26  C   UNL     1      -2.034  12.430  20.630  0.00  0.00    +0.000 A 
ATOM     27  C   UNL     1      -3.282  12.809  21.133  0.00  0.00    +0.000 A 
ATOM     28  C   UNL     1      -3.582  12.614  22.478  0.00  0.00    +0.000 A 
ATOM     29  C   UNL     1      -2.636  12.034  23.321  0.00  0.00    +0.000 A 
ATOM     30  C   UNL     1      -1.389  11.655  22.819  0.00  0.00    +0.000 A 
ENDBRANCH  24  25
ENDBRANCH  23  24
ENDBRANCH  21  23
ENDBRANCH  18  19
ENDBRANCH   4  18
TORSDOF 7
ENDMDL
MODEL 6
REMARK VINA RESULT:      -7.2      2.512      3.341
REMARK  Name = 
REMARK  11 active torsions:
REMARK  status: ('A' for Active; 'I' for Inactive)
REMARK    1  A    between atoms: C_1  and  O_2
REMARK    2  A    between atoms: O_2  and  C_3
REMARK    3  A    between atoms: C_3  and  C_5
REMARK    4  A    between atoms: C_5  and  C_6
REMARK    5  A    between atoms: C_8  and  C_9
REMARK    6  A    between atoms: C_9  and  N_10
REMARK    7  A    between atoms: N_10  and  C_11
REMARK    8  A    between atoms: C_12  and  C_14
REMARK    9  A    between atoms: C_14  and  O_15
REMARK   10  A    between atoms: O_15  and  C_16
REMARK   11  A    between atoms: N_25  and  C_26
REMARK                            x       y       z     vdW  Elec       q    Type
REMARK                         _______ _______ _______ _____ _____    ______ ____
ROOT
ATOM      1  C   UNL     1       4.402   6.191  17.731  0.00  0.00    +0.000 C 
ATOM      2  C   UNL     1       4.660   6.709  16.306  0.00  0.00    +0.000 C 
ATOM      3  N   UNL     1       3.852   7.286  18.578  0.00  0.00    +0.000 NA
ATOM      4  C   UNL     1       2.424   7.046  18.807  0.00  0.00    +0.000 C 
ATOM      5  C   UNL     1       2.273   5.539  18.731  0.00  0.00    +0.000 C 
ATOM      6  C   UNL     1       2.615   4.677  19.922  0.00  0.00    +0.000 C 
ATOM      7  O   UNL     1       2.238   4.860  21.067  0.00  0.00    +0.000 OA
ATOM      8  N   UNL     1       3.298   3.586  19.453  0.00  0.00    +0.000 N 
ATOM      9  C   UNL     1       3.628   2.430  20.249  0.00  0.00    +0.000 C 
ATOM     10  C   UNL     1       3.704   3.737  18.159  0.00  0.00    +0.000 C 
ATOM     11  O   UNL     1       4.323   2.943  17.478  0.00  0.00    +0.000 OA
ATOM     12  C   UNL     1       3.304   5.111  17.693  0.00  0.00    +0.000 C 
ATOM     13  H   UNL     1       4.030   8.217  18.201  0.00  0.00    +0.000 HD
ENDROOT
BRANCH   1  14
ATOM     14  C   UNL     1       5.769   5.746  18.331  0.00  0.00    +0.000 C 
ATOM     15  O   UNL     1       5.955   5.491  19.516  0.00  0.00    +0.000 OA
BRANCH  14  17
ATOM     16  C   UNL     1       7.588   4.501  17.512  0.00  0.00    +0.000 C 
ATOM     17  O   UNL     1       6.723   5.627  17.365  0.00  0.00    +0.000 OA
ENDBRANCH  14  17
ENDBRANCH   1  14
BRANCH   4  18
ATOM     18  C   UNL     1       1.850   7.700  20.085  0.00  0.00    +0.000 C 
BRANCH  18  19
ATOM     19  N   UNL     1       1.328   9.066  19.897  0.00  0.00    +0.000 N 
ATOM     20  C   UNL     1       1.059   9.523  18.541  0.00  0.00    +0.000 C 
ATOM     21  C   UNL     1       0.770   9.707  21.014  0.00  0.00    +0.000 C 
ATOM     22  O   UNL     1       0.819   9.229  22.150  0.00  0.00    +0.000 OA
BRANCH  21  23
ATOM     23  C   UNL     1       0.047  11.040  20.791  0.00  0.00    +0.000 C 
BRANCH  23  24
ATOM     24  O   UNL     1       0.325  11.927  21.868  0.00  0.00    +0.000 OA
BRANCH  24  25
ATOM     25  C   UNL     1      -0.781  12.403  22.519  0.00  0.00    +0.000 A 
ATOM     26  C   UNL     1      -0.749  13.756  22.872  0.00  0.00    +0.000 A 
ATOM     27  C   UNL     1      -1.841  14.341  23.518  0.00  0.00    +0.000 A 
ATOM     28  C   UNL     1      -2.973  13.582  23.803  0.00  0.00    +0.000 A 
ATOM     29  C   UNL     1      -3.015  12.238  23.438  0.00  0.00    +0.000 A 
ATOM     30  C   UNL     1      -1.923  11.653  22.793  0.00  0.00    +0.000 A 
ENDBRANCH  24  25
ENDBRANCH  23  24
ENDBRANCH  21  23
ENDBRANCH  18  19
ENDBRANCH   4  18
TORSDOF 7
ENDMDL
MODEL 7
REMARK VINA RESULT:      -7.0      0.992      1.587
REMARK  Name = 
REMARK  11 active torsions:
REMARK  status: ('A' for Active; 'I' for Inactive)
REMARK    1  A    between atoms: C_1  and  O_2
REMARK    2  A    between atoms: O_2  and  C_3
REMARK    3  A    between atoms: C_3  and  C_5
REMARK    4  A    between atoms: C_5  and  C_6
REMARK    5  A    between atoms: C_8  and  C_9
REMARK    6  A    between atoms: C_9  and  N_10
REMARK    7  A    between atoms: N_10  and  C_11
REMARK    8  A    between atoms: C_12  and  C_14
REMARK    9  A    between atoms: C_14  and  O_15
REMARK   10  A    between atoms: O_15  and  C_16
REMARK   11  A    between atoms: N_25  and  C_26
REMARK                            x       y       z     vdW  Elec       q    Type
REMARK                         _______ _______ _______ _____ _____    ______ ____
ROOT
ATOM      1  C   UNL     1       4.477   5.889  17.579  0.00  0.00    +0.000 C 
ATOM      2  C   UNL     1       4.872   6.195  16.124  0.00  0.00    +0.000 C 
ATOM      3  N   UNL     1       3.980   7.127  18.242  0.00  0.00    +0.000 NA
ATOM      4  C   UNL     1       2.524   7.041  18.391  0.00  0.00    +0.000 C 
ATOM      5  C   UNL     1       2.236   5.556  18.489  0.00  0.00    +0.000 C 
ATOM      6  C   UNL     1       2.420   4.828  19.800  0.00  0.00    +0.000 C 
ATOM      7  O   UNL     1       1.990   5.188  20.882  0.00  0.00    +0.000 OA
ATOM      8  N   UNL     1       3.026   3.631  19.520  0.00  0.00    +0.000 N 
ATOM      9  C   UNL     1       3.195   2.563  20.474  0.00  0.00    +0.000 C 
ATOM     10  C   UNL     1       3.525   3.579  18.250  0.00  0.00    +0.000 C 
ATOM     11  O   UNL     1       4.108   2.654  17.720  0.00  0.00    +0.000 OA
ATOM     12  C   UNL     1       3.287   4.910  17.591  0.00  0.00    +0.000 C 
ATOM     13  H   UNL     1       4.268   7.983  17.769  0.00  0.00    +0.000 HD
ENDROOT
BRANCH   1  14
ATOM     14  C   UNL     1       5.755   5.409  18.330  0.00  0.00    +0.000 C 
ATOM     15  O   UNL     1       5.902   5.457  19.546  0.00  0.00    +0.000 OA
BRANCH  14  17
ATOM     16  C   UNL     1       7.934   4.569  18.056  0.00  0.00    +0.000 C 
ATOM     17  O   UNL     1       6.671   4.885  17.468  0.00  0.00    +0.000 OA
ENDBRANCH  14  17
ENDBRANCH   1  14
BRANCH   4  18
ATOM     18  C   UNL     1       1.934   7.901  19.533  0.00  0.00    +0.000 C 
BRANCH  18  19
ATOM     19  N   UNL     1       1.551   9.269  19.140  0.00  0.00    +0.000 N 
ATOM     20  C   UNL     1       1.770   9.679  17.760  0.00  0.00    +0.000 C 
ATOM     21  C   UNL     1       0.669   9.964  19.983  0.00  0.00    +0.000 C 
ATOM     22  O   UNL     1       0.316   9.529  21.082  0.00  0.00    +0.000 OA
BRANCH  21  23
ATOM     23  C   UNL     1       0.108  11.301  19.489  0.00  0.00    +0.000 C 
BRANCH  23  24
ATOM     24  O   UNL     1      -0.953  11.070  18.568  0.00  0.00    +0.000 OA
BRANCH  24  25
ATOM     25  C   UNL     1      -2.164  11.582  18.949  0.00  0.00    +0.000 A 
ATOM     26  C   UNL     1      -3.242  11.294  18.107  0.00  0.00    +0.000 A 
ATOM     27  C   UNL     1      -4.525  11.751  18.423  0.00  0.00    +0.000 A 
ATOM     28  C   UNL     1      -4.737  12.486  19.586  0.00  0.00    +0.000 A 
ATOM     29  C   UNL     1      -3.668  12.761  20.436  0.00  0.00    +0.000 A 
ATOM     30  C   UNL     1      -2.387  12.304  20.120  0.00  0.00    +0.000 A 
ENDBRANCH  24  25
ENDBRANCH  23  24
ENDBRANCH  21  23
ENDBRANCH  18  19
ENDBRANCH   4  18
TORSDOF 7
ENDMDL
MODEL 8
REMARK VINA RESULT:      -7.0      2.156      3.043
REMARK  Name = 
REMARK  11 active torsions:
REMARK  status: ('A' for Active; 'I' for Inactive)
REMARK    1  A    between atoms: C_1  and  O_2
REMARK    2  A    between atoms: O_2  and  C_3
REMARK    3  A    between atoms: C_3  and  C_5
REMARK    4  A    between atoms: C_5  and  C_6
REMARK    5  A    between atoms: C_8  and  C_9
REMARK    6  A    between atoms: C_9  and  N_10
REMARK    7  A    between atoms: N_10  and  C_11
REMARK    8  A    between atoms: C_12  and  C_14
REMARK    9  A    between atoms: C_14  and  O_15
REMARK   10  A    between atoms: O_15  and  C_16
REMARK   11  A    between atoms: N_25  and  C_26
REMARK                            x       y       z     vdW  Elec       q    Type
REMARK                         _______ _______ _______ _____ _____    ______ ____
ROOT
ATOM      1  C   UNL     1       4.896   5.698  17.083  0.00  0.00    +0.000 C 
ATOM      2  C   UNL     1       5.162   6.200  15.653  0.00  0.00    +0.000 C 
ATOM      3  N   UNL     1       4.412   6.821  17.934  0.00  0.00    +0.000 NA
ATOM      4  C   UNL     1       2.977   6.652  18.181  0.00  0.00    +0.000 C 
ATOM      5  C   UNL     1       2.750   5.155  18.110  0.00  0.00    +0.000 C 
ATOM      6  C   UNL     1       3.064   4.279  19.300  0.00  0.00    +0.000 C 
ATOM      7  O   UNL     1       2.711   4.482  20.448  0.00  0.00    +0.000 OA
ATOM      8  N   UNL     1       3.686   3.153  18.824  0.00  0.00    +0.000 N 
ATOM      9  C   UNL     1       3.968   1.984  19.619  0.00  0.00    +0.000 C 
ATOM     10  C   UNL     1       4.082   3.283  17.525  0.00  0.00    +0.000 C 
ATOM     11  O   UNL     1       4.652   2.457  16.838  0.00  0.00    +0.000 OA
ATOM     12  C   UNL     1       3.746   4.673  17.060  0.00  0.00    +0.000 C 
ATOM     13  H   UNL     1       4.632   7.741  17.553  0.00  0.00    +0.000 HD
ENDROOT
BRANCH   1  14
ATOM     14  C   UNL     1       6.247   5.186  17.667  0.00  0.00    +0.000 C 
ATOM     15  O   UNL     1       7.113   4.616  17.012  0.00  0.00    +0.000 OA
BRANCH  14  17
ATOM     16  C   UNL     1       7.703   5.743  19.427  0.00  0.00    +0.000 C 
ATOM     17  O   UNL     1       6.367   5.494  18.989  0.00  0.00    +0.000 OA
ENDBRANCH  14  17
ENDBRANCH   1  14
BRANCH   4  18
ATOM     18  C   UNL     1       2.453   7.336  19.465  0.00  0.00    +0.000 C 
BRANCH  18  19
ATOM     19  N   UNL     1       1.768   8.623  19.242  0.00  0.00    +0.000 N 
ATOM     20  C   UNL     1       1.665   9.124  17.879  0.00  0.00    +0.000 C 
ATOM     21  C   UNL     1       0.939   9.103  20.268  0.00  0.00    +0.000 C 
ATOM     22  O   UNL     1       0.869   8.564  21.376  0.00  0.00    +0.000 OA
BRANCH  21  23
ATOM     23  C   UNL     1       0.070  10.331  19.974  0.00  0.00    +0.000 C 
BRANCH  23  24
ATOM     24  O   UNL     1       0.751  11.513  20.378  0.00  0.00    +0.000 OA
BRANCH  24  25
ATOM     25  C   UNL     1       0.092  12.263  21.315  0.00  0.00    +0.000 A 
ATOM     26  C   UNL     1      -0.862  11.586  22.080  0.00  0.00    +0.000 A 
ATOM     27  C   UNL     1      -1.570  12.259  23.080  0.00  0.00    +0.000 A 
ATOM     28  C   UNL     1      -1.320  13.606  23.326  0.00  0.00    +0.000 A 
ATOM     29  C   UNL     1      -0.358  14.280  22.576  0.00  0.00    +0.000 A 
ATOM     30  C   UNL     1       0.349  13.608  21.578  0.00  0.00    +0.000 A 
ENDBRANCH  24  25
ENDBRANCH  23  24
ENDBRANCH  21  23
ENDBRANCH  18  19
ENDBRANCH   4  18
TORSDOF 7
ENDMDL
MODEL 9
REMARK VINA RESULT:      -7.0      2.051      3.050
REMARK  Name = 
REMARK  11 active torsions:
REMARK  status: ('A' for Active; 'I' for Inactive)
REMARK    1  A    between atoms: C_1  and  O_2
REMARK    2  A    between atoms: O_2  and  C_3
REMARK    3  A    between atoms: C_3  and  C_5
REMARK    4  A    between atoms: C_5  and  C_6
REMARK    5  A    between atoms: C_8  and  C_9
REMARK    6  A    between atoms: C_9  and  N_10
REMARK    7  A    between atoms: N_10  and  C_11
REMARK    8  A    between atoms: C_12  and  C_14
REMARK    9  A    between atoms: C_14  and  O_15
REMARK   10  A    between atoms: O_15  and  C_16
REMARK   11  A    between atoms: N_25  and  C_26
REMARK                            x       y       z     vdW  Elec       q    Type
REMARK                         _______ _______ _______ _____ _____    ______ ____
ROOT
ATOM      1  C   UNL     1       4.365   5.455  17.598  0.00  0.00    +0.000 C 
ATOM      2  C   UNL     1       4.832   5.790  16.171  0.00  0.00    +0.000 C 
ATOM      3  N   UNL     1       4.088   6.711  18.350  0.00  0.00    +0.000 NA
ATOM      4  C   UNL     1       2.638   6.879  18.489  0.00  0.00    +0.000 C 
ATOM      5  C   UNL     1       2.088   5.466  18.476  0.00  0.00    +0.000 C 
ATOM      6  C   UNL     1       2.117   4.624  19.730  0.00  0.00    +0.000 C 
ATOM      7  O   UNL     1       1.742   4.976  20.834  0.00  0.00    +0.000 OA
ATOM      8  N   UNL     1       2.502   3.361  19.363  0.00  0.00    +0.000 N 
ATOM      9  C   UNL     1       2.462   2.214  20.236  0.00  0.00    +0.000 C 
ATOM     10  C   UNL     1       3.003   3.312  18.095  0.00  0.00    +0.000 C 
ATOM     11  O   UNL     1       3.419   2.338  17.499  0.00  0.00    +0.000 OA
ATOM     12  C   UNL     1       3.019   4.708  17.535  0.00  0.00    +0.000 C 
ATOM     13  H   UNL     1       4.533   7.533  17.942  0.00  0.00    +0.000 HD
ENDROOT
BRANCH   1  14
ATOM     14  C   UNL     1       5.525   4.700  18.314  0.00  0.00    +0.000 C 
ATOM     15  O   UNL     1       5.579   4.501  19.523  0.00  0.00    +0.000 OA
BRANCH  14  17
ATOM     16  C   UNL     1       7.803   4.565  17.746  0.00  0.00    +0.000 C 
ATOM     17  O   UNL     1       6.449   4.245  17.422  0.00  0.00    +0.000 OA
ENDBRANCH  14  17
ENDBRANCH   1  14
BRANCH   4  18
ATOM     18  C   UNL     1       2.195   7.745  19.690  0.00  0.00    +0.000 C 
BRANCH  18  19
ATOM     19  N   UNL     1       1.419   8.946  19.331  0.00  0.00    +0.000 N 
ATOM     20  C   UNL     1       1.444   9.396  17.947  0.00  0.00    +0.000 C 
ATOM     21  C   UNL     1       0.419   9.364  20.223  0.00  0.00    +0.000 C 
ATOM     22  O   UNL     1       0.259   8.850  21.333  0.00  0.00    +0.000 OA
BRANCH  21  23
ATOM     23  C   UNL     1      -0.524  10.484  19.771  0.00  0.00    +0.000 C 
BRANCH  23  24
ATOM     24  O   UNL     1       0.038  11.750  20.098  0.00  0.00    +0.000 OA
BRANCH  24  25
ATOM     25  C   UNL     1      -0.496  12.344  21.210  0.00  0.00    +0.000 A 
ATOM     26  C   UNL     1       0.079  13.560  21.591  0.00  0.00    +0.000 A 
ATOM     27  C   UNL     1      -0.414  14.256  22.698  0.00  0.00    +0.000 A 
ATOM     28  C   UNL     1      -1.489  13.746  23.422  0.00  0.00    +0.000 A 
ATOM     29  C   UNL     1      -2.075  12.543  23.036  0.00  0.00    +0.000 A 
ATOM     30  C   UNL     1      -1.583  11.848  21.930  0.00  0.00    +0.000 A 
ENDBRANCH  24  25
ENDBRANCH  23  24
ENDBRANCH  21  23
ENDBRANCH  18  19
ENDBRANCH   4  18
TORSDOF 7
ENDMDL
