MODEL 1
REMARK VINA RESULT:      -5.8      0.000      0.000
REMARK  Name = 
REMARK  11 active torsions:
REMARK  status: ('A' for Active; 'I' for Inactive)
REMARK    1  A    between atoms: C_1  and  S_2
REMARK    2  A    between atoms: S_2  and  C_3
REMARK    3  A    between atoms: C_6  and  S_7
REMARK    4  A    between atoms: S_7  and  C_8
REMARK    5  A    between atoms: C_9  and  C_10
REMARK    6  A    between atoms: N_15  and  S_16
REMARK    7  A    between atoms: S_16  and  C_19
REMARK    8  A    between atoms: C_22  and  C_23
REMARK    9  A    between atoms: C_26  and  C_27
REMARK   10  A    between atoms: C_27  and  C_28
REMARK   11  A    between atoms: C_27  and  C_29
REMARK                            x       y       z     vdW  Elec       q    Type
REMARK                         _______ _______ _______ _____ _____    ______ ____
ROOT
ATOM      1  C   UNL     1      -1.443  13.563  20.286  0.00  0.00    +0.000 C 
ATOM      2  O   UNL     1      -2.677  13.506  20.245  0.00  0.00    +0.000 OA
ATOM      3  N   UNL     1      -0.737  12.501  19.707  0.00  0.00    +0.000 N 
ATOM      4  C   UNL     1      -1.546  11.502  19.024  0.00  0.00    +0.000 C 
ATOM      5  C   UNL     1      -0.667  10.290  18.796  0.00  0.00    +0.000 C 
ATOM      6  N   UNL     1       0.520  10.486  19.668  0.00  0.00    +0.000 NA
ATOM      7  C   UNL     1       0.514  11.907  20.143  0.00  0.00    +0.000 C 
ENDROOT
BRANCH   1  12
ATOM      8  C   UNL     1      -0.626  14.923  22.284  0.00  0.00    +0.000 A 
ATOM      9  N   UNL     1       0.069  15.965  22.722  0.00  0.00    +0.000 NA
ATOM     10  S   UNL     1       0.466  16.899  21.444  0.00  0.00    +0.000 S 
ATOM     11  C   UNL     1      -0.338  15.963  20.238  0.00  0.00    +0.000 A 
ATOM     12  C   UNL     1      -0.857  14.803  20.830  0.00  0.00    +0.000 A 
BRANCH   8  14
ATOM     13  C   UNL     1      -2.962  14.480  23.759  0.00  0.00    +0.000 C 
ATOM     14  S   UNL     1      -1.287  13.827  23.521  0.00  0.00    +0.000 S 
ENDBRANCH   8  14
BRANCH  11  15
ATOM     15  S   UNL     1      -0.427  16.711  18.657  0.00  0.00    +0.000 S 
ATOM     16  C   UNL     1      -0.077  18.442  18.898  0.00  0.00    +0.000 C 
ENDBRANCH  11  15
ENDBRANCH   1  12
BRANCH   6  17
ATOM     17  S   UNL     1       0.683   9.317  20.906  0.00  0.00    +0.000 S 
ATOM     18  O   UNL     1       1.561   9.836  21.927  0.00  0.00    +0.000 OA
ATOM     19  O   UNL     1      -0.643   8.851  21.235  0.00  0.00    +0.000 OA
BRANCH  17  20
ATOM     20  C   UNL     1       1.569   8.015  20.081  0.00  0.00    +0.000 A 
ATOM     21  C   UNL     1       2.153   8.273  18.838  0.00  0.00    +0.000 A 
ATOM     22  C   UNL     1       2.838   7.256  18.171  0.00  0.00    +0.000 A 
ATOM     23  C   UNL     1       2.944   5.981  18.744  0.00  0.00    +0.000 A 
ATOM     24  C   UNL     1       3.681   4.881  18.035  0.00  0.00    +0.000 C 
ATOM     25  C   UNL     1       2.379   5.745  20.006  0.00  0.00    +0.000 A 
ATOM     26  C   UNL     1       1.688   6.757  20.676  0.00  0.00    +0.000 A 
ENDBRANCH  17  20
ENDBRANCH   6  17
BRANCH   7  27
ATOM     27  C   UNL     1       1.777  12.647  19.625  0.00  0.00    +0.000 C 
ATOM     28  C   UNL     1       1.502  13.385  18.308  0.00  0.00    +0.000 C 
ATOM     29  C   UNL     1       2.471  13.589  20.605  0.00  0.00    +0.000 C 
ENDBRANCH   7  27
TORSDOF 6
ENDMDL
MODEL 2
REMARK VINA RESULT:      -5.7      2.627      3.992
REMARK  Name = 
REMARK  11 active torsions:
REMARK  status: ('A' for Active; 'I' for Inactive)
REMARK    1  A    between atoms: C_1  and  S_2
REMARK    2  A    between atoms: S_2  and  C_3
REMARK    3  A    between atoms: C_6  and  S_7
REMARK    4  A    between atoms: S_7  and  C_8
REMARK    5  A    between atoms: C_9  and  C_10
REMARK    6  A    between atoms: N_15  and  S_16
REMARK    7  A    between atoms: S_16  and  C_19
REMARK    8  A    between atoms: C_22  and  C_23
REMARK    9  A    between atoms: C_26  and  C_27
REMARK   10  A    between atoms: C_27  and  C_28
REMARK   11  A    between atoms: C_27  and  C_29
REMARK                            x       y       z     vdW  Elec       q    Type
REMARK                         _______ _______ _______ _____ _____    ______ ____
ROOT
ATOM      1  C   UNL     1      -1.303  15.467  22.043  0.00  0.00    +0.000 C 
ATOM      2  O   UNL     1      -0.787  16.504  21.610  0.00  0.00    +0.000 OA
ATOM      3  N   UNL     1      -0.572  14.283  21.898  0.00  0.00    +0.000 N 
ATOM      4  C   UNL     1       0.768  14.430  21.348  0.00  0.00    +0.000 C 
ATOM      5  C   UNL     1       1.241  13.051  20.937  0.00  0.00    +0.000 C 
ATOM      6  N   UNL     1       0.026  12.196  20.932  0.00  0.00    +0.000 NA
ATOM      7  C   UNL     1      -1.068  12.944  21.632  0.00  0.00    +0.000 C 
ENDROOT
BRANCH   1  12
ATOM      8  C   UNL     1      -2.556  15.821  24.237  0.00  0.00    +0.000 A 
ATOM      9  N   UNL     1      -3.694  16.141  24.840  0.00  0.00    +0.000 NA
ATOM     10  S   UNL     1      -4.879  16.189  23.718  0.00  0.00    +0.000 S 
ATOM     11  C   UNL     1      -3.914  15.720  22.367  0.00  0.00    +0.000 A 
ATOM     12  C   UNL     1      -2.576  15.620  22.774  0.00  0.00    +0.000 A 
BRANCH   8  14
ATOM     13  C   UNL     1      -0.331  17.200  25.226  0.00  0.00    +0.000 C 
ATOM     14  S   UNL     1      -1.140  15.577  25.287  0.00  0.00    +0.000 S 
ENDBRANCH   8  14
BRANCH  11  15
ATOM     15  S   UNL     1      -4.809  15.365  20.905  0.00  0.00    +0.000 S 
ATOM     16  C   UNL     1      -6.520  15.713  21.264  0.00  0.00    +0.000 C 
ENDBRANCH  11  15
ENDBRANCH   1  12
BRANCH   6  17
ATOM     17  S   UNL     1      -0.397  11.584  19.391  0.00  0.00    +0.000 S 
ATOM     18  O   UNL     1      -1.778  11.165  19.418  0.00  0.00    +0.000 OA
ATOM     19  O   UNL     1       0.072  12.531  18.409  0.00  0.00    +0.000 OA
BRANCH  17  20
ATOM     20  C   UNL     1       0.585  10.106  19.290  0.00  0.00    +0.000 A 
ATOM     21  C   UNL     1       0.762   9.328  20.439  0.00  0.00    +0.000 A 
ATOM     22  C   UNL     1       1.544   8.173  20.378  0.00  0.00    +0.000 A 
ATOM     23  C   UNL     1       2.149   7.791  19.173  0.00  0.00    +0.000 A 
ATOM     24  C   UNL     1       2.989   6.549  19.097  0.00  0.00    +0.000 C 
ATOM     25  C   UNL     1       1.937   8.564  18.022  0.00  0.00    +0.000 A 
ATOM     26  C   UNL     1       1.160   9.724  18.077  0.00  0.00    +0.000 A 
ENDBRANCH  17  20
ENDBRANCH   6  17
BRANCH   7  27
ATOM     27  C   UNL     1      -1.510  12.173  22.905  0.00  0.00    +0.000 C 
ATOM     28  C   UNL     1      -3.033  12.201  23.087  0.00  0.00    +0.000 C 
ATOM     29  C   UNL     1      -1.003  10.740  23.051  0.00  0.00    +0.000 C 
ENDBRANCH   7  27
TORSDOF 6
ENDMDL
MODEL 3
REMARK VINA RESULT:      -5.7      0.852      2.678
REMARK  Name = 
REMARK  11 active torsions:
REMARK  status: ('A' for Active; 'I' for Inactive)
REMARK    1  A    between atoms: C_1  and  S_2
REMARK    2  A    between atoms: S_2  and  C_3
REMARK    3  A    between atoms: C_6  and  S_7
REMARK    4  A    between atoms: S_7  and  C_8
REMARK    5  A    between atoms: C_9  and  C_10
REMARK    6  A    between atoms: N_15  and  S_16
REMARK    7  A    between atoms: S_16  and  C_19
REMARK    8  A    between atoms: C_22  and  C_23
REMARK    9  A    between atoms: C_26  and  C_27
REMARK   10  A    between atoms: C_27  and  C_28
REMARK   11  A    between atoms: C_27  and  C_29
REMARK                            x       y       z     vdW  Elec       q    Type
REMARK                         _______ _______ _______ _____ _____    ______ ____
ROOT
ATOM      1  C   UNL     1      -1.826  13.790  20.625  0.00  0.00    +0.000 C 
ATOM      2  O   UNL     1      -3.057  13.682  20.657  0.00  0.00    +0.000 OA
ATOM      3  N   UNL     1      -1.119  12.816  19.910  0.00  0.00    +0.000 N 
ATOM      4  C   UNL     1      -1.931  11.844  19.193  0.00  0.00    +0.000 C 
ATOM      5  C   UNL     1      -1.022  10.697  18.802  0.00  0.00    +0.000 C 
ATOM      6  N   UNL     1       0.211  10.870  19.612  0.00  0.00    +0.000 NA
ATOM      7  C   UNL     1       0.181  12.243  20.212  0.00  0.00    +0.000 C 
ENDROOT
BRANCH   1  12
ATOM      8  C   UNL     1      -0.712  16.072  20.376  0.00  0.00    +0.000 A 
ATOM      9  N   UNL     1      -0.379  17.225  20.942  0.00  0.00    +0.000 NA
ATOM     10  S   UNL     1      -0.649  17.111  22.547  0.00  0.00    +0.000 S 
ATOM     11  C   UNL     1      -1.178  15.469  22.560  0.00  0.00    +0.000 A 
ATOM     12  C   UNL     1      -1.255  15.004  21.240  0.00  0.00    +0.000 A 
BRANCH   8  14
ATOM     13  C   UNL     1      -0.456  17.633  18.068  0.00  0.00    +0.000 C 
ATOM     14  S   UNL     1      -0.377  15.912  18.635  0.00  0.00    +0.000 S 
ENDBRANCH   8  14
BRANCH  11  15
ATOM     15  S   UNL     1      -1.358  14.761  24.151  0.00  0.00    +0.000 S 
ATOM     16  C   UNL     1      -3.033  14.159  24.248  0.00  0.00    +0.000 C 
ENDBRANCH  11  15
ENDBRANCH   1  12
BRANCH   6  17
ATOM     17  S   UNL     1       0.502   9.607  20.728  0.00  0.00    +0.000 S 
ATOM     18  O   UNL     1       1.309  10.116  21.811  0.00  0.00    +0.000 OA
ATOM     19  O   UNL     1      -0.762   8.960  20.986  0.00  0.00    +0.000 OA
BRANCH  17  20
ATOM     20  C   UNL     1       1.538   8.507  19.791  0.00  0.00    +0.000 A 
ATOM     21  C   UNL     1       1.973   8.900  18.522  0.00  0.00    +0.000 A 
ATOM     22  C   UNL     1       2.774   8.040  17.768  0.00  0.00    +0.000 A 
ATOM     23  C   UNL     1       3.143   6.788  18.278  0.00  0.00    +0.000 A 
ATOM     24  C   UNL     1       4.006   5.858  17.476  0.00  0.00    +0.000 C 
ATOM     25  C   UNL     1       2.724   6.420  19.566  0.00  0.00    +0.000 A 
ATOM     26  C   UNL     1       1.919   7.274  20.323  0.00  0.00    +0.000 A 
ENDBRANCH  17  20
ENDBRANCH   6  17
BRANCH   7  27
ATOM     27  C   UNL     1       1.376  13.082  19.683  0.00  0.00    +0.000 C 
ATOM     28  C   UNL     1       2.385  13.397  20.794  0.00  0.00    +0.000 C 
ATOM     29  C   UNL     1       2.112  12.535  18.462  0.00  0.00    +0.000 C 
ENDBRANCH   7  27
TORSDOF 6
ENDMDL
MODEL 4
REMARK VINA RESULT:      -5.6      0.942      1.440
REMARK  Name = 
REMARK  11 active torsions:
REMARK  status: ('A' for Active; 'I' for Inactive)
REMARK    1  A    between atoms: C_1  and  S_2
REMARK    2  A    between atoms: S_2  and  C_3
REMARK    3  A    between atoms: C_6  and  S_7
REMARK    4  A    between atoms: S_7  and  C_8
REMARK    5  A    between atoms: C_9  and  C_10
REMARK    6  A    between atoms: N_15  and  S_16
REMARK    7  A    between atoms: S_16  and  C_19
REMARK    8  A    between atoms: C_22  and  C_23
REMARK    9  A    between atoms: C_26  and  C_27
REMARK   10  A    between atoms: C_27  and  C_28
REMARK   11  A    between atoms: C_27  and  C_29
REMARK                            x       y       z     vdW  Elec       q    Type
REMARK                         _______ _______ _______ _____ _____    ______ ____
ROOT
ATOM      1  C   UNL     1      -2.244  13.551  20.648  0.00  0.00    +0.000 C 
ATOM      2  O   UNL     1      -3.458  13.315  20.664  0.00  0.00    +0.000 OA
ATOM      3  N   UNL     1      -1.432  12.656  19.941  0.00  0.00    +0.000 N 
ATOM      4  C   UNL     1      -2.130  11.608  19.211  0.00  0.00    +0.000 C 
ATOM      5  C   UNL     1      -1.103  10.562  18.830  0.00  0.00    +0.000 C 
ATOM      6  N   UNL     1       0.096  10.859  19.657  0.00  0.00    +0.000 NA
ATOM      7  C   UNL     1      -0.084  12.220  20.258  0.00  0.00    +0.000 C 
ENDROOT
BRANCH   1  12
ATOM      8  C   UNL     1      -1.967  15.000  22.728  0.00  0.00    +0.000 A 
ATOM      9  N   UNL     1      -1.401  16.062  23.288  0.00  0.00    +0.000 NA
ATOM     10  S   UNL     1      -0.673  16.938  22.119  0.00  0.00    +0.000 S 
ATOM     11  C   UNL     1      -1.141  15.948  20.786  0.00  0.00    +0.000 A 
ATOM     12  C   UNL     1      -1.810  14.815  21.272  0.00  0.00    +0.000 A 
BRANCH   8  14
ATOM     13  C   UNL     1      -4.543  14.808  23.804  0.00  0.00    +0.000 C 
ATOM     14  S   UNL     1      -2.939  13.960  23.795  0.00  0.00    +0.000 S 
ENDBRANCH   8  14
BRANCH  11  15
ATOM     15  S   UNL     1      -0.805  16.625  19.207  0.00  0.00    +0.000 S 
ATOM     16  C   UNL     1       0.235  18.046  19.478  0.00  0.00    +0.000 C 
ENDBRANCH  11  15
ENDBRANCH   1  12
BRANCH   6  17
ATOM     17  S   UNL     1       0.502   9.629  20.774  0.00  0.00    +0.000 S 
ATOM     18  O   UNL     1       1.359  10.187  21.792  0.00  0.00    +0.000 OA
ATOM     19  O   UNL     1      -0.720   8.947  21.126  0.00  0.00    +0.000 OA
BRANCH  17  20
ATOM     20  C   UNL     1       1.511   8.544  19.791  0.00  0.00    +0.000 A 
ATOM     21  C   UNL     1       1.879   7.301  20.313  0.00  0.00    +0.000 A 
ATOM     22  C   UNL     1       2.684   6.446  19.559  0.00  0.00    +0.000 A 
ATOM     23  C   UNL     1       3.121   6.827  18.283  0.00  0.00    +0.000 A 
ATOM     24  C   UNL     1       3.985   5.913  17.464  0.00  0.00    +0.000 C 
ATOM     25  C   UNL     1       2.718   8.065  17.760  0.00  0.00    +0.000 A 
ATOM     26  C   UNL     1       1.917   8.928  18.512  0.00  0.00    +0.000 A 
ENDBRANCH  17  20
ENDBRANCH   6  17
BRANCH   7  27
ATOM     27  C   UNL     1       1.025  13.179  19.746  0.00  0.00    +0.000 C 
ATOM     28  C   UNL     1       1.870  13.738  20.898  0.00  0.00    +0.000 C 
ATOM     29  C   UNL     1       1.943  12.645  18.649  0.00  0.00    +0.000 C 
ENDBRANCH   7  27
TORSDOF 6
ENDMDL
MODEL 5
REMARK VINA RESULT:      -5.6      3.753      8.038
REMARK  Name = 
REMARK  11 active torsions:
REMARK  status: ('A' for Active; 'I' for Inactive)
REMARK    1  A    between atoms: C_1  and  S_2
REMARK    2  A    between atoms: S_2  and  C_3
REMARK    3  A    between atoms: C_6  and  S_7
REMARK    4  A    between atoms: S_7  and  C_8
REMARK    5  A    between atoms: C_9  and  C_10
REMARK    6  A    between atoms: N_15  and  S_16
REMARK    7  A    between atoms: S_16  and  C_19
REMARK    8  A    between atoms: C_22  and  C_23
REMARK    9  A    between atoms: C_26  and  C_27
REMARK   10  A    between atoms: C_27  and  C_28
REMARK   11  A    between atoms: C_27  and  C_29
REMARK                            x       y       z     vdW  Elec       q    Type
REMARK                         _______ _______ _______ _____ _____    ______ ____
ROOT
ATOM      1  C   UNL     1       0.695  14.350  21.924  0.00  0.00    +0.000 C 
ATOM      2  O   UNL     1       1.843  14.570  22.329  0.00  0.00    +0.000 OA
ATOM      3  N   UNL     1      -0.265  15.339  22.165  0.00  0.00    +0.000 N 
ATOM      4  C   UNL     1       0.229  16.567  22.771  0.00  0.00    +0.000 C 
ATOM      5  C   UNL     1      -0.974  17.337  23.275  0.00  0.00    +0.000 C 
ATOM      6  N   UNL     1      -2.102  16.370  23.264  0.00  0.00    +0.000 NA
ATOM      7  C   UNL     1      -1.674  15.171  22.474  0.00  0.00    +0.000 C 
ENDROOT
BRANCH   1  12
ATOM      8  C   UNL     1       0.976  13.083  19.728  0.00  0.00    +0.000 A 
ATOM      9  N   UNL     1       0.959  11.917  19.096  0.00  0.00    +0.000 NA
ATOM     10  S   UNL     1       0.341  10.791  20.103  0.00  0.00    +0.000 S 
ATOM     11  C   UNL     1       0.013  11.846  21.428  0.00  0.00    +0.000 A 
ATOM     12  C   UNL     1       0.501  13.125  21.125  0.00  0.00    +0.000 A 
BRANCH   8  14
ATOM     13  C   UNL     1      -0.063  15.418  18.589  0.00  0.00    +0.000 C 
ATOM     14  S   UNL     1       1.489  14.498  18.777  0.00  0.00    +0.000 S 
ENDBRANCH   8  14
BRANCH  11  15
ATOM     15  S   UNL     1      -0.929  11.138  22.723  0.00  0.00    +0.000 S 
ATOM     16  C   UNL     1      -0.147   9.587  23.125  0.00  0.00    +0.000 C 
ENDBRANCH  11  15
ENDBRANCH   1  12
BRANCH   6  17
ATOM     17  S   UNL     1      -2.741  16.019  24.811  0.00  0.00    +0.000 S 
ATOM     18  O   UNL     1      -1.785  15.223  25.542  0.00  0.00    +0.000 OA
ATOM     19  O   UNL     1      -3.250  17.254  25.357  0.00  0.00    +0.000 OA
BRANCH  17  20
ATOM     20  C   UNL     1      -4.107  14.950  24.421  0.00  0.00    +0.000 A 
ATOM     21  C   UNL     1      -3.967  13.572  24.610  0.00  0.00    +0.000 A 
ATOM     22  C   UNL     1      -5.026  12.720  24.294  0.00  0.00    +0.000 A 
ATOM     23  C   UNL     1      -6.226  13.239  23.789  0.00  0.00    +0.000 A 
ATOM     24  C   UNL     1      -7.370  12.329  23.446  0.00  0.00    +0.000 C 
ATOM     25  C   UNL     1      -6.362  14.626  23.632  0.00  0.00    +0.000 A 
ATOM     26  C   UNL     1      -5.305  15.484  23.943  0.00  0.00    +0.000 A 
ENDBRANCH  17  20
ENDBRANCH   6  17
BRANCH   7  27
ATOM     27  C   UNL     1      -2.578  15.008  21.222  0.00  0.00    +0.000 C 
ATOM     28  C   UNL     1      -3.261  13.635  21.189  0.00  0.00    +0.000 C 
ATOM     29  C   UNL     1      -3.614  16.102  20.976  0.00  0.00    +0.000 C 
ENDBRANCH   7  27
TORSDOF 6
ENDMDL
MODEL 6
REMARK VINA RESULT:      -5.5      3.447      5.622
REMARK  Name = 
REMARK  11 active torsions:
REMARK  status: ('A' for Active; 'I' for Inactive)
REMARK    1  A    between atoms: C_1  and  S_2
REMARK    2  A    between atoms: S_2  and  C_3
REMARK    3  A    between atoms: C_6  and  S_7
REMARK    4  A    between atoms: S_7  and  C_8
REMARK    5  A    between atoms: C_9  and  C_10
REMARK    6  A    between atoms: N_15  and  S_16
REMARK    7  A    between atoms: S_16  and  C_19
REMARK    8  A    between atoms: C_22  and  C_23
REMARK    9  A    between atoms: C_26  and  C_27
REMARK   10  A    between atoms: C_27  and  C_28
REMARK   11  A    between atoms: C_27  and  C_29
REMARK                            x       y       z     vdW  Elec       q    Type
REMARK                         _______ _______ _______ _____ _____    ______ ____
ROOT
ATOM      1  C   UNL     1       2.507  15.553  18.439  0.00  0.00    +0.000 C 
ATOM      2  O   UNL     1       2.933  15.715  17.290  0.00  0.00    +0.000 OA
ATOM      3  N   UNL     1       2.338  14.233  18.875  0.00  0.00    +0.000 N 
ATOM      4  C   UNL     1       2.791  13.200  17.956  0.00  0.00    +0.000 C 
ATOM      5  C   UNL     1       2.205  11.886  18.429  0.00  0.00    +0.000 C 
ATOM      6  N   UNL     1       1.141  12.250  19.400  0.00  0.00    +0.000 NA
ATOM      7  C   UNL     1       1.308  13.698  19.747  0.00  0.00    +0.000 C 
ENDROOT
BRANCH   1  12
ATOM      8  C   UNL     1       1.035  17.453  19.296  0.00  0.00    +0.000 A 
ATOM      9  N   UNL     1       0.863  18.427  20.180  0.00  0.00    +0.000 NA
ATOM     10  S   UNL     1       2.256  18.627  21.007  0.00  0.00    +0.000 S 
ATOM     11  C   UNL     1       3.179  17.439  20.164  0.00  0.00    +0.000 A 
ATOM     12  C   UNL     1       2.344  16.769  19.260  0.00  0.00    +0.000 A 
BRANCH   8  14
ATOM     13  C   UNL     1      -0.262  18.596  17.096  0.00  0.00    +0.000 C 
ATOM     14  S   UNL     1      -0.316  17.142  18.180  0.00  0.00    +0.000 S 
ENDBRANCH   8  14
BRANCH  11  15
ATOM     15  S   UNL     1       4.893  17.440  20.523  0.00  0.00    +0.000 S 
ATOM     16  C   UNL     1       5.727  17.026  19.002  0.00  0.00    +0.000 C 
ENDBRANCH  11  15
ENDBRANCH   1  12
BRANCH   6  17
ATOM     17  S   UNL     1      -0.438  11.806  18.913  0.00  0.00    +0.000 S 
ATOM     18  O   UNL     1      -0.941  12.801  17.997  0.00  0.00    +0.000 OA
ATOM     19  O   UNL     1      -0.398  10.411  18.545  0.00  0.00    +0.000 OA
BRANCH  17  20
ATOM     20  C   UNL     1      -1.362  11.984  20.422  0.00  0.00    +0.000 A 
ATOM     21  C   UNL     1      -2.555  12.712  20.406  0.00  0.00    +0.000 A 
ATOM     22  C   UNL     1      -3.283  12.872  21.586  0.00  0.00    +0.000 A 
ATOM     23  C   UNL     1      -2.824  12.306  22.783  0.00  0.00    +0.000 A 
ATOM     24  C   UNL     1      -3.601  12.472  24.057  0.00  0.00    +0.000 C 
ATOM     25  C   UNL     1      -1.640  11.553  22.777  0.00  0.00    +0.000 A 
ATOM     26  C   UNL     1      -0.905  11.393  21.601  0.00  0.00    +0.000 A 
ENDBRANCH  17  20
ENDBRANCH   6  17
BRANCH   7  27
ATOM     27  C   UNL     1       1.622  13.850  21.260  0.00  0.00    +0.000 C 
ATOM     28  C   UNL     1       3.120  14.074  21.510  0.00  0.00    +0.000 C 
ATOM     29  C   UNL     1       0.814  14.893  22.028  0.00  0.00    +0.000 C 
ENDBRANCH   7  27
TORSDOF 6
ENDMDL
MODEL 7
REMARK VINA RESULT:      -5.4      1.267      1.629
REMARK  Name = 
REMARK  11 active torsions:
REMARK  status: ('A' for Active; 'I' for Inactive)
REMARK    1  A    between atoms: C_1  and  S_2
REMARK    2  A    between atoms: S_2  and  C_3
REMARK    3  A    between atoms: C_6  and  S_7
REMARK    4  A    between atoms: S_7  and  C_8
REMARK    5  A    between atoms: C_9  and  C_10
REMARK    6  A    between atoms: N_15  and  S_16
REMARK    7  A    between atoms: S_16  and  C_19
REMARK    8  A    between atoms: C_22  and  C_23
REMARK    9  A    between atoms: C_26  and  C_27
REMARK   10  A    between atoms: C_27  and  C_28
REMARK   11  A    between atoms: C_27  and  C_29
REMARK                            x       y       z     vdW  Elec       q    Type
REMARK                         _______ _______ _______ _____ _____    ______ ____
ROOT
ATOM      1  C   UNL     1      -2.272  14.350  20.853  0.00  0.00    +0.000 C 
ATOM      2  O   UNL     1      -3.486  14.189  21.028  0.00  0.00    +0.000 OA
ATOM      3  N   UNL     1      -1.599  13.369  20.117  0.00  0.00    +0.000 N 
ATOM      4  C   UNL     1      -2.435  12.322  19.546  0.00  0.00    +0.000 C 
ATOM      5  C   UNL     1      -1.517  11.196  19.117  0.00  0.00    +0.000 C 
ATOM      6  N   UNL     1      -0.213  11.470  19.775  0.00  0.00    +0.000 NA
ATOM      7  C   UNL     1      -0.247  12.872  20.301  0.00  0.00    +0.000 C 
ENDROOT
BRANCH   1  12
ATOM      8  C   UNL     1      -1.182  15.709  22.716  0.00  0.00    +0.000 A 
ATOM      9  N   UNL     1      -0.506  16.798  23.063  0.00  0.00    +0.000 NA
ATOM     10  S   UNL     1      -0.471  17.814  21.786  0.00  0.00    +0.000 S 
ATOM     11  C   UNL     1      -1.422  16.849  20.718  0.00  0.00    +0.000 A 
ATOM     12  C   UNL     1      -1.700  15.622  21.336  0.00  0.00    +0.000 A 
BRANCH   8  14
ATOM     13  C   UNL     1      -1.243  15.490  25.505  0.00  0.00    +0.000 C 
ATOM     14  S   UNL     1      -1.467  14.507  23.997  0.00  0.00    +0.000 S 
ENDBRANCH   8  14
BRANCH  11  15
ATOM     15  S   UNL     1      -1.907  17.643  19.235  0.00  0.00    +0.000 S 
ATOM     16  C   UNL     1      -0.479  18.537  18.652  0.00  0.00    +0.000 C 
ENDBRANCH  11  15
ENDBRANCH   1  12
BRANCH   6  17
ATOM     17  S   UNL     1       0.261  10.287  20.916  0.00  0.00    +0.000 S 
ATOM     18  O   UNL     1       1.184  10.884  21.851  0.00  0.00    +0.000 OA
ATOM     19  O   UNL     1      -0.937   9.627  21.374  0.00  0.00    +0.000 OA
BRANCH  17  20
ATOM     20  C   UNL     1       1.202   9.156  19.918  0.00  0.00    +0.000 A 
ATOM     21  C   UNL     1       1.613   7.940  20.472  0.00  0.00    +0.000 A 
ATOM     22  C   UNL     1       2.365   7.050  19.705  0.00  0.00    +0.000 A 
ATOM     23  C   UNL     1       2.708   7.368  18.384  0.00  0.00    +0.000 A 
ATOM     24  C   UNL     1       3.516   6.415  17.551  0.00  0.00    +0.000 C 
ATOM     25  C   UNL     1       2.263   8.578  17.831  0.00  0.00    +0.000 A 
ATOM     26  C   UNL     1       1.514   9.476  18.595  0.00  0.00    +0.000 A 
ENDBRANCH  17  20
ENDBRANCH   6  17
BRANCH   7  27
ATOM     27  C   UNL     1       0.840  13.731  19.599  0.00  0.00    +0.000 C 
ATOM     28  C   UNL     1       0.262  14.529  18.423  0.00  0.00    +0.000 C 
ATOM     29  C   UNL     1       1.664  14.657  20.491  0.00  0.00    +0.000 C 
ENDBRANCH   7  27
TORSDOF 6
ENDMDL
MODEL 8
REMARK VINA RESULT:      -5.4      3.673      6.040
REMARK  Name = 
REMARK  11 active torsions:
REMARK  status: ('A' for Active; 'I' for Inactive)
REMARK    1  A    between atoms: C_1  and  S_2
REMARK    2  A    between atoms: S_2  and  C_3
REMARK    3  A    between atoms: C_6  and  S_7
REMARK    4  A    between atoms: S_7  and  C_8
REMARK    5  A    between atoms: C_9  and  C_10
REMARK    6  A    between atoms: N_15  and  S_16
REMARK    7  A    between atoms: S_16  and  C_19
REMARK    8  A    between atoms: C_22  and  C_23
REMARK    9  A    between atoms: C_26  and  C_27
REMARK   10  A    between atoms: C_27  and  C_28
REMARK   11  A    between atoms: C_27  and  C_29
REMARK                            x       y       z     vdW  Elec       q    Type
REMARK                         _______ _______ _______ _____ _____    ______ ____
ROOT
ATOM      1  C   UNL     1       3.623  15.200  22.395  0.00  0.00    +0.000 C 
ATOM      2  O   UNL     1       3.432  15.797  23.461  0.00  0.00    +0.000 OA
ATOM      3  N   UNL     1       2.499  14.932  21.605  0.00  0.00    +0.000 N 
ATOM      4  C   UNL     1       1.243  15.490  22.083  0.00  0.00    +0.000 C 
ATOM      5  C   UNL     1       0.127  14.804  21.322  0.00  0.00    +0.000 C 
ATOM      6  N   UNL     1       0.749  13.618  20.680  0.00  0.00    +0.000 NA
ATOM      7  C   UNL     1       2.237  13.770  20.774  0.00  0.00    +0.000 C 
ENDROOT
BRANCH   1  12
ATOM      8  C   UNL     1       5.714  15.875  21.098  0.00  0.00    +0.000 A 
ATOM      9  N   UNL     1       7.023  15.734  20.928  0.00  0.00    +0.000 NA
ATOM     10  S   UNL     1       7.528  14.466  21.824  0.00  0.00    +0.000 S 
ATOM     11  C   UNL     1       5.983  14.011  22.441  0.00  0.00    +0.000 A 
ATOM     12  C   UNL     1       5.029  14.949  22.022  0.00  0.00    +0.000 A 
BRANCH   8  14
ATOM     13  C   UNL     1       5.211  18.627  21.073  0.00  0.00    +0.000 C 
ATOM     14  S   UNL     1       4.911  17.119  20.111  0.00  0.00    +0.000 S 
ENDBRANCH   8  14
BRANCH  11  15
ATOM     15  S   UNL     1       5.948  12.483  23.295  0.00  0.00    +0.000 S 
ATOM     16  C   UNL     1       5.908  12.877  25.033  0.00  0.00    +0.000 C 
ENDBRANCH  11  15
ENDBRANCH   1  12
BRANCH   6  17
ATOM     17  S   UNL     1       0.145  12.118  21.238  0.00  0.00    +0.000 S 
ATOM     18  O   UNL     1       1.255  11.230  21.487  0.00  0.00    +0.000 OA
ATOM     19  O   UNL     1      -0.824  12.401  22.270  0.00  0.00    +0.000 OA
BRANCH  17  20
ATOM     20  C   UNL     1      -0.699  11.494  19.803  0.00  0.00    +0.000 A 
ATOM     21  C   UNL     1      -0.164  10.395  19.125  0.00  0.00    +0.000 A 
ATOM     22  C   UNL     1      -0.808   9.904  17.988  0.00  0.00    +0.000 A 
ATOM     23  C   UNL     1      -1.986  10.507  17.526  0.00  0.00    +0.000 A 
ATOM     24  C   UNL     1      -2.686   9.985  16.304  0.00  0.00    +0.000 C 
ATOM     25  C   UNL     1      -2.527  11.590  18.234  0.00  0.00    +0.000 A 
ATOM     26  C   UNL     1      -1.885  12.089  19.370  0.00  0.00    +0.000 A 
ENDBRANCH  17  20
ENDBRANCH   6  17
BRANCH   7  27
ATOM     27  C   UNL     1       2.855  13.860  19.353  0.00  0.00    +0.000 C 
ATOM     28  C   UNL     1       2.550  12.608  18.520  0.00  0.00    +0.000 C 
ATOM     29  C   UNL     1       2.526  15.109  18.539  0.00  0.00    +0.000 C 
ENDBRANCH   7  27
TORSDOF 6
ENDMDL
MODEL 9
REMARK VINA RESULT:      -5.3      4.159      6.456
REMARK  Name = 
REMARK  11 active torsions:
REMARK  status: ('A' for Active; 'I' for Inactive)
REMARK    1  A    between atoms: C_1  and  S_2
REMARK    2  A    between atoms: S_2  and  C_3
REMARK    3  A    between atoms: C_6  and  S_7
REMARK    4  A    between atoms: S_7  and  C_8
REMARK    5  A    between atoms: C_9  and  C_10
REMARK    6  A    between atoms: N_15  and  S_16
REMARK    7  A    between atoms: S_16  and  C_19
REMARK    8  A    between atoms: C_22  and  C_23
REMARK    9  A    between atoms: C_26  and  C_27
REMARK   10  A    between atoms: C_27  and  C_28
REMARK   11  A    between atoms: C_27  and  C_29
REMARK                            x       y       z     vdW  Elec       q    Type
REMARK                         _______ _______ _______ _____ _____    ______ ____
ROOT
ATOM      1  C   UNL     1      -5.027  14.230  20.940  0.00  0.00    +0.000 C 
ATOM      2  O   UNL     1      -5.348  15.200  20.243  0.00  0.00    +0.000 OA
ATOM      3  N   UNL     1      -3.674  14.110  21.280  0.00  0.00    +0.000 N 
ATOM      4  C   UNL     1      -2.817  15.210  20.860  0.00  0.00    +0.000 C 
ATOM      5  C   UNL     1      -1.383  14.737  20.988  0.00  0.00    +0.000 C 
ATOM      6  N   UNL     1      -1.460  13.261  21.138  0.00  0.00    +0.000 NA
ATOM      7  C   UNL     1      -2.885  12.900  21.426  0.00  0.00    +0.000 C 
ENDROOT
BRANCH   1  12
ATOM      8  C   UNL     1      -6.420  12.101  20.761  0.00  0.00    +0.000 A 
ATOM      9  N   UNL     1      -7.284  11.274  21.336  0.00  0.00    +0.000 NA
ATOM     10  S   UNL     1      -7.842  11.975  22.700  0.00  0.00    +0.000 S 
ATOM     11  C   UNL     1      -6.979  13.461  22.546  0.00  0.00    +0.000 A 
ATOM     12  C   UNL     1      -6.127  13.381  21.435  0.00  0.00    +0.000 A 
BRANCH   8  14
ATOM     13  C   UNL     1      -7.084  12.145  18.043  0.00  0.00    +0.000 C 
ATOM     14  S   UNL     1      -5.775  11.605  19.177  0.00  0.00    +0.000 S 
ENDBRANCH   8  14
BRANCH  11  15
ATOM     15  S   UNL     1      -7.447  14.710  23.680  0.00  0.00    +0.000 S 
ATOM     16  C   UNL     1      -6.018  15.753  23.899  0.00  0.00    +0.000 C 
ENDBRANCH  11  15
ENDBRANCH   1  12
BRANCH   6  17
ATOM     17  S   UNL     1      -0.742  12.386  19.856  0.00  0.00    +0.000 S 
ATOM     18  O   UNL     1      -0.508  11.029  20.290  0.00  0.00    +0.000 OA
ATOM     19  O   UNL     1      -1.509  12.661  18.665  0.00  0.00    +0.000 OA
BRANCH  17  20
ATOM     20  C   UNL     1       0.851  13.161  19.714  0.00  0.00    +0.000 A 
ATOM     21  C   UNL     1       1.213  13.754  18.501  0.00  0.00    +0.000 A 
ATOM     22  C   UNL     1       2.466  14.353  18.371  0.00  0.00    +0.000 A 
ATOM     23  C   UNL     1       3.361  14.363  19.450  0.00  0.00    +0.000 A 
ATOM     24  C   UNL     1       4.712  15.007  19.320  0.00  0.00    +0.000 C 
ATOM     25  C   UNL     1       2.973  13.791  20.670  0.00  0.00    +0.000 A 
ATOM     26  C   UNL     1       1.721  13.186  20.805  0.00  0.00    +0.000 A 
ENDBRANCH  17  20
ENDBRANCH   6  17
BRANCH   7  27
ATOM     27  C   UNL     1      -2.996  12.242  22.828  0.00  0.00    +0.000 C 
ATOM     28  C   UNL     1      -1.717  11.483  23.203  0.00  0.00    +0.000 C 
ATOM     29  C   UNL     1      -3.410  13.152  23.982  0.00  0.00    +0.000 C 
ENDBRANCH   7  27
TORSDOF 6
ENDMDL
