MODEL 1
REMARK VINA RESULT:      -8.0      0.000      0.000
REMARK  Name = 
REMARK  9 active torsions:
REMARK  status: ('A' for Active; 'I' for Inactive)
REMARK    1  A    between atoms: C_1  and  N_2
REMARK    2  A    between atoms: C_6  and  S_7
REMARK    3  A    between atoms: S_7  and  C_8
REMARK    4  A    between atoms: C_8  and  C_9
REMARK    5  A    between atoms: CA_10  and  C_11
REMARK    6  A    between atoms: CA_17  and  N_18
REMARK    7  A    between atoms: N_18  and  C_19
REMARK    8  A    between atoms: N_22  and  C_23
REMARK    9  A    between atoms: C_23  and  C_24
REMARK                            x       y       z     vdW  Elec       q    Type
REMARK                         _______ _______ _______ _____ _____    ______ ____
ROOT
ATOM      1  C   UNL     1       4.289   4.560  17.424  0.00  0.00    +0.000 C 
ATOM      2  CA  UNL     1       3.648   4.013  18.497  0.00  0.00    +0.000 C 
ATOM      3  N   UNL     1       2.800   4.798  19.232  0.00  0.00    +0.000 N 
ATOM      4  C   UNL     1       2.422   4.839  20.524  0.00  0.00    +0.000 C 
ATOM      5  O   UNL     1       2.724   4.230  21.526  0.00  0.00    +0.000 OA
ATOM      6  CA  UNL     1       1.585   6.134  20.246  0.00  0.00    +0.000 C 
ATOM      7  C   UNL     1       2.133   5.983  18.778  0.00  0.00    +0.000 C 
ATOM      8  S   UNL     1       3.392   7.157  18.220  0.00  0.00    +0.000 S 
ATOM      9  C   UNL     1       4.152   6.015  17.009  0.00  0.00    +0.000 C 
ENDROOT
BRANCH   2  10
ATOM     10  C   UNL     1       3.793   2.487  18.932  0.00  0.00    +0.000 C 
ATOM     11  O   UNL     1       2.923   1.693  18.480  0.00  0.00    +0.000 OA
ATOM     12  OXT UNL     1       4.745   2.279  19.746  0.00  0.00    +0.000 OA
ENDBRANCH   2  10
BRANCH   6  13
ATOM     13  N   UNL     1       1.946   7.347  20.981  0.00  0.00    +0.000 N 
ATOM     14  H   UNL     1       2.907   7.359  21.311  0.00  0.00    +0.000 HD
BRANCH  13  15
ATOM     15  C   UNL     1       1.212   8.541  21.066  0.00  0.00    +0.000 A 
ATOM     16  C   UNL     1       0.738   9.208  19.939  0.00  0.00    +0.000 A 
ATOM     17  C   UNL     1      -0.088  10.319  20.061  0.00  0.00    +0.000 A 
ATOM     18  N   UNL     1      -0.429  10.793  21.279  0.00  0.00    +0.000 N 
ATOM     19  C   UNL     1      -0.015  10.152  22.396  0.00  0.00    +0.000 A 
ATOM     20  C   UNL     1       0.807   9.026  22.308  0.00  0.00    +0.000 A 
BRANCH  18  21
ATOM     21  C   UNL     1      -1.199  12.056  21.383  0.00  0.00    +0.000 C 
BRANCH  21  22
ATOM     22  C   UNL     1      -0.371  13.253  21.088  0.00  0.00    +0.000 A 
ATOM     23  C   UNL     1      -0.378  14.179  20.064  0.00  0.00    +0.000 A 
ATOM     24  C   UNL     1       0.730  15.031  20.293  0.00  0.00    +0.000 A 
ATOM     25  C   UNL     1       1.329  14.582  21.446  0.00  0.00    +0.000 A 
ATOM     26  O   UNL     1       0.668  13.498  21.936  0.00  0.00    +0.000 OA
ENDBRANCH  21  22
ENDBRANCH  18  21
ENDBRANCH  13  15
ENDBRANCH   6  13
BRANCH   1  27
ATOM     27  C   UNL     1       5.326   3.799  16.600  0.00  0.00    +0.000 C 
BRANCH  27  28
ATOM     28  S   UNL     1       6.683   4.856  16.019  0.00  0.00    +0.000 S 
BRANCH  28  34
ATOM     29  C   UNL     1       7.459   7.830  17.360  0.00  0.00    +0.000 C 
ATOM     30  N   UNL     1       7.658   6.550  17.977  0.00  0.00    +0.000 N 
ATOM     31  N   UNL     1       8.170   6.484  19.227  0.00  0.00    +0.000 NA
ATOM     32  N   UNL     1       8.241   5.191  19.510  0.00  0.00    +0.000 NA
ATOM     33  N   UNL     1       7.789   4.430  18.458  0.00  0.00    +0.000 NA
ATOM     34  C   UNL     1       7.427   5.281  17.522  0.00  0.00    +0.000 A 
ENDBRANCH  28  34
ENDBRANCH  27  28
ENDBRANCH   1  27
TORSDOF 8
ENDMDL
MODEL 2
REMARK VINA RESULT:      -7.9      3.907     10.788
REMARK  Name = 
REMARK  9 active torsions:
REMARK  status: ('A' for Active; 'I' for Inactive)
REMARK    1  A    between atoms: C_1  and  N_2
REMARK    2  A    between atoms: C_6  and  S_7
REMARK    3  A    between atoms: S_7  and  C_8
REMARK    4  A    between atoms: C_8  and  C_9
REMARK    5  A    between atoms: CA_10  and  C_11
REMARK    6  A    between atoms: CA_17  and  N_18
REMARK    7  A    between atoms: N_18  and  C_19
REMARK    8  A    between atoms: N_22  and  C_23
REMARK    9  A    between atoms: C_23  and  C_24
REMARK                            x       y       z     vdW  Elec       q    Type
REMARK                         _______ _______ _______ _____ _____    ______ ____
ROOT
ATOM      1  C   UNL     1      -2.265  12.054  20.524  0.00  0.00    +0.000 C 
ATOM      2  CA  UNL     1      -1.126  11.692  21.182  0.00  0.00    +0.000 C 
ATOM      3  N   UNL     1      -0.115  11.097  20.476  0.00  0.00    +0.000 N 
ATOM      4  C   UNL     1       0.842  10.193  20.764  0.00  0.00    +0.000 C 
ATOM      5  O   UNL     1       1.137   9.537  21.738  0.00  0.00    +0.000 OA
ATOM      6  CA  UNL     1       1.293  10.181  19.263  0.00  0.00    +0.000 C 
ATOM      7  C   UNL     1       0.114  11.205  19.065  0.00  0.00    +0.000 C 
ATOM      8  S   UNL     1      -1.373  10.629  18.209  0.00  0.00    +0.000 S 
ATOM      9  C   UNL     1      -2.504  11.800  19.045  0.00  0.00    +0.000 C 
ENDROOT
BRANCH   2  10
ATOM     10  C   UNL     1      -0.877  11.958  22.733  0.00  0.00    +0.000 C 
ATOM     11  O   UNL     1      -0.371  13.074  23.034  0.00  0.00    +0.000 OA
ATOM     12  OXT UNL     1      -1.165  10.966  23.471  0.00  0.00    +0.000 OA
ENDBRANCH   2  10
BRANCH   6  13
ATOM     13  N   UNL     1       1.214   8.911  18.540  0.00  0.00    +0.000 N 
ATOM     14  H   UNL     1       0.418   8.843  17.911  0.00  0.00    +0.000 HD
BRANCH  13  15
ATOM     15  C   UNL     1       2.205   7.922  18.448  0.00  0.00    +0.000 A 
ATOM     16  C   UNL     1       3.208   7.957  17.483  0.00  0.00    +0.000 A 
ATOM     17  C   UNL     1       4.245   7.030  17.495  0.00  0.00    +0.000 A 
ATOM     18  N   UNL     1       4.286   6.057  18.429  0.00  0.00    +0.000 N 
ATOM     19  C   UNL     1       3.348   6.010  19.402  0.00  0.00    +0.000 A 
ATOM     20  C   UNL     1       2.300   6.933  19.426  0.00  0.00    +0.000 A 
BRANCH  18  21
ATOM     21  C   UNL     1       5.325   5.002  18.341  0.00  0.00    +0.000 C 
BRANCH  21  22
ATOM     22  C   UNL     1       5.703   4.692  16.938  0.00  0.00    +0.000 A 
ATOM     23  C   UNL     1       5.084   3.985  15.926  0.00  0.00    +0.000 A 
ATOM     24  C   UNL     1       5.998   3.962  14.844  0.00  0.00    +0.000 A 
ATOM     25  C   UNL     1       7.103   4.667  15.258  0.00  0.00    +0.000 A 
ATOM     26  O   UNL     1       6.934   5.114  16.532  0.00  0.00    +0.000 OA
ENDBRANCH  21  22
ENDBRANCH  18  21
ENDBRANCH  13  15
ENDBRANCH   6  13
BRANCH   1  27
ATOM     27  C   UNL     1      -3.486  12.634  21.235  0.00  0.00    +0.000 C 
BRANCH  27  28
ATOM     28  S   UNL     1      -4.858  13.000  20.102  0.00  0.00    +0.000 S 
BRANCH  28  34
ATOM     29  C   UNL     1      -6.661  10.438  18.909  0.00  0.00    +0.000 C 
ATOM     30  N   UNL     1      -6.762  10.996  20.227  0.00  0.00    +0.000 N 
ATOM     31  N   UNL     1      -7.622  10.454  21.118  0.00  0.00    +0.000 NA
ATOM     32  N   UNL     1      -7.493  11.182  22.218  0.00  0.00    +0.000 NA
ATOM     33  N   UNL     1      -6.569  12.185  22.041  0.00  0.00    +0.000 NA
ATOM     34  C   UNL     1      -6.122  12.054  20.811  0.00  0.00    +0.000 A 
ENDBRANCH  28  34
ENDBRANCH  27  28
ENDBRANCH   1  27
TORSDOF 8
ENDMDL
MODEL 3
REMARK VINA RESULT:      -7.8      0.979      1.689
REMARK  Name = 
REMARK  9 active torsions:
REMARK  status: ('A' for Active; 'I' for Inactive)
REMARK    1  A    between atoms: C_1  and  N_2
REMARK    2  A    between atoms: C_6  and  S_7
REMARK    3  A    between atoms: S_7  and  C_8
REMARK    4  A    between atoms: C_8  and  C_9
REMARK    5  A    between atoms: CA_10  and  C_11
REMARK    6  A    between atoms: CA_17  and  N_18
REMARK    7  A    between atoms: N_18  and  C_19
REMARK    8  A    between atoms: N_22  and  C_23
REMARK    9  A    between atoms: C_23  and  C_24
REMARK                            x       y       z     vdW  Elec       q    Type
REMARK                         _______ _______ _______ _____ _____    ______ ____
ROOT
ATOM      1  C   UNL     1       4.254   4.418  17.517  0.00  0.00    +0.000 C 
ATOM      2  CA  UNL     1       3.641   3.914  18.627  0.00  0.00    +0.000 C 
ATOM      3  N   UNL     1       2.772   4.712  19.323  0.00  0.00    +0.000 N 
ATOM      4  C   UNL     1       2.404   4.816  20.614  0.00  0.00    +0.000 C 
ATOM      5  O   UNL     1       2.736   4.279  21.648  0.00  0.00    +0.000 OA
ATOM      6  CA  UNL     1       1.519   6.063  20.269  0.00  0.00    +0.000 C 
ATOM      7  C   UNL     1       2.060   5.844  18.807  0.00  0.00    +0.000 C 
ATOM      8  S   UNL     1       3.273   7.026  18.168  0.00  0.00    +0.000 S 
ATOM      9  C   UNL     1       4.063   5.841  17.018  0.00  0.00    +0.000 C 
ENDROOT
BRANCH   2  10
ATOM     10  C   UNL     1       3.843   2.423  19.150  0.00  0.00    +0.000 C 
ATOM     11  O   UNL     1       4.786   2.241  19.968  0.00  0.00    +0.000 OA
ATOM     12  OXT UNL     1       3.054   1.585  18.613  0.00  0.00    +0.000 OA
ENDBRANCH   2  10
BRANCH   6  13
ATOM     13  N   UNL     1       1.843   7.330  20.928  0.00  0.00    +0.000 N 
ATOM     14  H   UNL     1       2.776   7.358  21.331  0.00  0.00    +0.000 HD
BRANCH  13  15
ATOM     15  C   UNL     1       1.128   8.534  20.853  0.00  0.00    +0.000 A 
ATOM     16  C   UNL     1       0.548   9.130  21.971  0.00  0.00    +0.000 A 
ATOM     17  C   UNL     1      -0.048  10.382  21.886  0.00  0.00    +0.000 A 
ATOM     18  N   UNL     1      -0.102  11.039  20.708  0.00  0.00    +0.000 N 
ATOM     19  C   UNL     1       0.478  10.509  19.608  0.00  0.00    +0.000 A 
ATOM     20  C   UNL     1       1.096   9.257  19.662  0.00  0.00    +0.000 A 
BRANCH  18  21
ATOM     21  C   UNL     1      -0.860  12.311  20.613  0.00  0.00    +0.000 C 
BRANCH  21  22
ATOM     22  C   UNL     1      -1.445  12.722  21.915  0.00  0.00    +0.000 A 
ATOM     23  C   UNL     1      -2.641  12.441  22.545  0.00  0.00    +0.000 A 
ATOM     24  C   UNL     1      -2.655  13.217  23.731  0.00  0.00    +0.000 A 
ATOM     25  C   UNL     1      -1.465  13.905  23.755  0.00  0.00    +0.000 A 
ATOM     26  O   UNL     1      -0.722  13.612  22.653  0.00  0.00    +0.000 OA
ENDBRANCH  21  22
ENDBRANCH  18  21
ENDBRANCH  13  15
ENDBRANCH   6  13
BRANCH   1  27
ATOM     27  C   UNL     1       5.310   3.647  16.729  0.00  0.00    +0.000 C 
BRANCH  27  28
ATOM     28  S   UNL     1       6.618   4.715  16.061  0.00  0.00    +0.000 S 
BRANCH  28  34
ATOM     29  C   UNL     1       7.277   7.768  17.281  0.00  0.00    +0.000 C 
ATOM     30  N   UNL     1       7.569   6.522  17.928  0.00  0.00    +0.000 N 
ATOM     31  N   UNL     1       8.129   6.524  19.159  0.00  0.00    +0.000 NA
ATOM     32  N   UNL     1       8.282   5.246  19.477  0.00  0.00    +0.000 NA
ATOM     33  N   UNL     1       7.835   4.428  18.467  0.00  0.00    +0.000 NA
ATOM     34  C   UNL     1       7.392   5.228  17.521  0.00  0.00    +0.000 A 
ENDBRANCH  28  34
ENDBRANCH  27  28
ENDBRANCH   1  27
TORSDOF 8
ENDMDL
MODEL 4
REMARK VINA RESULT:      -7.8      0.500      1.114
REMARK  Name = 
REMARK  9 active torsions:
REMARK  status: ('A' for Active; 'I' for Inactive)
REMARK    1  A    between atoms: C_1  and  N_2
REMARK    2  A    between atoms: C_6  and  S_7
REMARK    3  A    between atoms: S_7  and  C_8
REMARK    4  A    between atoms: C_8  and  C_9
REMARK    5  A    between atoms: CA_10  and  C_11
REMARK    6  A    between atoms: CA_17  and  N_18
REMARK    7  A    between atoms: N_18  and  C_19
REMARK    8  A    between atoms: N_22  and  C_23
REMARK    9  A    between atoms: C_23  and  C_24
REMARK                            x       y       z     vdW  Elec       q    Type
REMARK                         _______ _______ _______ _____ _____    ______ ____
ROOT
ATOM      1  C   UNL     1       4.309   4.604  17.338  0.00  0.00    +0.000 C 
ATOM      2  CA  UNL     1       3.669   4.077  18.421  0.00  0.00    +0.000 C 
ATOM      3  N   UNL     1       2.819   4.874  19.142  0.00  0.00    +0.000 N 
ATOM      4  C   UNL     1       2.442   4.938  20.433  0.00  0.00    +0.000 C 
ATOM      5  O   UNL     1       2.746   4.349  21.447  0.00  0.00    +0.000 OA
ATOM      6  CA  UNL     1       1.601   6.226  20.131  0.00  0.00    +0.000 C 
ATOM      7  C   UNL     1       2.149   6.048  18.666  0.00  0.00    +0.000 C 
ATOM      8  S   UNL     1       3.405   7.214  18.085  0.00  0.00    +0.000 S 
ATOM      9  C   UNL     1       4.168   6.052  16.895  0.00  0.00    +0.000 C 
ENDROOT
BRANCH   2  10
ATOM     10  C   UNL     1       3.818   2.560  18.885  0.00  0.00    +0.000 C 
ATOM     11  O   UNL     1       4.730   2.319  19.722  0.00  0.00    +0.000 OA
ATOM     12  OXT UNL     1       3.024   1.766  18.290  0.00  0.00    +0.000 OA
ENDBRANCH   2  10
BRANCH   6  13
ATOM     13  N   UNL     1       1.960   7.454  20.843  0.00  0.00    +0.000 N 
ATOM     14  H   UNL     1       2.954   7.545  21.033  0.00  0.00    +0.000 HD
BRANCH  13  15
ATOM     15  C   UNL     1       1.147   8.576  21.065  0.00  0.00    +0.000 A 
ATOM     16  C   UNL     1       0.691   8.930  22.332  0.00  0.00    +0.000 A 
ATOM     17  C   UNL     1      -0.010  10.113  22.535  0.00  0.00    +0.000 A 
ATOM     18  N   UNL     1      -0.287  10.935  21.501  0.00  0.00    +0.000 N 
ATOM     19  C   UNL     1       0.169  10.642  20.261  0.00  0.00    +0.000 A 
ATOM     20  C   UNL     1       0.885   9.466  20.025  0.00  0.00    +0.000 A 
BRANCH  18  21
ATOM     21  C   UNL     1      -1.149  12.122  21.719  0.00  0.00    +0.000 C 
BRANCH  21  22
ATOM     22  C   UNL     1      -0.367  13.381  21.819  0.00  0.00    +0.000 A 
ATOM     23  C   UNL     1      -0.724  14.705  21.975  0.00  0.00    +0.000 A 
ATOM     24  C   UNL     1       0.478  15.451  21.899  0.00  0.00    +0.000 A 
ATOM     25  C   UNL     1       1.487  14.535  21.718  0.00  0.00    +0.000 A 
ATOM     26  O   UNL     1       0.983  13.273  21.666  0.00  0.00    +0.000 OA
ENDBRANCH  21  22
ENDBRANCH  18  21
ENDBRANCH  13  15
ENDBRANCH   6  13
BRANCH   1  27
ATOM     27  C   UNL     1       5.347   3.831  16.528  0.00  0.00    +0.000 C 
BRANCH  27  28
ATOM     28  S   UNL     1       6.741   4.864  15.993  0.00  0.00    +0.000 S 
BRANCH  28  34
ATOM     29  C   UNL     1       7.468   7.836  17.364  0.00  0.00    +0.000 C 
ATOM     30  N   UNL     1       7.649   6.555  17.986  0.00  0.00    +0.000 N 
ATOM     31  N   UNL     1       8.119   6.487  19.252  0.00  0.00    +0.000 NA
ATOM     32  N   UNL     1       8.182   5.194  19.534  0.00  0.00    +0.000 NA
ATOM     33  N   UNL     1       7.766   4.434  18.466  0.00  0.00    +0.000 NA
ATOM     34  C   UNL     1       7.434   5.286  17.521  0.00  0.00    +0.000 A 
ENDBRANCH  28  34
ENDBRANCH  27  28
ENDBRANCH   1  27
TORSDOF 8
ENDMDL
MODEL 5
REMARK VINA RESULT:      -7.7      3.573     10.651
REMARK  Name = 
REMARK  9 active torsions:
REMARK  status: ('A' for Active; 'I' for Inactive)
REMARK    1  A    between atoms: C_1  and  N_2
REMARK    2  A    between atoms: C_6  and  S_7
REMARK    3  A    between atoms: S_7  and  C_8
REMARK    4  A    between atoms: C_8  and  C_9
REMARK    5  A    between atoms: CA_10  and  C_11
REMARK    6  A    between atoms: CA_17  and  N_18
REMARK    7  A    between atoms: N_18  and  C_19
REMARK    8  A    between atoms: N_22  and  C_23
REMARK    9  A    between atoms: C_23  and  C_24
REMARK                            x       y       z     vdW  Elec       q    Type
REMARK                         _______ _______ _______ _____ _____    ______ ____
ROOT
ATOM      1  C   UNL     1      -1.847  12.219  20.581  0.00  0.00    +0.000 C 
ATOM      2  CA  UNL     1      -1.170  11.881  21.716  0.00  0.00    +0.000 C 
ATOM      3  N   UNL     1      -0.248  10.870  21.660  0.00  0.00    +0.000 N 
ATOM      4  C   UNL     1       0.203   9.945  22.530  0.00  0.00    +0.000 C 
ATOM      5  O   UNL     1      -0.068   9.633  23.668  0.00  0.00    +0.000 OA
ATOM      6  CA  UNL     1       1.081   9.302  21.402  0.00  0.00    +0.000 C 
ATOM      7  C   UNL     1       0.444  10.416  20.490  0.00  0.00    +0.000 C 
ATOM      8  S   UNL     1      -0.791   9.906  19.270  0.00  0.00    +0.000 S 
ATOM      9  C   UNL     1      -1.669  11.512  19.248  0.00  0.00    +0.000 C 
ENDROOT
BRANCH   2  10
ATOM     10  C   UNL     1      -1.358  12.622  23.114  0.00  0.00    +0.000 C 
ATOM     11  O   UNL     1      -0.472  13.465  23.422  0.00  0.00    +0.000 OA
ATOM     12  OXT UNL     1      -2.361  12.211  23.776  0.00  0.00    +0.000 OA
ENDBRANCH   2  10
BRANCH   6  13
ATOM     13  N   UNL     1       0.817   7.906  21.049  0.00  0.00    +0.000 N 
ATOM     14  H   UNL     1      -0.165   7.646  21.101  0.00  0.00    +0.000 HD
BRANCH  13  15
ATOM     15  C   UNL     1       1.701   7.000  20.444  0.00  0.00    +0.000 A 
ATOM     16  C   UNL     1       1.807   5.673  20.852  0.00  0.00    +0.000 A 
ATOM     17  C   UNL     1       2.602   4.771  20.154  0.00  0.00    +0.000 A 
ATOM     18  N   UNL     1       3.311   5.170  19.077  0.00  0.00    +0.000 N 
ATOM     19  C   UNL     1       3.207   6.442  18.630  0.00  0.00    +0.000 A 
ATOM     20  C   UNL     1       2.409   7.371  19.302  0.00  0.00    +0.000 A 
BRANCH  18  21
ATOM     21  C   UNL     1       4.253   4.225  18.430  0.00  0.00    +0.000 C 
BRANCH  21  22
ATOM     22  C   UNL     1       5.625   4.783  18.310  0.00  0.00    +0.000 A 
ATOM     23  C   UNL     1       6.515   5.309  19.224  0.00  0.00    +0.000 A 
ATOM     24  C   UNL     1       7.628   5.767  18.475  0.00  0.00    +0.000 A 
ATOM     25  C   UNL     1       7.351   5.477  17.160  0.00  0.00    +0.000 A 
ATOM     26  O   UNL     1       6.133   4.880  17.048  0.00  0.00    +0.000 OA
ENDBRANCH  21  22
ENDBRANCH  18  21
ENDBRANCH  13  15
ENDBRANCH   6  13
BRANCH   1  27
ATOM     27  C   UNL     1      -2.962  13.263  20.558  0.00  0.00    +0.000 C 
BRANCH  27  28
ATOM     28  S   UNL     1      -4.458  12.684  19.708  0.00  0.00    +0.000 S 
BRANCH  28  34
ATOM     29  C   UNL     1      -7.477  11.243  19.927  0.00  0.00    +0.000 C 
ATOM     30  N   UNL     1      -6.720  11.781  21.020  0.00  0.00    +0.000 N 
ATOM     31  N   UNL     1      -7.209  11.693  22.279  0.00  0.00    +0.000 NA
ATOM     32  N   UNL     1      -6.302  12.277  23.048  0.00  0.00    +0.000 NA
ATOM     33  N   UNL     1      -5.245  12.743  22.302  0.00  0.00    +0.000 NA
ATOM     34  C   UNL     1      -5.513  12.424  21.055  0.00  0.00    +0.000 A 
ENDBRANCH  28  34
ENDBRANCH  27  28
ENDBRANCH   1  27
TORSDOF 8
ENDMDL
MODEL 6
REMARK VINA RESULT:      -7.7      2.459      3.280
REMARK  Name = 
REMARK  9 active torsions:
REMARK  status: ('A' for Active; 'I' for Inactive)
REMARK    1  A    between atoms: C_1  and  N_2
REMARK    2  A    between atoms: C_6  and  S_7
REMARK    3  A    between atoms: S_7  and  C_8
REMARK    4  A    between atoms: C_8  and  C_9
REMARK    5  A    between atoms: CA_10  and  C_11
REMARK    6  A    between atoms: CA_17  and  N_18
REMARK    7  A    between atoms: N_18  and  C_19
REMARK    8  A    between atoms: N_22  and  C_23
REMARK    9  A    between atoms: C_23  and  C_24
REMARK                            x       y       z     vdW  Elec       q    Type
REMARK                         _______ _______ _______ _____ _____    ______ ____
ROOT
ATOM      1  C   UNL     1       4.654   4.845  17.678  0.00  0.00    +0.000 C 
ATOM      2  CA  UNL     1       3.896   4.275  18.659  0.00  0.00    +0.000 C 
ATOM      3  N   UNL     1       2.922   5.024  19.262  0.00  0.00    +0.000 N 
ATOM      4  C   UNL     1       2.370   5.054  20.490  0.00  0.00    +0.000 C 
ATOM      5  O   UNL     1       2.558   4.465  21.531  0.00  0.00    +0.000 OA
ATOM      6  CA  UNL     1       1.521   6.308  20.086  0.00  0.00    +0.000 C 
ATOM      7  C   UNL     1       2.271   6.175  18.709  0.00  0.00    +0.000 C 
ATOM      8  S   UNL     1       3.541   7.403  18.314  0.00  0.00    +0.000 S 
ATOM      9  C   UNL     1       4.510   6.291  17.231  0.00  0.00    +0.000 C 
ENDROOT
BRANCH   2  10
ATOM     10  C   UNL     1       4.049   2.759  19.127  0.00  0.00    +0.000 C 
ATOM     11  O   UNL     1       4.887   2.540  20.043  0.00  0.00    +0.000 OA
ATOM     12  OXT UNL     1       3.338   1.947  18.457  0.00  0.00    +0.000 OA
ENDBRANCH   2  10
BRANCH   6  13
ATOM     13  N   UNL     1       1.723   7.541  20.850  0.00  0.00    +0.000 N 
ATOM     14  H   UNL     1       2.616   7.583  21.335  0.00  0.00    +0.000 HD
BRANCH  13  15
ATOM     15  C   UNL     1       0.956   8.714  20.789  0.00  0.00    +0.000 A 
ATOM     16  C   UNL     1       0.145   9.132  21.841  0.00  0.00    +0.000 A 
ATOM     17  C   UNL     1      -0.506  10.360  21.798  0.00  0.00    +0.000 A 
ATOM     18  N   UNL     1      -0.386  11.164  20.721  0.00  0.00    +0.000 N 
ATOM     19  C   UNL     1       0.420  10.808  19.695  0.00  0.00    +0.000 A 
ATOM     20  C   UNL     1       1.097   9.586  19.711  0.00  0.00    +0.000 A 
BRANCH  18  21
ATOM     21  C   UNL     1      -1.194  12.405  20.641  0.00  0.00    +0.000 C 
BRANCH  21  22
ATOM     22  C   UNL     1      -2.445  12.219  19.862  0.00  0.00    +0.000 A 
ATOM     23  C   UNL     1      -3.766  12.540  20.103  0.00  0.00    +0.000 A 
ATOM     24  C   UNL     1      -4.507  12.011  19.017  0.00  0.00    +0.000 A 
ATOM     25  C   UNL     1      -3.592  11.418  18.180  0.00  0.00    +0.000 A 
ATOM     26  O   UNL     1      -2.334  11.538  18.686  0.00  0.00    +0.000 OA
ENDBRANCH  21  22
ENDBRANCH  18  21
ENDBRANCH  13  15
ENDBRANCH   6  13
BRANCH   1  27
ATOM     27  C   UNL     1       5.827   4.129  17.011  0.00  0.00    +0.000 C 
BRANCH  27  28
ATOM     28  S   UNL     1       5.412   3.461  15.374  0.00  0.00    +0.000 S 
BRANCH  28  34
ATOM     29  C   UNL     1       6.101   3.248  12.100  0.00  0.00    +0.000 C 
ATOM     30  N   UNL     1       6.748   4.116  13.041  0.00  0.00    +0.000 N 
ATOM     31  N   UNL     1       7.705   4.971  12.614  0.00  0.00    +0.000 NA
ATOM     32  N   UNL     1       8.108   5.617  13.698  0.00  0.00    +0.000 NA
ATOM     33  N   UNL     1       7.430   5.184  14.812  0.00  0.00    +0.000 NA
ATOM     34  C   UNL     1       6.589   4.264  14.392  0.00  0.00    +0.000 A 
ENDBRANCH  28  34
ENDBRANCH  27  28
ENDBRANCH   1  27
TORSDOF 8
ENDMDL
MODEL 7
REMARK VINA RESULT:      -7.6      1.206      1.885
REMARK  Name = 
REMARK  9 active torsions:
REMARK  status: ('A' for Active; 'I' for Inactive)
REMARK    1  A    between atoms: C_1  and  N_2
REMARK    2  A    between atoms: C_6  and  S_7
REMARK    3  A    between atoms: S_7  and  C_8
REMARK    4  A    between atoms: C_8  and  C_9
REMARK    5  A    between atoms: CA_10  and  C_11
REMARK    6  A    between atoms: CA_17  and  N_18
REMARK    7  A    between atoms: N_18  and  C_19
REMARK    8  A    between atoms: N_22  and  C_23
REMARK    9  A    between atoms: C_23  and  C_24
REMARK                            x       y       z     vdW  Elec       q    Type
REMARK                         _______ _______ _______ _____ _____    ______ ____
ROOT
ATOM      1  C   UNL     1       4.168   4.605  17.473  0.00  0.00    +0.000 C 
ATOM      2  CA  UNL     1       3.459   4.080  18.514  0.00  0.00    +0.000 C 
ATOM      3  N   UNL     1       2.630   4.901  19.231  0.00  0.00    +0.000 N 
ATOM      4  C   UNL     1       2.209   4.944  20.510  0.00  0.00    +0.000 C 
ATOM      5  O   UNL     1       2.440   4.304  21.512  0.00  0.00    +0.000 OA
ATOM      6  CA  UNL     1       1.455   6.288  20.224  0.00  0.00    +0.000 C 
ATOM      7  C   UNL     1       2.047   6.127  18.774  0.00  0.00    +0.000 C 
ATOM      8  S   UNL     1       3.389   7.237  18.280  0.00  0.00    +0.000 S 
ATOM      9  C   UNL     1       4.127   6.072  17.077  0.00  0.00    +0.000 C 
ENDROOT
BRANCH   2  10
ATOM     10  C   UNL     1       3.503   2.542  18.928  0.00  0.00    +0.000 C 
ATOM     11  O   UNL     1       4.396   2.212  19.755  0.00  0.00    +0.000 OA
ATOM     12  OXT UNL     1       2.657   1.824  18.310  0.00  0.00    +0.000 OA
ENDBRANCH   2  10
BRANCH   6  13
ATOM     13  N   UNL     1       1.857   7.468  20.992  0.00  0.00    +0.000 N 
ATOM     14  H   UNL     1       2.742   7.361  21.480  0.00  0.00    +0.000 HD
BRANCH  13  15
ATOM     15  C   UNL     1       1.295   8.753  20.932  0.00  0.00    +0.000 A 
ATOM     16  C   UNL     1       1.010   9.388  19.726  0.00  0.00    +0.000 A 
ATOM     17  C   UNL     1       0.342  10.608  19.701  0.00  0.00    +0.000 A 
ATOM     18  N   UNL     1      -0.021  11.216  20.850  0.00  0.00    +0.000 N 
ATOM     19  C   UNL     1       0.209  10.615  22.039  0.00  0.00    +0.000 A 
ATOM     20  C   UNL     1       0.867   9.384  22.098  0.00  0.00    +0.000 A 
BRANCH  18  21
ATOM     21  C   UNL     1      -0.611  12.576  20.802  0.00  0.00    +0.000 C 
BRANCH  21  22
ATOM     22  C   UNL     1      -2.092  12.550  20.687  0.00  0.00    +0.000 A 
ATOM     23  C   UNL     1      -3.114  12.681  21.606  0.00  0.00    +0.000 A 
ATOM     24  C   UNL     1      -4.318  12.464  20.892  0.00  0.00    +0.000 A 
ATOM     25  C   UNL     1      -3.954  12.231  19.586  0.00  0.00    +0.000 A 
ATOM     26  O   UNL     1      -2.601  12.280  19.452  0.00  0.00    +0.000 OA
ENDBRANCH  21  22
ENDBRANCH  18  21
ENDBRANCH  13  15
ENDBRANCH   6  13
BRANCH   1  27
ATOM     27  C   UNL     1       5.190   3.799  16.674  0.00  0.00    +0.000 C 
BRANCH  27  28
ATOM     28  S   UNL     1       6.554   4.816  16.039  0.00  0.00    +0.000 S 
BRANCH  28  34
ATOM     29  C   UNL     1       7.422   7.798  17.302  0.00  0.00    +0.000 C 
ATOM     30  N   UNL     1       7.611   6.527  17.939  0.00  0.00    +0.000 N 
ATOM     31  N   UNL     1       8.152   6.474  19.178  0.00  0.00    +0.000 NA
ATOM     32  N   UNL     1       8.204   5.186  19.483  0.00  0.00    +0.000 NA
ATOM     33  N   UNL     1       7.711   4.414  18.458  0.00  0.00    +0.000 NA
ATOM     34  C   UNL     1       7.343   5.254  17.515  0.00  0.00    +0.000 A 
ENDBRANCH  28  34
ENDBRANCH  27  28
ENDBRANCH   1  27
TORSDOF 8
ENDMDL
MODEL 8
REMARK VINA RESULT:      -7.6      3.640     11.048
REMARK  Name = 
REMARK  9 active torsions:
REMARK  status: ('A' for Active; 'I' for Inactive)
REMARK    1  A    between atoms: C_1  and  N_2
REMARK    2  A    between atoms: C_6  and  S_7
REMARK    3  A    between atoms: S_7  and  C_8
REMARK    4  A    between atoms: C_8  and  C_9
REMARK    5  A    between atoms: CA_10  and  C_11
REMARK    6  A    between atoms: CA_17  and  N_18
REMARK    7  A    between atoms: N_18  and  C_19
REMARK    8  A    between atoms: N_22  and  C_23
REMARK    9  A    between atoms: C_23  and  C_24
REMARK                            x       y       z     vdW  Elec       q    Type
REMARK                         _______ _______ _______ _____ _____    ______ ____
ROOT
ATOM      1  C   UNL     1      -2.055  12.909  20.327  0.00  0.00    +0.000 C 
ATOM      2  CA  UNL     1      -0.926  12.621  21.036  0.00  0.00    +0.000 C 
ATOM      3  N   UNL     1       0.013  11.793  20.479  0.00  0.00    +0.000 N 
ATOM      4  C   UNL     1       0.906  10.908  20.961  0.00  0.00    +0.000 C 
ATOM      5  O   UNL     1       1.183  10.479  22.059  0.00  0.00    +0.000 OA
ATOM      6  CA  UNL     1       1.305  10.504  19.500  0.00  0.00    +0.000 C 
ATOM      7  C   UNL     1       0.202  11.545  19.080  0.00  0.00    +0.000 C 
ATOM      8  S   UNL     1      -1.352  10.907  18.407  0.00  0.00    +0.000 S 
ATOM      9  C   UNL     1      -2.362  12.332  18.955  0.00  0.00    +0.000 C 
ENDROOT
BRANCH   2  10
ATOM     10  C   UNL     1      -0.605  13.225  22.475  0.00  0.00    +0.000 C 
ATOM     11  O   UNL     1       0.110  14.264  22.497  0.00  0.00    +0.000 OA
ATOM     12  OXT UNL     1      -1.067  12.530  23.432  0.00  0.00    +0.000 OA
ENDBRANCH   2  10
BRANCH   6  13
ATOM     13  N   UNL     1       1.104   9.109  19.103  0.00  0.00    +0.000 N 
ATOM     14  H   UNL     1       0.162   8.903  18.781  0.00  0.00    +0.000 HD
BRANCH  13  15
ATOM     15  C   UNL     1       2.091   8.132  18.901  0.00  0.00    +0.000 A 
ATOM     16  C   UNL     1       2.226   7.022  19.731  0.00  0.00    +0.000 A 
ATOM     17  C   UNL     1       3.133   6.012  19.432  0.00  0.00    +0.000 A 
ATOM     18  N   UNL     1       3.925   6.098  18.343  0.00  0.00    +0.000 N 
ATOM     19  C   UNL     1       3.800   7.145  17.495  0.00  0.00    +0.000 A 
ATOM     20  C   UNL     1       2.890   8.171  17.760  0.00  0.00    +0.000 A 
BRANCH  18  21
ATOM     21  C   UNL     1       4.976   5.076  18.119  0.00  0.00    +0.000 C 
BRANCH  21  22
ATOM     22  C   UNL     1       4.507   3.701  18.429  0.00  0.00    +0.000 A 
ATOM     23  C   UNL     1       3.655   2.826  17.786  0.00  0.00    +0.000 A 
ATOM     24  C   UNL     1       3.530   1.699  18.635  0.00  0.00    +0.000 A 
ATOM     25  C   UNL     1       4.324   1.953  19.729  0.00  0.00    +0.000 A 
ATOM     26  O   UNL     1       4.921   3.170  19.614  0.00  0.00    +0.000 OA
ENDBRANCH  21  22
ENDBRANCH  18  21
ENDBRANCH  13  15
ENDBRANCH   6  13
BRANCH   1  27
ATOM     27  C   UNL     1      -3.204  13.740  20.895  0.00  0.00    +0.000 C 
BRANCH  27  28
ATOM     28  S   UNL     1      -4.819  12.928  20.724  0.00  0.00    +0.000 S 
BRANCH  28  34
ATOM     29  C   UNL     1      -7.685  13.603  22.325  0.00  0.00    +0.000 C 
ATOM     30  N   UNL     1      -6.504  13.041  22.915  0.00  0.00    +0.000 N 
ATOM     31  N   UNL     1      -6.507  12.703  24.224  0.00  0.00    +0.000 NA
ATOM     32  N   UNL     1      -5.293  12.230  24.467  0.00  0.00    +0.000 NA
ATOM     33  N   UNL     1      -4.513  12.266  23.336  0.00  0.00    +0.000 NA
ATOM     34  C   UNL     1      -5.274  12.763  22.385  0.00  0.00    +0.000 A 
ENDBRANCH  28  34
ENDBRANCH  27  28
ENDBRANCH   1  27
TORSDOF 8
ENDMDL
MODEL 9
REMARK VINA RESULT:      -7.6      2.043      2.716
REMARK  Name = 
REMARK  9 active torsions:
REMARK  status: ('A' for Active; 'I' for Inactive)
REMARK    1  A    between atoms: C_1  and  N_2
REMARK    2  A    between atoms: C_6  and  S_7
REMARK    3  A    between atoms: S_7  and  C_8
REMARK    4  A    between atoms: C_8  and  C_9
REMARK    5  A    between atoms: CA_10  and  C_11
REMARK    6  A    between atoms: CA_17  and  N_18
REMARK    7  A    between atoms: N_18  and  C_19
REMARK    8  A    between atoms: N_22  and  C_23
REMARK    9  A    between atoms: C_23  and  C_24
REMARK                            x       y       z     vdW  Elec       q    Type
REMARK                         _______ _______ _______ _____ _____    ______ ____
ROOT
ATOM      1  C   UNL     1       4.635   4.928  17.789  0.00  0.00    +0.000 C 
ATOM      2  CA  UNL     1       3.896   4.301  18.750  0.00  0.00    +0.000 C 
ATOM      3  N   UNL     1       2.921   5.008  19.402  0.00  0.00    +0.000 N 
ATOM      4  C   UNL     1       2.384   4.970  20.636  0.00  0.00    +0.000 C 
ATOM      5  O   UNL     1       2.593   4.332  21.644  0.00  0.00    +0.000 OA
ATOM      6  CA  UNL     1       1.517   6.233  20.305  0.00  0.00    +0.000 C 
ATOM      7  C   UNL     1       2.251   6.177  18.914  0.00  0.00    +0.000 C 
ATOM      8  S   UNL     1       3.502   7.437  18.566  0.00  0.00    +0.000 S 
ATOM      9  C   UNL     1       4.469   6.392  17.417  0.00  0.00    +0.000 C 
ENDROOT
BRANCH   2  10
ATOM     10  C   UNL     1       4.071   2.766  19.140  0.00  0.00    +0.000 C 
ATOM     11  O   UNL     1       4.895   2.515  20.062  0.00  0.00    +0.000 OA
ATOM     12  OXT UNL     1       3.393   1.976  18.412  0.00  0.00    +0.000 OA
ENDBRANCH   2  10
BRANCH   6  13
ATOM     13  N   UNL     1       1.715   7.428  21.127  0.00  0.00    +0.000 N 
ATOM     14  H   UNL     1       2.648   7.507  21.522  0.00  0.00    +0.000 HD
BRANCH  13  15
ATOM     15  C   UNL     1       0.869   8.543  21.224  0.00  0.00    +0.000 A 
ATOM     16  C   UNL     1       0.472   9.076  22.449  0.00  0.00    +0.000 A 
ATOM     17  C   UNL     1      -0.266  10.252  22.511  0.00  0.00    +0.000 A 
ATOM     18  N   UNL     1      -0.638  10.891  21.381  0.00  0.00    +0.000 N 
ATOM     19  C   UNL     1      -0.243  10.423  20.176  0.00  0.00    +0.000 A 
ATOM     20  C   UNL     1       0.509   9.250  20.079  0.00  0.00    +0.000 A 
BRANCH  18  21
ATOM     21  C   UNL     1      -1.536  12.068  21.468  0.00  0.00    +0.000 C 
BRANCH  21  22
ATOM     22  C   UNL     1      -0.840  13.279  21.974  0.00  0.00    +0.000 A 
ATOM     23  C   UNL     1      -1.194  14.269  22.868  0.00  0.00    +0.000 A 
ATOM     24  C   UNL     1      -0.135  15.210  22.856  0.00  0.00    +0.000 A 
ATOM     25  C   UNL     1       0.799  14.727  21.971  0.00  0.00    +0.000 A 
ATOM     26  O   UNL     1       0.379  13.552  21.427  0.00  0.00    +0.000 OA
ENDBRANCH  21  22
ENDBRANCH  18  21
ENDBRANCH  13  15
ENDBRANCH   6  13
BRANCH   1  27
ATOM     27  C   UNL     1       5.807   4.259  17.074  0.00  0.00    +0.000 C 
BRANCH  27  28
ATOM     28  S   UNL     1       5.350   3.565  15.460  0.00  0.00    +0.000 S 
BRANCH  28  34
ATOM     29  C   UNL     1       5.970   3.271  12.178  0.00  0.00    +0.000 C 
ATOM     30  N   UNL     1       6.665   4.131  13.092  0.00  0.00    +0.000 N 
ATOM     31  N   UNL     1       7.644   4.943  12.632  0.00  0.00    +0.000 NA
ATOM     32  N   UNL     1       8.091   5.592  13.697  0.00  0.00    +0.000 NA
ATOM     33  N   UNL     1       7.418   5.204  14.831  0.00  0.00    +0.000 NA
ATOM     34  C   UNL     1       6.537   4.307  14.442  0.00  0.00    +0.000 A 
ENDBRANCH  28  34
ENDBRANCH  27  28
ENDBRANCH   1  27
TORSDOF 8
ENDMDL
