MODEL 1
REMARK VINA RESULT:      -7.8      0.000      0.000
REMARK  Name = 
REMARK  4 active torsions:
REMARK  status: ('A' for Active; 'I' for Inactive)
REMARK    1  A    between atoms: C_2  and  C_22
REMARK    2  A    between atoms: N_3  and  C_4
REMARK    3  A    between atoms: C_6  and  C_7
REMARK    4  A    between atoms: C_15  and  N_16
REMARK                            x       y       z     vdW  Elec       q    Type
REMARK                         _______ _______ _______ _____ _____    ______ ____
ROOT
ATOM      1  C   UNL     1       0.603  11.274  20.158  0.00  0.00    +0.000 A 
ATOM      2  C   UNL     1       1.287  10.116  19.741  0.00  0.00    +0.000 A 
ATOM      3  C   UNL     1       1.075   8.863  20.336  0.00  0.00    +0.000 A 
ATOM      4  C   UNL     1       0.149   8.818  21.382  0.00  0.00    +0.000 A 
ATOM      5  C   UNL     1      -0.556   9.965  21.782  0.00  0.00    +0.000 A 
ATOM      6  C   UNL     1      -0.377  11.223  21.176  0.00  0.00    +0.000 A 
ENDROOT
BRANCH   6   7
ATOM      7  N   UNL     1      -1.168  12.290  21.558  0.00  0.00    +0.000 N 
ATOM      8  C   UNL     1      -2.374  12.691  20.819  0.00  0.00    +0.000 C 
ATOM      9  C   UNL     1      -3.531  12.914  21.820  0.00  0.00    +0.000 C 
ATOM     10  N   UNL     1      -3.219  13.871  22.907  0.00  0.00    +0.000 NA
ATOM     11  C   UNL     1      -1.956  13.468  23.564  0.00  0.00    +0.000 C 
ATOM     12  C   UNL     1      -0.780  13.268  22.580  0.00  0.00    +0.000 C 
ATOM     13  H   UNL     1      -3.967  13.817  23.597  0.00  0.00    +0.000 HD
ENDBRANCH   6   7
BRANCH   3  14
ATOM     14  C   UNL     1       1.786   7.655  19.856  0.00  0.00    +0.000 A 
ATOM     15  C   UNL     1       1.814   6.461  20.597  0.00  0.00    +0.000 A 
ATOM     16  C   UNL     1       2.476   5.323  20.119  0.00  0.00    +0.000 A 
ATOM     17  C   UNL     1       3.136   5.361  18.894  0.00  0.00    +0.000 A 
ATOM     18  C   UNL     1       3.129   6.530  18.143  0.00  0.00    +0.000 A 
ATOM     19  C   UNL     1       2.455   7.658  18.617  0.00  0.00    +0.000 A 
ENDBRANCH   3  14
BRANCH   1  22
ATOM     20  O   UNL     1       2.414  13.300  21.080  0.00  0.00    +0.000 OA
ATOM     21  C   UNL     1       1.868  13.366  19.987  0.00  0.00    +0.000 C 
ATOM     22  N   UNL     1       0.948  12.461  19.467  0.00  0.00    +0.000 N 
ATOM     23  H   UNL     1       1.024  12.359  18.461  0.00  0.00    +0.000 HD
BRANCH  21  24
ATOM     24  C   UNL     1       2.205  14.463  19.021  0.00  0.00    +0.000 A 
ATOM     25  C   UNL     1       3.492  14.416  18.449  0.00  0.00    +0.000 A 
ATOM     26  C   UNL     1       3.935  15.447  17.629  0.00  0.00    +0.000 A 
ATOM     27  C   UNL     1       3.119  16.552  17.417  0.00  0.00    +0.000 A 
ATOM     28  C   UNL     1       1.835  16.627  17.981  0.00  0.00    +0.000 A 
ATOM     29  C   UNL     1       1.064  17.784  17.799  0.00  0.00    +0.000 A 
ATOM     30  C   UNL     1      -0.231  17.875  18.304  0.00  0.00    +0.000 A 
ATOM     31  C   UNL     1      -0.785  16.787  18.966  0.00  0.00    +0.000 A 
ATOM     32  C   UNL     1      -0.016  15.641  19.194  0.00  0.00    +0.000 A 
ATOM     33  C   UNL     1       1.327  15.546  18.752  0.00  0.00    +0.000 A 
ENDBRANCH  21  24
ENDBRANCH   1  22
TORSDOF 4
ENDMDL
MODEL 2
REMARK VINA RESULT:      -7.7      1.317      2.636
REMARK  Name = 
REMARK  4 active torsions:
REMARK  status: ('A' for Active; 'I' for Inactive)
REMARK    1  A    between atoms: C_2  and  C_22
REMARK    2  A    between atoms: N_3  and  C_4
REMARK    3  A    between atoms: C_6  and  C_7
REMARK    4  A    between atoms: C_15  and  N_16
REMARK                            x       y       z     vdW  Elec       q    Type
REMARK                         _______ _______ _______ _____ _____    ______ ____
ROOT
ATOM      1  C   UNL     1      -0.522  12.316  21.102  0.00  0.00    +0.000 A 
ATOM      2  C   UNL     1       0.208  11.388  20.335  0.00  0.00    +0.000 A 
ATOM      3  C   UNL     1       0.467  10.083  20.781  0.00  0.00    +0.000 A 
ATOM      4  C   UNL     1      -0.032   9.745  22.042  0.00  0.00    +0.000 A 
ATOM      5  C   UNL     1      -0.784  10.658  22.798  0.00  0.00    +0.000 A 
ATOM      6  C   UNL     1      -1.078  11.962  22.353  0.00  0.00    +0.000 A 
ENDROOT
BRANCH   6   7
ATOM      7  N   UNL     1      -1.899  12.778  23.107  0.00  0.00    +0.000 N 
ATOM      8  C   UNL     1      -1.409  13.977  23.800  0.00  0.00    +0.000 C 
ATOM      9  C   UNL     1      -2.369  15.156  23.515  0.00  0.00    +0.000 C 
ATOM     10  N   UNL     1      -3.786  14.879  23.847  0.00  0.00    +0.000 NA
ATOM     11  C   UNL     1      -4.205  13.622  23.191  0.00  0.00    +0.000 C 
ATOM     12  C   UNL     1      -3.271  12.425  23.488  0.00  0.00    +0.000 C 
ATOM     13  H   UNL     1      -4.350  15.639  23.468  0.00  0.00    +0.000 HD
ENDBRANCH   6   7
BRANCH   3  14
ATOM     14  C   UNL     1       1.210   9.117  19.939  0.00  0.00    +0.000 A 
ATOM     15  C   UNL     1       1.680   7.892  20.445  0.00  0.00    +0.000 A 
ATOM     16  C   UNL     1       2.365   6.983  19.629  0.00  0.00    +0.000 A 
ATOM     17  C   UNL     1       2.609   7.287  18.292  0.00  0.00    +0.000 A 
ATOM     18  C   UNL     1       2.161   8.494  17.768  0.00  0.00    +0.000 A 
ATOM     19  C   UNL     1       1.465   9.391  18.581  0.00  0.00    +0.000 A 
ENDBRANCH   3  14
BRANCH   1  22
ATOM     20  O   UNL     1       1.228  14.562  21.465  0.00  0.00    +0.000 OA
ATOM     21  C   UNL     1       0.253  14.611  20.727  0.00  0.00    +0.000 C 
ATOM     22  N   UNL     1      -0.675  13.596  20.515  0.00  0.00    +0.000 N 
ATOM     23  H   UNL     1      -1.038  13.588  19.569  0.00  0.00    +0.000 HD
BRANCH  21  24
ATOM     24  C   UNL     1      -0.018  15.822  19.885  0.00  0.00    +0.000 A 
ATOM     25  C   UNL     1      -1.296  16.400  20.017  0.00  0.00    +0.000 A 
ATOM     26  C   UNL     1      -1.678  17.456  19.198  0.00  0.00    +0.000 A 
ATOM     27  C   UNL     1      -0.810  17.907  18.212  0.00  0.00    +0.000 A 
ATOM     28  C   UNL     1       0.467  17.344  18.054  0.00  0.00    +0.000 A 
ATOM     29  C   UNL     1       1.293  17.779  17.008  0.00  0.00    +0.000 A 
ATOM     30  C   UNL     1       2.582  17.277  16.850  0.00  0.00    +0.000 A 
ATOM     31  C   UNL     1       3.075  16.358  17.766  0.00  0.00    +0.000 A 
ATOM     32  C   UNL     1       2.252  15.881  18.790  0.00  0.00    +0.000 A 
ATOM     33  C   UNL     1       0.913  16.321  18.936  0.00  0.00    +0.000 A 
ENDBRANCH  21  24
ENDBRANCH   1  22
TORSDOF 4
ENDMDL
MODEL 3
REMARK VINA RESULT:      -7.7      1.488      2.878
REMARK  Name = 
REMARK  4 active torsions:
REMARK  status: ('A' for Active; 'I' for Inactive)
REMARK    1  A    between atoms: C_2  and  C_22
REMARK    2  A    between atoms: N_3  and  C_4
REMARK    3  A    between atoms: C_6  and  C_7
REMARK    4  A    between atoms: C_15  and  N_16
REMARK                            x       y       z     vdW  Elec       q    Type
REMARK                         _______ _______ _______ _____ _____    ______ ____
ROOT
ATOM      1  C   UNL     1      -0.903  12.929  20.867  0.00  0.00    +0.000 A 
ATOM      2  C   UNL     1      -0.141  11.955  20.195  0.00  0.00    +0.000 A 
ATOM      3  C   UNL     1       0.090  10.679  20.731  0.00  0.00    +0.000 A 
ATOM      4  C   UNL     1      -0.470  10.420  21.985  0.00  0.00    +0.000 A 
ATOM      5  C   UNL     1      -1.254  11.378  22.647  0.00  0.00    +0.000 A 
ATOM      6  C   UNL     1      -1.521  12.652  22.109  0.00  0.00    +0.000 A 
ENDROOT
BRANCH   6   7
ATOM      7  N   UNL     1      -2.375  13.514  22.771  0.00  0.00    +0.000 N 
ATOM      8  C   UNL     1      -3.803  13.624  22.444  0.00  0.00    +0.000 C 
ATOM      9  C   UNL     1      -4.626  13.586  23.753  0.00  0.00    +0.000 C 
ATOM     10  N   UNL     1      -4.220  14.598  24.756  0.00  0.00    +0.000 NA
ATOM     11  C   UNL     1      -2.762  14.498  24.988  0.00  0.00    +0.000 C 
ATOM     12  C   UNL     1      -1.921  14.562  23.691  0.00  0.00    +0.000 C 
ATOM     13  H   UNL     1      -4.696  14.380  25.631  0.00  0.00    +0.000 HD
ENDBRANCH   6   7
BRANCH   3  14
ATOM     14  C   UNL     1       0.870   9.663  19.987  0.00  0.00    +0.000 A 
ATOM     15  C   UNL     1       1.332   8.482  20.595  0.00  0.00    +0.000 A 
ATOM     16  C   UNL     1       2.051   7.524  19.871  0.00  0.00    +0.000 A 
ATOM     17  C   UNL     1       2.339   7.734  18.525  0.00  0.00    +0.000 A 
ATOM     18  C   UNL     1       1.900   8.895  17.900  0.00  0.00    +0.000 A 
ATOM     19  C   UNL     1       1.169   9.841  18.622  0.00  0.00    +0.000 A 
ENDBRANCH   3  14
BRANCH   1  22
ATOM     20  O   UNL     1       0.660  15.281  21.375  0.00  0.00    +0.000 OA
ATOM     21  C   UNL     1      -0.188  15.244  20.495  0.00  0.00    +0.000 C 
ATOM     22  N   UNL     1      -1.023  14.171  20.197  0.00  0.00    +0.000 N 
ATOM     23  H   UNL     1      -1.233  14.100  19.207  0.00  0.00    +0.000 HD
BRANCH  21  24
ATOM     24  C   UNL     1      -0.380  16.399  19.558  0.00  0.00    +0.000 A 
ATOM     25  C   UNL     1      -1.644  17.021  19.587  0.00  0.00    +0.000 A 
ATOM     26  C   UNL     1      -1.954  18.027  18.679  0.00  0.00    +0.000 A 
ATOM     27  C   UNL     1      -1.026  18.380  17.707  0.00  0.00    +0.000 A 
ATOM     28  C   UNL     1       0.237  17.771  17.651  0.00  0.00    +0.000 A 
ATOM     29  C   UNL     1       1.125  18.107  16.618  0.00  0.00    +0.000 A 
ATOM     30  C   UNL     1       2.403  17.557  16.558  0.00  0.00    +0.000 A 
ATOM     31  C   UNL     1       2.823  16.692  17.560  0.00  0.00    +0.000 A 
ATOM     32  C   UNL     1       1.938  16.313  18.574  0.00  0.00    +0.000 A 
ATOM     33  C   UNL     1       0.609  16.802  18.623  0.00  0.00    +0.000 A 
ENDBRANCH  21  24
ENDBRANCH   1  22
TORSDOF 4
ENDMDL
MODEL 4
REMARK VINA RESULT:      -7.6      0.499      1.056
REMARK  Name = 
REMARK  4 active torsions:
REMARK  status: ('A' for Active; 'I' for Inactive)
REMARK    1  A    between atoms: C_2  and  C_22
REMARK    2  A    between atoms: N_3  and  C_4
REMARK    3  A    between atoms: C_6  and  C_7
REMARK    4  A    between atoms: C_15  and  N_16
REMARK                            x       y       z     vdW  Elec       q    Type
REMARK                         _______ _______ _______ _____ _____    ______ ____
ROOT
ATOM      1  C   UNL     1       0.619  11.267  20.259  0.00  0.00    +0.000 A 
ATOM      2  C   UNL     1       1.278  10.100  19.829  0.00  0.00    +0.000 A 
ATOM      3  C   UNL     1       1.066   8.852  20.434  0.00  0.00    +0.000 A 
ATOM      4  C   UNL     1       0.167   8.821  21.503  0.00  0.00    +0.000 A 
ATOM      5  C   UNL     1      -0.514   9.978  21.917  0.00  0.00    +0.000 A 
ATOM      6  C   UNL     1      -0.335  11.232  21.302  0.00  0.00    +0.000 A 
ENDROOT
BRANCH   6   7
ATOM      7  N   UNL     1      -1.103  12.310  21.700  0.00  0.00    +0.000 N 
ATOM      8  C   UNL     1      -0.725  13.187  22.816  0.00  0.00    +0.000 C 
ATOM      9  C   UNL     1      -0.883  14.662  22.378  0.00  0.00    +0.000 C 
ATOM     10  N   UNL     1      -2.227  14.999  21.855  0.00  0.00    +0.000 NA
ATOM     11  C   UNL     1      -2.594  14.038  20.792  0.00  0.00    +0.000 C 
ATOM     12  C   UNL     1      -2.468  12.558  21.223  0.00  0.00    +0.000 C 
ATOM     13  H   UNL     1      -2.178  15.929  21.440  0.00  0.00    +0.000 HD
ENDBRANCH   6   7
BRANCH   3  14
ATOM     14  C   UNL     1       1.750   7.633  19.940  0.00  0.00    +0.000 A 
ATOM     15  C   UNL     1       1.740   6.427  20.662  0.00  0.00    +0.000 A 
ATOM     16  C   UNL     1       2.376   5.280  20.170  0.00  0.00    +0.000 A 
ATOM     17  C   UNL     1       3.049   5.320  18.952  0.00  0.00    +0.000 A 
ATOM     18  C   UNL     1       3.080   6.501  18.221  0.00  0.00    +0.000 A 
ATOM     19  C   UNL     1       2.431   7.638  18.708  0.00  0.00    +0.000 A 
ENDBRANCH   3  14
BRANCH   1  22
ATOM     20  O   UNL     1       2.441  13.298  21.151  0.00  0.00    +0.000 OA
ATOM     21  C   UNL     1       1.887  13.356  20.062  0.00  0.00    +0.000 C 
ATOM     22  N   UNL     1       0.961  12.448  19.556  0.00  0.00    +0.000 N 
ATOM     23  H   UNL     1       1.029  12.338  18.550  0.00  0.00    +0.000 HD
BRANCH  21  24
ATOM     24  C   UNL     1       2.219  14.443  19.084  0.00  0.00    +0.000 A 
ATOM     25  C   UNL     1       3.510  14.404  18.523  0.00  0.00    +0.000 A 
ATOM     26  C   UNL     1       3.948  15.430  17.692  0.00  0.00    +0.000 A 
ATOM     27  C   UNL     1       3.120  16.522  17.459  0.00  0.00    +0.000 A 
ATOM     28  C   UNL     1       1.832  16.590  18.012  0.00  0.00    +0.000 A 
ATOM     29  C   UNL     1       1.048  17.735  17.809  0.00  0.00    +0.000 A 
ATOM     30  C   UNL     1      -0.251  17.816  18.303  0.00  0.00    +0.000 A 
ATOM     31  C   UNL     1      -0.798  16.731  18.975  0.00  0.00    +0.000 A 
ATOM     32  C   UNL     1      -0.018  15.598  19.223  0.00  0.00    +0.000 A 
ATOM     33  C   UNL     1       1.330  15.512  18.794  0.00  0.00    +0.000 A 
ENDBRANCH  21  24
ENDBRANCH   1  22
TORSDOF 4
ENDMDL
MODEL 5
REMARK VINA RESULT:      -7.4      1.339      2.546
REMARK  Name = 
REMARK  4 active torsions:
REMARK  status: ('A' for Active; 'I' for Inactive)
REMARK    1  A    between atoms: C_2  and  C_22
REMARK    2  A    between atoms: N_3  and  C_4
REMARK    3  A    between atoms: C_6  and  C_7
REMARK    4  A    between atoms: C_15  and  N_16
REMARK                            x       y       z     vdW  Elec       q    Type
REMARK                         _______ _______ _______ _____ _____    ______ ____
ROOT
ATOM      1  C   UNL     1      -0.051  11.934  21.345  0.00  0.00    +0.000 A 
ATOM      2  C   UNL     1       0.644  10.918  20.662  0.00  0.00    +0.000 A 
ATOM      3  C   UNL     1       0.588   9.573  21.057  0.00  0.00    +0.000 A 
ATOM      4  C   UNL     1      -0.191   9.285  22.180  0.00  0.00    +0.000 A 
ATOM      5  C   UNL     1      -0.908  10.291  22.848  0.00  0.00    +0.000 A 
ATOM      6  C   UNL     1      -0.887  11.641  22.447  0.00  0.00    +0.000 A 
ENDROOT
BRANCH   6   7
ATOM      7  N   UNL     1      -1.687  12.564  23.094  0.00  0.00    +0.000 N 
ATOM      8  C   UNL     1      -1.173  13.844  23.600  0.00  0.00    +0.000 C 
ATOM      9  C   UNL     1      -2.131  14.980  23.170  0.00  0.00    +0.000 C 
ATOM     10  N   UNL     1      -3.542  14.767  23.565  0.00  0.00    +0.000 NA
ATOM     11  C   UNL     1      -3.984  13.434  23.102  0.00  0.00    +0.000 C 
ATOM     12  C   UNL     1      -3.053  12.282  23.548  0.00  0.00    +0.000 C 
ATOM     13  H   UNL     1      -4.109  15.471  23.093  0.00  0.00    +0.000 HD
ENDBRANCH   6   7
BRANCH   3  14
ATOM     14  C   UNL     1       1.304   8.519  20.300  0.00  0.00    +0.000 A 
ATOM     15  C   UNL     1       1.557   7.248  20.845  0.00  0.00    +0.000 A 
ATOM     16  C   UNL     1       2.219   6.259  20.108  0.00  0.00    +0.000 A 
ATOM     17  C   UNL     1       2.657   6.526  18.813  0.00  0.00    +0.000 A 
ATOM     18  C   UNL     1       2.426   7.776  18.252  0.00  0.00    +0.000 A 
ATOM     19  C   UNL     1       1.752   8.754  18.985  0.00  0.00    +0.000 A 
ENDBRANCH   3  14
BRANCH   1  22
ATOM     20  O   UNL     1      -1.169  12.958  18.908  0.00  0.00    +0.000 OA
ATOM     21  C   UNL     1      -0.489  13.651  19.651  0.00  0.00    +0.000 C 
ATOM     22  N   UNL     1       0.129  13.241  20.829  0.00  0.00    +0.000 N 
ATOM     23  H   UNL     1       0.163  13.972  21.530  0.00  0.00    +0.000 HD
BRANCH  21  24
ATOM     24  C   UNL     1      -0.293  15.113  19.380  0.00  0.00    +0.000 A 
ATOM     25  C   UNL     1      -1.377  15.955  19.697  0.00  0.00    +0.000 A 
ATOM     26  C   UNL     1      -1.333  17.308  19.379  0.00  0.00    +0.000 A 
ATOM     27  C   UNL     1      -0.232  17.815  18.699  0.00  0.00    +0.000 A 
ATOM     28  C   UNL     1       0.858  16.997  18.364  0.00  0.00    +0.000 A 
ATOM     29  C   UNL     1       1.923  17.527  17.622  0.00  0.00    +0.000 A 
ATOM     30  C   UNL     1       3.041  16.756  17.313  0.00  0.00    +0.000 A 
ATOM     31  C   UNL     1       3.123  15.451  17.781  0.00  0.00    +0.000 A 
ATOM     32  C   UNL     1       2.053  14.892  18.485  0.00  0.00    +0.000 A 
ATOM     33  C   UNL     1       0.873  15.629  18.756  0.00  0.00    +0.000 A 
ENDBRANCH  21  24
ENDBRANCH   1  22
TORSDOF 4
ENDMDL
MODEL 6
REMARK VINA RESULT:      -7.4      4.635      8.219
REMARK  Name = 
REMARK  4 active torsions:
REMARK  status: ('A' for Active; 'I' for Inactive)
REMARK    1  A    between atoms: C_2  and  C_22
REMARK    2  A    between atoms: N_3  and  C_4
REMARK    3  A    between atoms: C_6  and  C_7
REMARK    4  A    between atoms: C_15  and  N_16
REMARK                            x       y       z     vdW  Elec       q    Type
REMARK                         _______ _______ _______ _____ _____    ______ ____
ROOT
ATOM      1  C   UNL     1       3.400   5.209  17.497  0.00  0.00    +0.000 A 
ATOM      2  C   UNL     1       4.205   5.285  16.344  0.00  0.00    +0.000 A 
ATOM      3  C   UNL     1       5.043   4.235  15.942  0.00  0.00    +0.000 A 
ATOM      4  C   UNL     1       5.051   3.098  16.755  0.00  0.00    +0.000 A 
ATOM      5  C   UNL     1       4.230   3.006  17.890  0.00  0.00    +0.000 A 
ATOM      6  C   UNL     1       3.361   4.039  18.291  0.00  0.00    +0.000 A 
ENDROOT
BRANCH   6   7
ATOM      7  N   UNL     1       2.514   3.848  19.366  0.00  0.00    +0.000 N 
ATOM      8  C   UNL     1       1.060   3.696  19.216  0.00  0.00    +0.000 C 
ATOM      9  C   UNL     1       0.587   2.487  20.058  0.00  0.00    +0.000 C 
ATOM     10  N   UNL     1       0.982   2.549  21.484  0.00  0.00    +0.000 NA
ATOM     11  C   UNL     1       2.439   2.784  21.579  0.00  0.00    +0.000 C 
ATOM     12  C   UNL     1       2.925   4.006  20.766  0.00  0.00    +0.000 C 
ATOM     13  H   UNL     1       0.778   1.643  21.905  0.00  0.00    +0.000 HD
ENDBRANCH   6   7
BRANCH   3  14
ATOM     14  C   UNL     1       5.855   4.330  14.707  0.00  0.00    +0.000 A 
ATOM     15  C   UNL     1       7.003   5.138  14.627  0.00  0.00    +0.000 A 
ATOM     16  C   UNL     1       7.769   5.200  13.456  0.00  0.00    +0.000 A 
ATOM     17  C   UNL     1       7.393   4.468  12.334  0.00  0.00    +0.000 A 
ATOM     18  C   UNL     1       6.259   3.666  12.382  0.00  0.00    +0.000 A 
ATOM     19  C   UNL     1       5.507   3.595  13.557  0.00  0.00    +0.000 A 
ENDBRANCH   3  14
BRANCH   1  22
ATOM     20  O   UNL     1       3.677   6.921  19.784  0.00  0.00    +0.000 OA
ATOM     21  C   UNL     1       2.867   7.150  18.897  0.00  0.00    +0.000 C 
ATOM     22  N   UNL     1       2.628   6.364  17.773  0.00  0.00    +0.000 N 
ATOM     23  H   UNL     1       2.379   6.912  16.957  0.00  0.00    +0.000 HD
BRANCH  21  24
ATOM     24  C   UNL     1       2.047   8.405  18.905  0.00  0.00    +0.000 A 
ATOM     25  C   UNL     1       2.177   9.241  17.778  0.00  0.00    +0.000 A 
ATOM     26  C   UNL     1       1.543  10.478  17.743  0.00  0.00    +0.000 A 
ATOM     27  C   UNL     1       0.821  10.908  18.850  0.00  0.00    +0.000 A 
ATOM     28  C   UNL     1       0.682  10.098  19.988  0.00  0.00    +0.000 A 
ATOM     29  C   UNL     1       0.000  10.589  21.111  0.00  0.00    +0.000 A 
ATOM     30  C   UNL     1      -0.197   9.797  22.239  0.00  0.00    +0.000 A 
ATOM     31  C   UNL     1       0.254   8.483  22.239  0.00  0.00    +0.000 A 
ATOM     32  C   UNL     1       0.972   7.990  21.147  0.00  0.00    +0.000 A 
ATOM     33  C   UNL     1       1.248   8.794  20.013  0.00  0.00    +0.000 A 
ENDBRANCH  21  24
ENDBRANCH   1  22
TORSDOF 4
ENDMDL
MODEL 7
REMARK VINA RESULT:      -7.4      4.855      8.781
REMARK  Name = 
REMARK  4 active torsions:
REMARK  status: ('A' for Active; 'I' for Inactive)
REMARK    1  A    between atoms: C_2  and  C_22
REMARK    2  A    between atoms: N_3  and  C_4
REMARK    3  A    between atoms: C_6  and  C_7
REMARK    4  A    between atoms: C_15  and  N_16
REMARK                            x       y       z     vdW  Elec       q    Type
REMARK                         _______ _______ _______ _____ _____    ______ ____
ROOT
ATOM      1  C   UNL     1       4.030   4.520  17.831  0.00  0.00    +0.000 A 
ATOM      2  C   UNL     1       4.795   4.854  16.697  0.00  0.00    +0.000 A 
ATOM      3  C   UNL     1       5.370   3.882  15.865  0.00  0.00    +0.000 A 
ATOM      4  C   UNL     1       5.155   2.549  16.224  0.00  0.00    +0.000 A 
ATOM      5  C   UNL     1       4.370   2.210  17.338  0.00  0.00    +0.000 A 
ATOM      6  C   UNL     1       3.761   3.173  18.166  0.00  0.00    +0.000 A 
ENDROOT
BRANCH   6   7
ATOM      7  N   UNL     1       2.928   2.770  19.192  0.00  0.00    +0.000 N 
ATOM      8  C   UNL     1       3.410   2.521  20.557  0.00  0.00    +0.000 C 
ATOM      9  C   UNL     1       2.469   3.222  21.564  0.00  0.00    +0.000 C 
ATOM     10  N   UNL     1       1.041   2.854  21.418  0.00  0.00    +0.000 NA
ATOM     11  C   UNL     1       0.628   3.046  20.011  0.00  0.00    +0.000 C 
ATOM     12  C   UNL     1       1.543   2.328  18.991  0.00  0.00    +0.000 C 
ATOM     13  H   UNL     1       0.494   3.487  21.999  0.00  0.00    +0.000 HD
ENDBRANCH   6   7
BRANCH   3  14
ATOM     14  C   UNL     1       6.144   4.262  14.660  0.00  0.00    +0.000 A 
ATOM     15  C   UNL     1       7.183   5.207  14.706  0.00  0.00    +0.000 A 
ATOM     16  C   UNL     1       7.915   5.540  13.560  0.00  0.00    +0.000 A 
ATOM     17  C   UNL     1       7.613   4.945  12.338  0.00  0.00    +0.000 A 
ATOM     18  C   UNL     1       6.586   4.012  12.262  0.00  0.00    +0.000 A 
ATOM     19  C   UNL     1       5.868   3.672  13.411  0.00  0.00    +0.000 A 
ENDBRANCH   3  14
BRANCH   1  22
ATOM     20  O   UNL     1       1.400   5.652  17.634  0.00  0.00    +0.000 OA
ATOM     21  C   UNL     1       2.230   6.072  18.429  0.00  0.00    +0.000 C 
ATOM     22  N   UNL     1       3.539   5.621  18.574  0.00  0.00    +0.000 N 
ATOM     23  H   UNL     1       3.866   5.665  19.532  0.00  0.00    +0.000 HD
BRANCH  21  24
ATOM     24  C   UNL     1       1.876   7.137  19.424  0.00  0.00    +0.000 A 
ATOM     25  C   UNL     1       1.510   6.691  20.710  0.00  0.00    +0.000 A 
ATOM     26  C   UNL     1       1.060   7.594  21.666  0.00  0.00    +0.000 A 
ATOM     27  C   UNL     1       0.924   8.936  21.329  0.00  0.00    +0.000 A 
ATOM     28  C   UNL     1       1.275   9.405  20.054  0.00  0.00    +0.000 A 
ATOM     29  C   UNL     1       1.066  10.753  19.728  0.00  0.00    +0.000 A 
ATOM     30  C   UNL     1       1.445  11.263  18.489  0.00  0.00    +0.000 A 
ATOM     31  C   UNL     1       2.079  10.434  17.573  0.00  0.00    +0.000 A 
ATOM     32  C   UNL     1       2.258   9.079  17.863  0.00  0.00    +0.000 A 
ATOM     33  C   UNL     1       1.820   8.515  19.087  0.00  0.00    +0.000 A 
ENDBRANCH  21  24
ENDBRANCH   1  22
TORSDOF 4
ENDMDL
MODEL 8
REMARK VINA RESULT:      -7.2      0.950      1.567
REMARK  Name = 
REMARK  4 active torsions:
REMARK  status: ('A' for Active; 'I' for Inactive)
REMARK    1  A    between atoms: C_2  and  C_22
REMARK    2  A    between atoms: N_3  and  C_4
REMARK    3  A    between atoms: C_6  and  C_7
REMARK    4  A    between atoms: C_15  and  N_16
REMARK                            x       y       z     vdW  Elec       q    Type
REMARK                         _______ _______ _______ _____ _____    ______ ____
ROOT
ATOM      1  C   UNL     1       0.710  11.105  19.943  0.00  0.00    +0.000 A 
ATOM      2  C   UNL     1       1.493  10.079  19.381  0.00  0.00    +0.000 A 
ATOM      3  C   UNL     1       1.412   8.747  19.816  0.00  0.00    +0.000 A 
ATOM      4  C   UNL     1       0.512   8.485  20.853  0.00  0.00    +0.000 A 
ATOM      5  C   UNL     1      -0.292   9.499  21.397  0.00  0.00    +0.000 A 
ATOM      6  C   UNL     1      -0.243  10.834  20.952  0.00  0.00    +0.000 A 
ENDROOT
BRANCH   6   7
ATOM      7  N   UNL     1      -1.126  11.765  21.468  0.00  0.00    +0.000 N 
ATOM      8  C   UNL     1      -1.142  12.143  22.888  0.00  0.00    +0.000 C 
ATOM      9  C   UNL     1      -1.192  13.685  23.001  0.00  0.00    +0.000 C 
ATOM     10  N   UNL     1      -2.310  14.312  22.260  0.00  0.00    +0.000 NA
ATOM     11  C   UNL     1      -2.297  13.836  20.859  0.00  0.00    +0.000 C 
ATOM     12  C   UNL     1      -2.275  12.295  20.728  0.00  0.00    +0.000 C 
ATOM     13  H   UNL     1      -2.156  15.320  22.254  0.00  0.00    +0.000 HD
ENDBRANCH   6   7
BRANCH   3  14
ATOM     14  C   UNL     1       2.226   7.682  19.186  0.00  0.00    +0.000 A 
ATOM     15  C   UNL     1       2.939   7.893  17.993  0.00  0.00    +0.000 A 
ATOM     16  C   UNL     1       3.717   6.880  17.421  0.00  0.00    +0.000 A 
ATOM     17  C   UNL     1       3.787   5.626  18.024  0.00  0.00    +0.000 A 
ATOM     18  C   UNL     1       3.088   5.388  19.200  0.00  0.00    +0.000 A 
ATOM     19  C   UNL     1       2.324   6.407  19.775  0.00  0.00    +0.000 A 
ENDBRANCH   3  14
BRANCH   1  22
ATOM     20  O   UNL     1       2.294  13.184  21.128  0.00  0.00    +0.000 OA
ATOM     21  C   UNL     1       1.747  13.323  20.042  0.00  0.00    +0.000 C 
ATOM     22  N   UNL     1       0.929  12.396  19.404  0.00  0.00    +0.000 N 
ATOM     23  H   UNL     1       1.017  12.424  18.394  0.00  0.00    +0.000 HD
BRANCH  21  24
ATOM     24  C   UNL     1       1.968  14.557  19.219  0.00  0.00    +0.000 A 
ATOM     25  C   UNL     1       2.866  14.434  18.140  0.00  0.00    +0.000 A 
ATOM     26  C   UNL     1       3.219  15.548  17.388  0.00  0.00    +0.000 A 
ATOM     27  C   UNL     1       2.720  16.797  17.740  0.00  0.00    +0.000 A 
ATOM     28  C   UNL     1       1.830  16.949  18.814  0.00  0.00    +0.000 A 
ATOM     29  C   UNL     1       1.396  18.231  19.180  0.00  0.00    +0.000 A 
ATOM     30  C   UNL     1       0.477  18.415  20.211  0.00  0.00    +0.000 A 
ATOM     31  C   UNL     1      -0.051  17.308  20.862  0.00  0.00    +0.000 A 
ATOM     32  C   UNL     1       0.401  16.025  20.539  0.00  0.00    +0.000 A 
ATOM     33  C   UNL     1       1.386  15.811  19.543  0.00  0.00    +0.000 A 
ENDBRANCH  21  24
ENDBRANCH   1  22
TORSDOF 4
ENDMDL
MODEL 9
REMARK VINA RESULT:      -7.2      2.014      4.592
REMARK  Name = 
REMARK  4 active torsions:
REMARK  status: ('A' for Active; 'I' for Inactive)
REMARK    1  A    between atoms: C_2  and  C_22
REMARK    2  A    between atoms: N_3  and  C_4
REMARK    3  A    between atoms: C_6  and  C_7
REMARK    4  A    between atoms: C_15  and  N_16
REMARK                            x       y       z     vdW  Elec       q    Type
REMARK                         _______ _______ _______ _____ _____    ______ ____
ROOT
ATOM      1  C   UNL     1       0.705  10.163  19.861  0.00  0.00    +0.000 A 
ATOM      2  C   UNL     1       1.083   8.838  20.150  0.00  0.00    +0.000 A 
ATOM      3  C   UNL     1       1.893   8.083  19.288  0.00  0.00    +0.000 A 
ATOM      4  C   UNL     1       2.304   8.711  18.110  0.00  0.00    +0.000 A 
ATOM      5  C   UNL     1       1.953  10.042  17.830  0.00  0.00    +0.000 A 
ATOM      6  C   UNL     1       1.166  10.823  18.698  0.00  0.00    +0.000 A 
ENDROOT
BRANCH   6   7
ATOM      7  N   UNL     1       0.932  12.154  18.406  0.00  0.00    +0.000 N 
ATOM      8  C   UNL     1      -0.405  12.677  18.098  0.00  0.00    +0.000 C 
ATOM      9  C   UNL     1      -0.645  13.969  18.914  0.00  0.00    +0.000 C 
ATOM     10  N   UNL     1       0.399  15.005  18.731  0.00  0.00    +0.000 NA
ATOM     11  C   UNL     1       1.729  14.407  18.974  0.00  0.00    +0.000 C 
ATOM     12  C   UNL     1       1.996  13.129  18.144  0.00  0.00    +0.000 C 
ATOM     13  H   UNL     1       0.245  15.731  19.429  0.00  0.00    +0.000 HD
ENDBRANCH   6   7
BRANCH   3  14
ATOM     14  C   UNL     1       2.301   6.701  19.633  0.00  0.00    +0.000 A 
ATOM     15  C   UNL     1       1.601   5.927  20.575  0.00  0.00    +0.000 A 
ATOM     16  C   UNL     1       1.992   4.616  20.873  0.00  0.00    +0.000 A 
ATOM     17  C   UNL     1       3.102   4.056  20.247  0.00  0.00    +0.000 A 
ATOM     18  C   UNL     1       3.816   4.800  19.316  0.00  0.00    +0.000 A 
ATOM     19  C   UNL     1       3.413   6.102  19.010  0.00  0.00    +0.000 A 
ENDBRANCH   3  14
BRANCH   1  22
ATOM     20  O   UNL     1       1.444  12.309  21.619  0.00  0.00    +0.000 OA
ATOM     21  C   UNL     1       0.315  11.839  21.607  0.00  0.00    +0.000 C 
ATOM     22  N   UNL     1      -0.131  10.776  20.826  0.00  0.00    +0.000 N 
ATOM     23  H   UNL     1      -1.100  10.875  20.546  0.00  0.00    +0.000 HD
BRANCH  21  24
ATOM     24  C   UNL     1      -0.779  12.437  22.440  0.00  0.00    +0.000 A 
ATOM     25  C   UNL     1      -1.783  11.551  22.879  0.00  0.00    +0.000 A 
ATOM     26  C   UNL     1      -2.895  12.031  23.562  0.00  0.00    +0.000 A 
ATOM     27  C   UNL     1      -3.036  13.399  23.765  0.00  0.00    +0.000 A 
ATOM     28  C   UNL     1      -2.054  14.304  23.331  0.00  0.00    +0.000 A 
ATOM     29  C   UNL     1      -2.258  15.682  23.496  0.00  0.00    +0.000 A 
ATOM     30  C   UNL     1      -1.286  16.605  23.120  0.00  0.00    +0.000 A 
ATOM     31  C   UNL     1      -0.075  16.154  22.611  0.00  0.00    +0.000 A 
ATOM     32  C   UNL     1       0.130  14.788  22.400  0.00  0.00    +0.000 A 
ATOM     33  C   UNL     1      -0.867  13.829  22.708  0.00  0.00    +0.000 A 
ENDBRANCH  21  24
ENDBRANCH   1  22
TORSDOF 4
ENDMDL
