MODEL 1
REMARK VINA RESULT:      -8.8      0.000      0.000
REMARK  Name = 
REMARK  5 active torsions:
REMARK  status: ('A' for Active; 'I' for Inactive)
REMARK    1  A    between atoms: C_2  and  C_12
REMARK    2  A    between atoms: N_3  and  C_4
REMARK    3  A    between atoms: C_4  and  C_5
REMARK    4  A    between atoms: N_15  and  S_16
REMARK    5  A    between atoms: S_16  and  C_19
REMARK                            x       y       z     vdW  Elec       q    Type
REMARK                         _______ _______ _______ _____ _____    ______ ____
ROOT
ATOM      1  C   UNL     1       3.159   3.358  18.570  0.00  0.00    +0.000 C 
ATOM      2  C   UNL     1       4.547   3.279  19.219  0.00  0.00    +0.000 C 
ATOM      3  C   UNL     1       5.596   4.255  18.690  0.00  0.00    +0.000 C 
ATOM      4  N   UNL     1       5.566   4.284  17.202  0.00  0.00    +0.000 NA
ATOM      5  C   UNL     1       4.245   4.790  16.744  0.00  0.00    +0.000 C 
ATOM      6  C   UNL     1       3.178   3.758  17.088  0.00  0.00    +0.000 C 
ENDROOT
BRANCH   1   8
ATOM      7  O   UNL     1       1.001   3.835  19.600  0.00  0.00    +0.000 OA
ATOM      8  C   UNL     1       2.136   4.212  19.327  0.00  0.00    +0.000 C 
ATOM      9  N   UNL     1       2.678   5.421  19.731  0.00  0.00    +0.000 N 
ATOM     10  H   UNL     1       3.586   5.689  19.374  0.00  0.00    +0.000 HD
BRANCH   9  11
ATOM     11  C   UNL     1       2.003   6.404  20.542  0.00  0.00    +0.000 C 
BRANCH  11  12
ATOM     12  C   UNL     1       1.810   7.712  19.823  0.00  0.00    +0.000 A 
ATOM     13  C   UNL     1       2.323   7.897  18.534  0.00  0.00    +0.000 A 
ATOM     14  C   UNL     1       2.112   9.098  17.849  0.00  0.00    +0.000 A 
ATOM     15  C   UNL     1       1.397  10.134  18.451  0.00  0.00    +0.000 A 
ATOM     16  C   UNL     1       0.896   9.969  19.741  0.00  0.00    +0.000 A 
ATOM     17  C   UNL     1       1.108   8.766  20.415  0.00  0.00    +0.000 A 
ATOM     18  F   UNL     1       0.614   8.627  21.655  0.00  0.00    +0.000 F 
ENDBRANCH  11  12
ENDBRANCH   9  11
ENDBRANCH   1   8
BRANCH   4  19
ATOM     19  S   UNL     1       6.880   5.130  16.475  0.00  0.00    +0.000 S 
ATOM     20  O   UNL     1       6.605   6.549  16.557  0.00  0.00    +0.000 OA
ATOM     21  O   UNL     1       8.103   4.576  17.018  0.00  0.00    +0.000 OA
BRANCH  19  22
ATOM     22  C   UNL     1       6.772   4.681  14.758  0.00  0.00    +0.000 A 
ATOM     23  C   UNL     1       7.671   5.251  13.850  0.00  0.00    +0.000 A 
ATOM     24  C   UNL     1       7.613   4.886  12.505  0.00  0.00    +0.000 A 
ATOM     25  C   UNL     1       6.671   3.950  12.074  0.00  0.00    +0.000 A 
ATOM     26  C   UNL     1       5.791   3.366  12.988  0.00  0.00    +0.000 A 
ATOM     27  C   UNL     1       5.843   3.725  14.336  0.00  0.00    +0.000 A 
ENDBRANCH  19  22
ENDBRANCH   4  19
TORSDOF 5
ENDMDL
MODEL 2
REMARK VINA RESULT:      -8.7      1.483      2.225
REMARK  Name = 
REMARK  5 active torsions:
REMARK  status: ('A' for Active; 'I' for Inactive)
REMARK    1  A    between atoms: C_2  and  C_12
REMARK    2  A    between atoms: N_3  and  C_4
REMARK    3  A    between atoms: C_4  and  C_5
REMARK    4  A    between atoms: N_15  and  S_16
REMARK    5  A    between atoms: S_16  and  C_19
REMARK                            x       y       z     vdW  Elec       q    Type
REMARK                         _______ _______ _______ _____ _____    ______ ____
ROOT
ATOM      1  C   UNL     1       2.636   5.851  18.090  0.00  0.00    +0.000 C 
ATOM      2  C   UNL     1       3.208   4.465  17.761  0.00  0.00    +0.000 C 
ATOM      3  C   UNL     1       4.729   4.370  17.659  0.00  0.00    +0.000 C 
ATOM      4  N   UNL     1       5.262   5.509  16.862  0.00  0.00    +0.000 NA
ATOM      5  C   UNL     1       4.962   6.786  17.562  0.00  0.00    +0.000 C 
ATOM      6  C   UNL     1       3.456   7.021  17.531  0.00  0.00    +0.000 C 
ENDROOT
BRANCH   1   8
ATOM      7  O   UNL     1       2.488   5.247  20.447  0.00  0.00    +0.000 OA
ATOM      8  C   UNL     1       2.330   6.091  19.573  0.00  0.00    +0.000 C 
ATOM      9  N   UNL     1       1.932   7.398  19.807  0.00  0.00    +0.000 N 
ATOM     10  H   UNL     1       1.731   7.994  19.014  0.00  0.00    +0.000 HD
BRANCH   9  11
ATOM     11  C   UNL     1       1.664   7.964  21.106  0.00  0.00    +0.000 C 
BRANCH  11  12
ATOM     12  C   UNL     1       0.778   9.178  21.036  0.00  0.00    +0.000 A 
ATOM     13  C   UNL     1       0.501   9.785  19.805  0.00  0.00    +0.000 A 
ATOM     14  C   UNL     1      -0.353  10.890  19.733  0.00  0.00    +0.000 A 
ATOM     15  C   UNL     1      -0.930  11.411  20.893  0.00  0.00    +0.000 A 
ATOM     16  C   UNL     1      -0.648  10.826  22.126  0.00  0.00    +0.000 A 
ATOM     17  C   UNL     1       0.202   9.721  22.188  0.00  0.00    +0.000 A 
ATOM     18  F   UNL     1       0.458   9.172  23.385  0.00  0.00    +0.000 F 
ENDBRANCH  11  12
ENDBRANCH   9  11
ENDBRANCH   1   8
BRANCH   4  19
ATOM     19  S   UNL     1       6.927   5.370  16.437  0.00  0.00    +0.000 S 
ATOM     20  O   UNL     1       7.508   6.696  16.447  0.00  0.00    +0.000 OA
ATOM     21  O   UNL     1       7.489   4.304  17.241  0.00  0.00    +0.000 OA
BRANCH  19  22
ATOM     22  C   UNL     1       6.887   4.836  14.743  0.00  0.00    +0.000 A 
ATOM     23  C   UNL     1       5.967   3.853  14.363  0.00  0.00    +0.000 A 
ATOM     24  C   UNL     1       5.907   3.445  13.030  0.00  0.00    +0.000 A 
ATOM     25  C   UNL     1       6.754   4.022  12.083  0.00  0.00    +0.000 A 
ATOM     26  C   UNL     1       7.655   5.021  12.462  0.00  0.00    +0.000 A 
ATOM     27  C   UNL     1       7.720   5.436  13.793  0.00  0.00    +0.000 A 
ENDBRANCH  19  22
ENDBRANCH   4  19
TORSDOF 5
ENDMDL
MODEL 3
REMARK VINA RESULT:      -8.6      0.974      1.108
REMARK  Name = 
REMARK  5 active torsions:
REMARK  status: ('A' for Active; 'I' for Inactive)
REMARK    1  A    between atoms: C_2  and  C_12
REMARK    2  A    between atoms: N_3  and  C_4
REMARK    3  A    between atoms: C_4  and  C_5
REMARK    4  A    between atoms: N_15  and  S_16
REMARK    5  A    between atoms: S_16  and  C_19
REMARK                            x       y       z     vdW  Elec       q    Type
REMARK                         _______ _______ _______ _____ _____    ______ ____
ROOT
ATOM      1  C   UNL     1       2.964   4.450  18.715  0.00  0.00    +0.000 C 
ATOM      2  C   UNL     1       4.168   3.515  18.896  0.00  0.00    +0.000 C 
ATOM      3  C   UNL     1       5.532   4.090  18.516  0.00  0.00    +0.000 C 
ATOM      4  N   UNL     1       5.443   4.805  17.213  0.00  0.00    +0.000 NA
ATOM      5  C   UNL     1       4.517   5.961  17.346  0.00  0.00    +0.000 C 
ATOM      6  C   UNL     1       3.100   5.434  17.544  0.00  0.00    +0.000 C 
ENDROOT
BRANCH   1   8
ATOM      7  O   UNL     1       2.531   4.705  21.100  0.00  0.00    +0.000 OA
ATOM      8  C   UNL     1       2.530   5.200  19.978  0.00  0.00    +0.000 C 
ATOM      9  N   UNL     1       2.217   6.522  19.705  0.00  0.00    +0.000 N 
ATOM     10  H   UNL     1       2.145   6.815  18.739  0.00  0.00    +0.000 HD
BRANCH   9  11
ATOM     11  C   UNL     1       1.865   7.513  20.692  0.00  0.00    +0.000 C 
BRANCH  11  12
ATOM     12  C   UNL     1       1.156   8.698  20.094  0.00  0.00    +0.000 A 
ATOM     13  C   UNL     1       1.485   9.149  18.810  0.00  0.00    +0.000 A 
ATOM     14  C   UNL     1       0.801  10.226  18.237  0.00  0.00    +0.000 A 
ATOM     15  C   UNL     1      -0.210  10.875  18.947  0.00  0.00    +0.000 A 
ATOM     16  C   UNL     1      -0.534  10.447  20.233  0.00  0.00    +0.000 A 
ATOM     17  C   UNL     1       0.150   9.369  20.796  0.00  0.00    +0.000 A 
ATOM     18  F   UNL     1      -0.181   8.972  22.034  0.00  0.00    +0.000 F 
ENDBRANCH  11  12
ENDBRANCH   9  11
ENDBRANCH   1   8
BRANCH   4  19
ATOM     19  S   UNL     1       6.964   5.258  16.539  0.00  0.00    +0.000 S 
ATOM     20  O   UNL     1       7.063   6.701  16.579  0.00  0.00    +0.000 OA
ATOM     21  O   UNL     1       7.975   4.424  17.156  0.00  0.00    +0.000 OA
BRANCH  19  22
ATOM     22  C   UNL     1       6.821   4.796  14.829  0.00  0.00    +0.000 A 
ATOM     23  C   UNL     1       7.728   5.325  13.905  0.00  0.00    +0.000 A 
ATOM     24  C   UNL     1       7.642   4.949  12.564  0.00  0.00    +0.000 A 
ATOM     25  C   UNL     1       6.664   4.043  12.153  0.00  0.00    +0.000 A 
ATOM     26  C   UNL     1       5.775   3.498  13.083  0.00  0.00    +0.000 A 
ATOM     27  C   UNL     1       5.855   3.869  14.427  0.00  0.00    +0.000 A 
ENDBRANCH  19  22
ENDBRANCH   4  19
TORSDOF 5
ENDMDL
MODEL 4
REMARK VINA RESULT:      -8.5      0.782      1.242
REMARK  Name = 
REMARK  5 active torsions:
REMARK  status: ('A' for Active; 'I' for Inactive)
REMARK    1  A    between atoms: C_2  and  C_12
REMARK    2  A    between atoms: N_3  and  C_4
REMARK    3  A    between atoms: C_4  and  C_5
REMARK    4  A    between atoms: N_15  and  S_16
REMARK    5  A    between atoms: S_16  and  C_19
REMARK                            x       y       z     vdW  Elec       q    Type
REMARK                         _______ _______ _______ _____ _____    ______ ____
ROOT
ATOM      1  C   UNL     1       3.059   4.034  18.863  0.00  0.00    +0.000 C 
ATOM      2  C   UNL     1       4.430   3.383  19.088  0.00  0.00    +0.000 C 
ATOM      3  C   UNL     1       5.644   4.182  18.615  0.00  0.00    +0.000 C 
ATOM      4  N   UNL     1       5.394   4.739  17.257  0.00  0.00    +0.000 NA
ATOM      5  C   UNL     1       4.254   5.692  17.315  0.00  0.00    +0.000 C 
ATOM      6  C   UNL     1       2.977   4.911  17.605  0.00  0.00    +0.000 C 
ENDROOT
BRANCH   1   8
ATOM      7  O   UNL     1       2.440   4.335  21.201  0.00  0.00    +0.000 OA
ATOM      8  C   UNL     1       2.498   4.798  20.067  0.00  0.00    +0.000 C 
ATOM      9  N   UNL     1       2.142   6.094  19.730  0.00  0.00    +0.000 N 
ATOM     10  H   UNL     1       2.128   6.355  18.753  0.00  0.00    +0.000 HD
BRANCH   9  11
ATOM     11  C   UNL     1       1.671   7.093  20.657  0.00  0.00    +0.000 C 
BRANCH  11  12
ATOM     12  C   UNL     1       1.471   8.436  20.007  0.00  0.00    +0.000 A 
ATOM     13  C   UNL     1       1.870   8.650  18.683  0.00  0.00    +0.000 A 
ATOM     14  C   UNL     1       1.649   9.885  18.065  0.00  0.00    +0.000 A 
ATOM     15  C   UNL     1       1.040  10.925  18.768  0.00  0.00    +0.000 A 
ATOM     16  C   UNL     1       0.654  10.729  20.093  0.00  0.00    +0.000 A 
ATOM     17  C   UNL     1       0.874   9.493  20.701  0.00  0.00    +0.000 A 
ATOM     18  F   UNL     1       0.492   9.325  21.976  0.00  0.00    +0.000 F 
ENDBRANCH  11  12
ENDBRANCH   9  11
ENDBRANCH   1   8
BRANCH   4  19
ATOM     19  S   UNL     1       6.782   5.423  16.497  0.00  0.00    +0.000 S 
ATOM     20  O   UNL     1       6.598   6.858  16.429  0.00  0.00    +0.000 OA
ATOM     21  O   UNL     1       7.949   4.851  17.135  0.00  0.00    +0.000 OA
BRANCH  19  22
ATOM     22  C   UNL     1       6.694   4.811  14.831  0.00  0.00    +0.000 A 
ATOM     23  C   UNL     1       5.656   3.942  14.481  0.00  0.00    +0.000 A 
ATOM     24  C   UNL     1       5.561   3.476  13.170  0.00  0.00    +0.000 A 
ATOM     25  C   UNL     1       6.492   3.884  12.213  0.00  0.00    +0.000 A 
ATOM     26  C   UNL     1       7.514   4.772  12.561  0.00  0.00    +0.000 A 
ATOM     27  C   UNL     1       7.614   5.243  13.871  0.00  0.00    +0.000 A 
ENDBRANCH  19  22
ENDBRANCH   4  19
TORSDOF 5
ENDMDL
MODEL 5
REMARK VINA RESULT:      -8.4      1.234      1.635
REMARK  Name = 
REMARK  5 active torsions:
REMARK  status: ('A' for Active; 'I' for Inactive)
REMARK    1  A    between atoms: C_2  and  C_12
REMARK    2  A    between atoms: N_3  and  C_4
REMARK    3  A    between atoms: C_4  and  C_5
REMARK    4  A    between atoms: N_15  and  S_16
REMARK    5  A    between atoms: S_16  and  C_19
REMARK                            x       y       z     vdW  Elec       q    Type
REMARK                         _______ _______ _______ _____ _____    ______ ____
ROOT
ATOM      1  C   UNL     1       2.970   4.469  18.722  0.00  0.00    +0.000 C 
ATOM      2  C   UNL     1       4.166   3.521  18.887  0.00  0.00    +0.000 C 
ATOM      3  C   UNL     1       5.533   4.086  18.504  0.00  0.00    +0.000 C 
ATOM      4  N   UNL     1       5.443   4.813  17.208  0.00  0.00    +0.000 NA
ATOM      5  C   UNL     1       4.529   5.977  17.356  0.00  0.00    +0.000 C 
ATOM      6  C   UNL     1       3.108   5.461  17.560  0.00  0.00    +0.000 C 
ENDROOT
BRANCH   1   8
ATOM      7  O   UNL     1       2.594   4.721  21.117  0.00  0.00    +0.000 OA
ATOM      8  C   UNL     1       2.551   5.212  19.995  0.00  0.00    +0.000 C 
ATOM      9  N   UNL     1       2.197   6.525  19.727  0.00  0.00    +0.000 N 
ATOM     10  H   UNL     1       2.093   6.813  18.763  0.00  0.00    +0.000 HD
BRANCH   9  11
ATOM     11  C   UNL     1       1.847   7.510  20.721  0.00  0.00    +0.000 C 
BRANCH  11  12
ATOM     12  C   UNL     1       1.143   8.702  20.130  0.00  0.00    +0.000 A 
ATOM     13  C   UNL     1       0.075   9.303  20.804  0.00  0.00    +0.000 A 
ATOM     14  C   UNL     1      -0.556  10.434  20.275  0.00  0.00    +0.000 A 
ATOM     15  C   UNL     1      -0.134  10.969  19.057  0.00  0.00    +0.000 A 
ATOM     16  C   UNL     1       0.918  10.368  18.367  0.00  0.00    +0.000 A 
ATOM     17  C   UNL     1       1.544   9.243  18.904  0.00  0.00    +0.000 A 
ATOM     18  F   UNL     1       2.555   8.683  18.224  0.00  0.00    +0.000 F 
ENDBRANCH  11  12
ENDBRANCH   9  11
ENDBRANCH   1   8
BRANCH   4  19
ATOM     19  S   UNL     1       6.964   5.258  16.529  0.00  0.00    +0.000 S 
ATOM     20  O   UNL     1       7.070   6.701  16.565  0.00  0.00    +0.000 OA
ATOM     21  O   UNL     1       7.972   4.420  17.144  0.00  0.00    +0.000 OA
BRANCH  19  22
ATOM     22  C   UNL     1       6.813   4.793  14.820  0.00  0.00    +0.000 A 
ATOM     23  C   UNL     1       7.722   5.314  13.893  0.00  0.00    +0.000 A 
ATOM     24  C   UNL     1       7.630   4.936  12.553  0.00  0.00    +0.000 A 
ATOM     25  C   UNL     1       6.645   4.035  12.146  0.00  0.00    +0.000 A 
ATOM     26  C   UNL     1       5.754   3.498  13.079  0.00  0.00    +0.000 A 
ATOM     27  C   UNL     1       5.840   3.871  14.422  0.00  0.00    +0.000 A 
ENDBRANCH  19  22
ENDBRANCH   4  19
TORSDOF 5
ENDMDL
MODEL 6
REMARK VINA RESULT:      -8.4      5.222      7.351
REMARK  Name = 
REMARK  5 active torsions:
REMARK  status: ('A' for Active; 'I' for Inactive)
REMARK    1  A    between atoms: C_2  and  C_12
REMARK    2  A    between atoms: N_3  and  C_4
REMARK    3  A    between atoms: C_4  and  C_5
REMARK    4  A    between atoms: N_15  and  S_16
REMARK    5  A    between atoms: S_16  and  C_19
REMARK                            x       y       z     vdW  Elec       q    Type
REMARK                         _______ _______ _______ _____ _____    ______ ____
ROOT
ATOM      1  C   UNL     1       7.376   6.007  18.449  0.00  0.00    +0.000 C 
ATOM      2  C   UNL     1       7.585   4.688  17.694  0.00  0.00    +0.000 C 
ATOM      3  C   UNL     1       6.328   4.023  17.135  0.00  0.00    +0.000 C 
ATOM      4  N   UNL     1       5.245   4.032  18.156  0.00  0.00    +0.000 NA
ATOM      5  C   UNL     1       4.877   5.438  18.473  0.00  0.00    +0.000 C 
ATOM      6  C   UNL     1       6.042   6.097  19.204  0.00  0.00    +0.000 C 
ENDROOT
BRANCH   1   8
ATOM      7  O   UNL     1       7.182   7.408  16.464  0.00  0.00    +0.000 OA
ATOM      8  C   UNL     1       7.587   7.274  17.613  0.00  0.00    +0.000 C 
ATOM      9  N   UNL     1       8.217   8.269  18.343  0.00  0.00    +0.000 N 
ATOM     10  H   UNL     1       8.606   8.035  19.247  0.00  0.00    +0.000 HD
BRANCH   9  11
ATOM     11  C   UNL     1       8.474   9.608  17.873  0.00  0.00    +0.000 C 
BRANCH  11  12
ATOM     12  C   UNL     1       9.256  10.428  18.863  0.00  0.00    +0.000 A 
ATOM     13  C   UNL     1       8.898  10.440  20.216  0.00  0.00    +0.000 A 
ATOM     14  C   UNL     1       9.646  11.171  21.144  0.00  0.00    +0.000 A 
ATOM     15  C   UNL     1      10.754  11.911  20.728  0.00  0.00    +0.000 A 
ATOM     16  C   UNL     1      11.110  11.921  19.381  0.00  0.00    +0.000 A 
ATOM     17  C   UNL     1      10.361  11.186  18.462  0.00  0.00    +0.000 A 
ATOM     18  F   UNL     1      10.723  11.207  17.171  0.00  0.00    +0.000 F 
ENDBRANCH  11  12
ENDBRANCH   9  11
ENDBRANCH   1   8
BRANCH   4  19
ATOM     19  S   UNL     1       3.872   3.071  17.753  0.00  0.00    +0.000 S 
ATOM     20  O   UNL     1       3.117   3.766  16.733  0.00  0.00    +0.000 OA
ATOM     21  O   UNL     1       4.341   1.717  17.540  0.00  0.00    +0.000 OA
BRANCH  19  22
ATOM     22  C   UNL     1       2.889   3.099  19.234  0.00  0.00    +0.000 A 
ATOM     23  C   UNL     1       1.551   3.499  19.152  0.00  0.00    +0.000 A 
ATOM     24  C   UNL     1       0.762   3.500  20.303  0.00  0.00    +0.000 A 
ATOM     25  C   UNL     1       1.304   3.094  21.523  0.00  0.00    +0.000 A 
ATOM     26  C   UNL     1       2.634   2.671  21.595  0.00  0.00    +0.000 A 
ATOM     27  C   UNL     1       3.430   2.667  20.448  0.00  0.00    +0.000 A 
ENDBRANCH  19  22
ENDBRANCH   4  19
TORSDOF 5
ENDMDL
MODEL 7
REMARK VINA RESULT:      -8.3      5.128      7.267
REMARK  Name = 
REMARK  5 active torsions:
REMARK  status: ('A' for Active; 'I' for Inactive)
REMARK    1  A    between atoms: C_2  and  C_12
REMARK    2  A    between atoms: N_3  and  C_4
REMARK    3  A    between atoms: C_4  and  C_5
REMARK    4  A    between atoms: N_15  and  S_16
REMARK    5  A    between atoms: S_16  and  C_19
REMARK                            x       y       z     vdW  Elec       q    Type
REMARK                         _______ _______ _______ _____ _____    ______ ____
ROOT
ATOM      1  C   UNL     1       7.891   6.231  17.944  0.00  0.00    +0.000 C 
ATOM      2  C   UNL     1       7.443   5.191  16.909  0.00  0.00    +0.000 C 
ATOM      3  C   UNL     1       6.086   4.535  17.155  0.00  0.00    +0.000 C 
ATOM      4  N   UNL     1       5.958   4.139  18.584  0.00  0.00    +0.000 NA
ATOM      5  C   UNL     1       6.005   5.353  19.440  0.00  0.00    +0.000 C 
ATOM      6  C   UNL     1       7.407   5.947  19.373  0.00  0.00    +0.000 C 
ENDROOT
BRANCH   1   8
ATOM      7  O   UNL     1       6.707   8.025  16.795  0.00  0.00    +0.000 OA
ATOM      8  C   UNL     1       7.593   7.687  17.573  0.00  0.00    +0.000 C 
ATOM      9  N   UNL     1       8.390   8.570  18.283  0.00  0.00    +0.000 N 
ATOM     10  H   UNL     1       9.161   8.200  18.825  0.00  0.00    +0.000 HD
BRANCH   9  11
ATOM     11  C   UNL     1       8.288  10.008  18.231  0.00  0.00    +0.000 C 
BRANCH  11  12
ATOM     12  C   UNL     1       9.545  10.693  18.695  0.00  0.00    +0.000 A 
ATOM     13  C   UNL     1      10.532  11.065  17.775  0.00  0.00    +0.000 A 
ATOM     14  C   UNL     1      11.684  11.736  18.199  0.00  0.00    +0.000 A 
ATOM     15  C   UNL     1      11.868  12.031  19.550  0.00  0.00    +0.000 A 
ATOM     16  C   UNL     1      10.900  11.651  20.478  0.00  0.00    +0.000 A 
ATOM     17  C   UNL     1       9.753  10.985  20.046  0.00  0.00    +0.000 A 
ATOM     18  F   UNL     1       8.833  10.630  20.956  0.00  0.00    +0.000 F 
ENDBRANCH  11  12
ENDBRANCH   9  11
ENDBRANCH   1   8
BRANCH   4  19
ATOM     19  S   UNL     1       4.594   3.143  18.933  0.00  0.00    +0.000 S 
ATOM     20  O   UNL     1       4.087   2.619  17.683  0.00  0.00    +0.000 OA
ATOM     21  O   UNL     1       4.973   2.256  20.014  0.00  0.00    +0.000 OA
BRANCH  19  22
ATOM     22  C   UNL     1       3.381   4.289  19.544  0.00  0.00    +0.000 A 
ATOM     23  C   UNL     1       3.065   5.415  18.776  0.00  0.00    +0.000 A 
ATOM     24  C   UNL     1       2.095   6.308  19.233  0.00  0.00    +0.000 A 
ATOM     25  C   UNL     1       1.439   6.070  20.442  0.00  0.00    +0.000 A 
ATOM     26  C   UNL     1       1.741   4.932  21.194  0.00  0.00    +0.000 A 
ATOM     27  C   UNL     1       2.710   4.033  20.743  0.00  0.00    +0.000 A 
ENDBRANCH  19  22
ENDBRANCH   4  19
TORSDOF 5
ENDMDL
MODEL 8
REMARK VINA RESULT:      -8.3      1.559      2.413
REMARK  Name = 
REMARK  5 active torsions:
REMARK  status: ('A' for Active; 'I' for Inactive)
REMARK    1  A    between atoms: C_2  and  C_12
REMARK    2  A    between atoms: N_3  and  C_4
REMARK    3  A    between atoms: C_4  and  C_5
REMARK    4  A    between atoms: N_15  and  S_16
REMARK    5  A    between atoms: S_16  and  C_19
REMARK                            x       y       z     vdW  Elec       q    Type
REMARK                         _______ _______ _______ _____ _____    ______ ____
ROOT
ATOM      1  C   UNL     1       2.800   5.812  18.061  0.00  0.00    +0.000 C 
ATOM      2  C   UNL     1       3.339   4.443  17.625  0.00  0.00    +0.000 C 
ATOM      3  C   UNL     1       4.856   4.326  17.491  0.00  0.00    +0.000 C 
ATOM      4  N   UNL     1       5.400   5.508  16.768  0.00  0.00    +0.000 NA
ATOM      5  C   UNL     1       5.137   6.738  17.562  0.00  0.00    +0.000 C 
ATOM      6  C   UNL     1       3.636   7.003  17.572  0.00  0.00    +0.000 C 
ENDROOT
BRANCH   1   8
ATOM      7  O   UNL     1       2.830   5.107  20.394  0.00  0.00    +0.000 OA
ATOM      8  C   UNL     1       2.521   5.952  19.561  0.00  0.00    +0.000 C 
ATOM      9  N   UNL     1       1.955   7.180  19.863  0.00  0.00    +0.000 N 
ATOM     10  H   UNL     1       1.642   7.770  19.103  0.00  0.00    +0.000 HD
BRANCH   9  11
ATOM     11  C   UNL     1       1.661   7.654  21.193  0.00  0.00    +0.000 C 
BRANCH  11  12
ATOM     12  C   UNL     1       0.838   8.914  21.188  0.00  0.00    +0.000 A 
ATOM     13  C   UNL     1       0.094   9.281  22.315  0.00  0.00    +0.000 A 
ATOM     14  C   UNL     1      -0.641  10.471  22.327  0.00  0.00    +0.000 A 
ATOM     15  C   UNL     1      -0.652  11.302  21.206  0.00  0.00    +0.000 A 
ATOM     16  C   UNL     1       0.071  10.939  20.071  0.00  0.00    +0.000 A 
ATOM     17  C   UNL     1       0.805   9.752  20.069  0.00  0.00    +0.000 A 
ATOM     18  F   UNL     1       1.496   9.423  18.967  0.00  0.00    +0.000 F 
ENDBRANCH  11  12
ENDBRANCH   9  11
ENDBRANCH   1   8
BRANCH   4  19
ATOM     19  S   UNL     1       7.056   5.368  16.307  0.00  0.00    +0.000 S 
ATOM     20  O   UNL     1       7.638   6.693  16.308  0.00  0.00    +0.000 OA
ATOM     21  O   UNL     1       7.634   4.299  17.096  0.00  0.00    +0.000 OA
BRANCH  19  22
ATOM     22  C   UNL     1       6.978   4.838  14.613  0.00  0.00    +0.000 A 
ATOM     23  C   UNL     1       6.041   3.866  14.248  0.00  0.00    +0.000 A 
ATOM     24  C   UNL     1       5.952   3.461  12.916  0.00  0.00    +0.000 A 
ATOM     25  C   UNL     1       6.787   4.033  11.954  0.00  0.00    +0.000 A 
ATOM     26  C   UNL     1       7.705   5.021  12.318  0.00  0.00    +0.000 A 
ATOM     27  C   UNL     1       7.799   5.432  13.649  0.00  0.00    +0.000 A 
ENDBRANCH  19  22
ENDBRANCH   4  19
TORSDOF 5
ENDMDL
MODEL 9
REMARK VINA RESULT:      -8.1      5.320      7.364
REMARK  Name = 
REMARK  5 active torsions:
REMARK  status: ('A' for Active; 'I' for Inactive)
REMARK    1  A    between atoms: C_2  and  C_12
REMARK    2  A    between atoms: N_3  and  C_4
REMARK    3  A    between atoms: C_4  and  C_5
REMARK    4  A    between atoms: N_15  and  S_16
REMARK    5  A    between atoms: S_16  and  C_19
REMARK                            x       y       z     vdW  Elec       q    Type
REMARK                         _______ _______ _______ _____ _____    ______ ____
ROOT
ATOM      1  C   UNL     1       7.903   6.156  17.992  0.00  0.00    +0.000 C 
ATOM      2  C   UNL     1       7.493   5.072  16.986  0.00  0.00    +0.000 C 
ATOM      3  C   UNL     1       6.128   4.424  17.211  0.00  0.00    +0.000 C 
ATOM      4  N   UNL     1       5.950   4.088  18.650  0.00  0.00    +0.000 NA
ATOM      5  C   UNL     1       5.964   5.338  19.455  0.00  0.00    +0.000 C 
ATOM      6  C   UNL     1       7.368   5.932  19.414  0.00  0.00    +0.000 C 
ENDROOT
BRANCH   1   8
ATOM      7  O   UNL     1       6.763   7.896  16.721  0.00  0.00    +0.000 OA
ATOM      8  C   UNL     1       7.616   7.595  17.549  0.00  0.00    +0.000 C 
ATOM      9  N   UNL     1       8.380   8.509  18.256  0.00  0.00    +0.000 N 
ATOM     10  H   UNL     1       9.128   8.165  18.844  0.00  0.00    +0.000 HD
BRANCH   9  11
ATOM     11  C   UNL     1       8.277   9.943  18.140  0.00  0.00    +0.000 C 
BRANCH  11  12
ATOM     12  C   UNL     1       9.329  10.665  18.938  0.00  0.00    +0.000 A 
ATOM     13  C   UNL     1       9.140  10.913  20.302  0.00  0.00    +0.000 A 
ATOM     14  C   UNL     1      10.132  11.549  21.055  0.00  0.00    +0.000 A 
ATOM     15  C   UNL     1      11.321  11.957  20.448  0.00  0.00    +0.000 A 
ATOM     16  C   UNL     1      11.514  11.732  19.087  0.00  0.00    +0.000 A 
ATOM     17  C   UNL     1      10.520  11.093  18.345  0.00  0.00    +0.000 A 
ATOM     18  F   UNL     1      10.728  10.883  17.036  0.00  0.00    +0.000 F 
ENDBRANCH  11  12
ENDBRANCH   9  11
ENDBRANCH   1   8
BRANCH   4  19
ATOM     19  S   UNL     1       4.575   3.105  18.992  0.00  0.00    +0.000 S 
ATOM     20  O   UNL     1       4.092   2.555  17.743  0.00  0.00    +0.000 OA
ATOM     21  O   UNL     1       4.928   2.240  20.099  0.00  0.00    +0.000 OA
BRANCH  19  22
ATOM     22  C   UNL     1       3.354   4.268  19.552  0.00  0.00    +0.000 A 
ATOM     23  C   UNL     1       3.032   5.359  18.738  0.00  0.00    +0.000 A 
ATOM     24  C   UNL     1       2.056   6.264  19.156  0.00  0.00    +0.000 A 
ATOM     25  C   UNL     1       1.399   6.073  20.372  0.00  0.00    +0.000 A 
ATOM     26  C   UNL     1       1.706   4.969  21.171  0.00  0.00    +0.000 A 
ATOM     27  C   UNL     1       2.681   4.058  20.760  0.00  0.00    +0.000 A 
ENDBRANCH  19  22
ENDBRANCH   4  19
TORSDOF 5
ENDMDL
