MODEL 1
REMARK VINA RESULT:      -7.1      0.000      0.000
REMARK  Name = 
REMARK  3 active torsions:
REMARK  status: ('A' for Active; 'I' for Inactive)
REMARK    1  A    between atoms: C_1  and  O_2
REMARK    2  A    between atoms: O_2  and  C_3
REMARK    3  A    between atoms: C_6  and  N_7
REMARK                            x       y       z     vdW  Elec       q    Type
REMARK                         _______ _______ _______ _____ _____    ______ ____
ROOT
ATOM      1  N   UNL     1       1.104   9.478  19.654  0.00  0.00    +0.000 N 
ATOM      2  C   UNL     1       1.293   8.354  20.573  0.00  0.00    +0.000 C 
ATOM      3  C   UNL     1       2.066   7.373  19.737  0.00  0.00    +0.000 A 
ATOM      4  N   UNL     1       2.346   6.098  20.048  0.00  0.00    +0.000 NA
ATOM      5  C   UNL     1       3.006   5.396  19.098  0.00  0.00    +0.000 A 
ATOM      6  N   UNL     1       3.312   4.097  19.343  0.00  0.00    +0.000 N 
ATOM      7  C   UNL     1       2.898   3.385  20.527  0.00  0.00    +0.000 C 
ATOM      8  C   UNL     1       3.860   2.201  20.543  0.00  0.00    +0.000 C 
ATOM      9  C   UNL     1       4.061   1.889  19.064  0.00  0.00    +0.000 C 
ATOM     10  C   UNL     1       3.969   3.251  18.368  0.00  0.00    +0.000 C 
ATOM     11  N   UNL     1       3.386   5.924  17.906  0.00  0.00    +0.000 NA
ATOM     12  C   UNL     1       3.069   7.207  17.639  0.00  0.00    +0.000 A 
ATOM     13  C   UNL     1       2.399   7.954  18.547  0.00  0.00    +0.000 A 
ATOM     14  C   UNL     1       1.828   9.283  18.475  0.00  0.00    +0.000 C 
ATOM     15  O   UNL     1       1.985   9.991  17.498  0.00  0.00    +0.000 OA
ENDROOT
BRANCH   1  19
ATOM     16  C   UNL     1      -1.954  12.343  20.358  0.00  0.00    +0.000 A 
ATOM     17  C   UNL     1      -1.812  11.743  19.111  0.00  0.00    +0.000 A 
ATOM     18  C   UNL     1      -0.778  10.834  18.877  0.00  0.00    +0.000 A 
ATOM     19  C   UNL     1       0.143  10.498  19.876  0.00  0.00    +0.000 A 
ATOM     20  C   UNL     1       0.036  11.149  21.111  0.00  0.00    +0.000 A 
ATOM     21  C   UNL     1      -0.996  12.072  21.345  0.00  0.00    +0.000 A 
ATOM     22 CL   UNL     1      -1.070  12.832  22.898  0.00  0.00    +0.000 Cl
BRANCH  16  24
ATOM     23  C   UNL     1      -4.280  12.710  20.319  0.00  0.00    +0.000 C 
ATOM     24  O   UNL     1      -2.982  13.198  20.657  0.00  0.00    +0.000 OA
ENDBRANCH  16  24
ENDBRANCH   1  19
TORSDOF 2
ENDMDL
MODEL 2
REMARK VINA RESULT:      -7.1      2.227      3.171
REMARK  Name = 
REMARK  3 active torsions:
REMARK  status: ('A' for Active; 'I' for Inactive)
REMARK    1  A    between atoms: C_1  and  O_2
REMARK    2  A    between atoms: O_2  and  C_3
REMARK    3  A    between atoms: C_6  and  N_7
REMARK                            x       y       z     vdW  Elec       q    Type
REMARK                         _______ _______ _______ _____ _____    ______ ____
ROOT
ATOM      1  N   UNL     1       1.101   9.331  19.384  0.00  0.00    +0.000 N 
ATOM      2  C   UNL     1       1.667   9.132  18.048  0.00  0.00    +0.000 C 
ATOM      3  C   UNL     1       2.490   7.886  18.222  0.00  0.00    +0.000 A 
ATOM      4  N   UNL     1       3.358   7.368  17.341  0.00  0.00    +0.000 NA
ATOM      5  C   UNL     1       4.026   6.267  17.755  0.00  0.00    +0.000 A 
ATOM      6  N   UNL     1       4.929   5.698  16.917  0.00  0.00    +0.000 N 
ATOM      7  C   UNL     1       5.288   6.247  15.633  0.00  0.00    +0.000 C 
ATOM      8  C   UNL     1       5.914   5.045  14.934  0.00  0.00    +0.000 C 
ATOM      9  C   UNL     1       6.613   4.301  16.067  0.00  0.00    +0.000 C 
ATOM     10  C   UNL     1       5.729   4.550  17.292  0.00  0.00    +0.000 C 
ATOM     11  N   UNL     1       3.840   5.693  18.972  0.00  0.00    +0.000 NA
ATOM     12  C   UNL     1       2.963   6.261  19.825  0.00  0.00    +0.000 A 
ATOM     13  C   UNL     1       2.274   7.371  19.467  0.00  0.00    +0.000 A 
ATOM     14  C   UNL     1       1.392   8.243  20.213  0.00  0.00    +0.000 C 
ATOM     15  O   UNL     1       1.064   7.992  21.357  0.00  0.00    +0.000 OA
ENDROOT
BRANCH   1  19
ATOM     16  C   UNL     1      -0.511  13.125  20.412  0.00  0.00    +0.000 A 
ATOM     17  C   UNL     1       0.830  12.835  20.639  0.00  0.00    +0.000 A 
ATOM     18  C   UNL     1       1.342  11.571  20.337  0.00  0.00    +0.000 A 
ATOM     19  C   UNL     1       0.532  10.562  19.802  0.00  0.00    +0.000 A 
ATOM     20  C   UNL     1      -0.830  10.835  19.633  0.00  0.00    +0.000 A 
ATOM     21  C   UNL     1      -1.349  12.102  19.947  0.00  0.00    +0.000 A 
ATOM     22 CL   UNL     1      -3.041  12.369  19.704  0.00  0.00    +0.000 Cl
BRANCH  16  24
ATOM     23  C   UNL     1      -0.666  15.362  19.695  0.00  0.00    +0.000 C 
ATOM     24  O   UNL     1      -1.051  14.364  20.639  0.00  0.00    +0.000 OA
ENDBRANCH  16  24
ENDBRANCH   1  19
TORSDOF 2
ENDMDL
MODEL 3
REMARK VINA RESULT:      -7.1      1.161      1.497
REMARK  Name = 
REMARK  3 active torsions:
REMARK  status: ('A' for Active; 'I' for Inactive)
REMARK    1  A    between atoms: C_1  and  O_2
REMARK    2  A    between atoms: O_2  and  C_3
REMARK    3  A    between atoms: C_6  and  N_7
REMARK                            x       y       z     vdW  Elec       q    Type
REMARK                         _______ _______ _______ _____ _____    ______ ____
ROOT
ATOM      1  N   UNL     1       1.131   9.352  19.626  0.00  0.00    +0.000 N 
ATOM      2  C   UNL     1       1.361   8.231  20.539  0.00  0.00    +0.000 C 
ATOM      3  C   UNL     1       2.133   7.264  19.686  0.00  0.00    +0.000 A 
ATOM      4  N   UNL     1       2.444   5.995  19.990  0.00  0.00    +0.000 NA
ATOM      5  C   UNL     1       3.096   5.306  19.027  0.00  0.00    +0.000 A 
ATOM      6  N   UNL     1       3.431   4.012  19.264  0.00  0.00    +0.000 N 
ATOM      7  C   UNL     1       3.055   3.293  20.457  0.00  0.00    +0.000 C 
ATOM      8  C   UNL     1       4.040   2.127  20.451  0.00  0.00    +0.000 C 
ATOM      9  C   UNL     1       4.215   1.819  18.968  0.00  0.00    +0.000 C 
ATOM     10  C   UNL     1       4.083   3.179  18.275  0.00  0.00    +0.000 C 
ATOM     11  N   UNL     1       3.441   5.841  17.827  0.00  0.00    +0.000 NA
ATOM     12  C   UNL     1       3.095   7.118  17.567  0.00  0.00    +0.000 A 
ATOM     13  C   UNL     1       2.431   7.853  18.491  0.00  0.00    +0.000 A 
ATOM     14  C   UNL     1       1.834   9.170  18.431  0.00  0.00    +0.000 C 
ATOM     15  O   UNL     1       1.957   9.881  17.452  0.00  0.00    +0.000 OA
ENDROOT
BRANCH   1  19
ATOM     16  C   UNL     1      -1.635  12.521  20.220  0.00  0.00    +0.000 A 
ATOM     17  C   UNL     1      -0.519  12.386  21.039  0.00  0.00    +0.000 A 
ATOM     18  C   UNL     1       0.363  11.317  20.863  0.00  0.00    +0.000 A 
ATOM     19  C   UNL     1       0.156  10.354  19.869  0.00  0.00    +0.000 A 
ATOM     20  C   UNL     1      -1.001  10.456  19.087  0.00  0.00    +0.000 A 
ATOM     21  C   UNL     1      -1.894  11.524  19.270  0.00  0.00    +0.000 A 
ATOM     22 CL   UNL     1      -3.298  11.590  18.261  0.00  0.00    +0.000 Cl
BRANCH  16  24
ATOM     23  C   UNL     1      -3.453  13.477  21.372  0.00  0.00    +0.000 C 
ATOM     24  O   UNL     1      -2.501  13.580  20.314  0.00  0.00    +0.000 OA
ENDBRANCH  16  24
ENDBRANCH   1  19
TORSDOF 2
ENDMDL
MODEL 4
REMARK VINA RESULT:      -7.0      2.193      3.110
REMARK  Name = 
REMARK  3 active torsions:
REMARK  status: ('A' for Active; 'I' for Inactive)
REMARK    1  A    between atoms: C_1  and  O_2
REMARK    2  A    between atoms: O_2  and  C_3
REMARK    3  A    between atoms: C_6  and  N_7
REMARK                            x       y       z     vdW  Elec       q    Type
REMARK                         _______ _______ _______ _____ _____    ______ ____
ROOT
ATOM      1  N   UNL     1       1.172   9.412  19.478  0.00  0.00    +0.000 N 
ATOM      2  C   UNL     1       1.751   9.245  18.144  0.00  0.00    +0.000 C 
ATOM      3  C   UNL     1       2.508   7.953  18.273  0.00  0.00    +0.000 A 
ATOM      4  N   UNL     1       3.365   7.431  17.383  0.00  0.00    +0.000 NA
ATOM      5  C   UNL     1       3.970   6.281  17.757  0.00  0.00    +0.000 A 
ATOM      6  N   UNL     1       4.858   5.705  16.908  0.00  0.00    +0.000 N 
ATOM      7  C   UNL     1       5.267   6.293  15.656  0.00  0.00    +0.000 C 
ATOM      8  C   UNL     1       5.845   5.092  14.912  0.00  0.00    +0.000 C 
ATOM      9  C   UNL     1       6.485   4.264  16.021  0.00  0.00    +0.000 C 
ATOM     10  C   UNL     1       5.593   4.502  17.243  0.00  0.00    +0.000 C 
ATOM     11  N   UNL     1       3.733   5.663  18.943  0.00  0.00    +0.000 NA
ATOM     12  C   UNL     1       2.871   6.235  19.807  0.00  0.00    +0.000 A 
ATOM     13  C   UNL     1       2.245   7.393  19.490  0.00  0.00    +0.000 A 
ATOM     14  C   UNL     1       1.393   8.275  20.261  0.00  0.00    +0.000 C 
ATOM     15  O   UNL     1       1.033   7.989  21.387  0.00  0.00    +0.000 OA
ENDROOT
BRANCH   1  19
ATOM     16  C   UNL     1      -0.391  13.010  21.110  0.00  0.00    +0.000 A 
ATOM     17  C   UNL     1      -1.237  11.976  20.723  0.00  0.00    +0.000 A 
ATOM     18  C   UNL     1      -0.717  10.814  20.149  0.00  0.00    +0.000 A 
ATOM     19  C   UNL     1       0.658  10.650  19.943  0.00  0.00    +0.000 A 
ATOM     20  C   UNL     1       1.501  11.716  20.274  0.00  0.00    +0.000 A 
ATOM     21  C   UNL     1       0.980  12.890  20.842  0.00  0.00    +0.000 A 
ATOM     22 CL   UNL     1       2.085  14.164  21.233  0.00  0.00    +0.000 Cl
BRANCH  16  24
ATOM     23  C   UNL     1      -1.048  14.018  23.134  0.00  0.00    +0.000 C 
ATOM     24  O   UNL     1      -0.843  14.147  21.728  0.00  0.00    +0.000 OA
ENDBRANCH  16  24
ENDBRANCH   1  19
TORSDOF 2
ENDMDL
MODEL 5
REMARK VINA RESULT:      -7.0      1.427      1.802
REMARK  Name = 
REMARK  3 active torsions:
REMARK  status: ('A' for Active; 'I' for Inactive)
REMARK    1  A    between atoms: C_1  and  O_2
REMARK    2  A    between atoms: O_2  and  C_3
REMARK    3  A    between atoms: C_6  and  N_7
REMARK                            x       y       z     vdW  Elec       q    Type
REMARK                         _______ _______ _______ _____ _____    ______ ____
ROOT
ATOM      1  N   UNL     1       0.911   9.307  20.643  0.00  0.00    +0.000 N 
ATOM      2  C   UNL     1       1.252   8.012  21.233  0.00  0.00    +0.000 C 
ATOM      3  C   UNL     1       1.909   7.291  20.090  0.00  0.00    +0.000 A 
ATOM      4  N   UNL     1       2.253   5.995  20.049  0.00  0.00    +0.000 NA
ATOM      5  C   UNL     1       2.778   5.567  18.878  0.00  0.00    +0.000 A 
ATOM      6  N   UNL     1       3.138   4.263  18.764  0.00  0.00    +0.000 N 
ATOM      7  C   UNL     1       2.915   3.277  19.792  0.00  0.00    +0.000 C 
ATOM      8  C   UNL     1       3.889   2.172  19.393  0.00  0.00    +0.000 C 
ATOM      9  C   UNL     1       3.875   2.221  17.869  0.00  0.00    +0.000 C 
ATOM     10  C   UNL     1       3.659   3.700  17.535  0.00  0.00    +0.000 C 
ATOM     11  N   UNL     1       2.970   6.375  17.803  0.00  0.00    +0.000 NA
ATOM     12  C   UNL     1       2.596   7.667  17.894  0.00  0.00    +0.000 A 
ATOM     13  C   UNL     1       2.055   8.149  19.038  0.00  0.00    +0.000 A 
ATOM     14  C   UNL     1       1.457   9.427  19.361  0.00  0.00    +0.000 C 
ATOM     15  O   UNL     1       1.457  10.349  18.568  0.00  0.00    +0.000 OA
ENDROOT
BRANCH   1  19
ATOM     16  C   UNL     1      -1.687  12.092  22.526  0.00  0.00    +0.000 A 
ATOM     17  C   UNL     1      -1.241  10.962  23.204  0.00  0.00    +0.000 A 
ATOM     18  C   UNL     1      -0.421  10.031  22.563  0.00  0.00    +0.000 A 
ATOM     19  C   UNL     1      -0.024  10.197  21.231  0.00  0.00    +0.000 A 
ATOM     20  C   UNL     1      -0.525  11.302  20.532  0.00  0.00    +0.000 A 
ATOM     21  C   UNL     1      -1.358  12.234  21.171  0.00  0.00    +0.000 A 
ATOM     22 CL   UNL     1      -1.933  13.579  20.246  0.00  0.00    +0.000 Cl
BRANCH  16  24
ATOM     23  C   UNL     1      -3.572  12.575  23.851  0.00  0.00    +0.000 C 
ATOM     24  O   UNL     1      -2.447  13.064  23.124  0.00  0.00    +0.000 OA
ENDBRANCH  16  24
ENDBRANCH   1  19
TORSDOF 2
ENDMDL
MODEL 6
REMARK VINA RESULT:      -7.0      2.169      3.089
REMARK  Name = 
REMARK  3 active torsions:
REMARK  status: ('A' for Active; 'I' for Inactive)
REMARK    1  A    between atoms: C_1  and  O_2
REMARK    2  A    between atoms: O_2  and  C_3
REMARK    3  A    between atoms: C_6  and  N_7
REMARK                            x       y       z     vdW  Elec       q    Type
REMARK                         _______ _______ _______ _____ _____    ______ ____
ROOT
ATOM      1  N   UNL     1       1.295   9.242  19.632  0.00  0.00    +0.000 N 
ATOM      2  C   UNL     1       1.853   9.130  18.283  0.00  0.00    +0.000 C 
ATOM      3  C   UNL     1       2.571   7.811  18.332  0.00  0.00    +0.000 A 
ATOM      4  N   UNL     1       3.401   7.313  17.403  0.00  0.00    +0.000 NA
ATOM      5  C   UNL     1       3.974   6.127  17.706  0.00  0.00    +0.000 A 
ATOM      6  N   UNL     1       4.834   5.571  16.815  0.00  0.00    +0.000 N 
ATOM      7  C   UNL     1       5.246   6.213  15.591  0.00  0.00    +0.000 C 
ATOM      8  C   UNL     1       5.778   5.038  14.776  0.00  0.00    +0.000 C 
ATOM      9  C   UNL     1       6.406   4.132  15.829  0.00  0.00    +0.000 C 
ATOM     10  C   UNL     1       5.537   4.331  17.074  0.00  0.00    +0.000 C 
ATOM     11  N   UNL     1       3.734   5.453  18.861  0.00  0.00    +0.000 NA
ATOM     12  C   UNL     1       2.900   6.003  19.766  0.00  0.00    +0.000 A 
ATOM     13  C   UNL     1       2.306   7.194  19.521  0.00  0.00    +0.000 A 
ATOM     14  C   UNL     1       1.491   8.058  20.349  0.00  0.00    +0.000 C 
ATOM     15  O   UNL     1       1.136   7.722  21.463  0.00  0.00    +0.000 OA
ENDROOT
BRANCH   1  19
ATOM     16  C   UNL     1      -0.292  12.919  21.048  0.00  0.00    +0.000 A 
ATOM     17  C   UNL     1       0.624  12.894  20.003  0.00  0.00    +0.000 A 
ATOM     18  C   UNL     1       1.172  11.684  19.571  0.00  0.00    +0.000 A 
ATOM     19  C   UNL     1       0.824  10.467  20.170  0.00  0.00    +0.000 A 
ATOM     20  C   UNL     1      -0.049  10.501  21.263  0.00  0.00    +0.000 A 
ATOM     21  C   UNL     1      -0.594  11.718  21.705  0.00  0.00    +0.000 A 
ATOM     22 CL   UNL     1      -1.674  11.681  23.057  0.00  0.00    +0.000 Cl
BRANCH  16  24
ATOM     23  C   UNL     1      -0.090  14.902  22.302  0.00  0.00    +0.000 C 
ATOM     24  O   UNL     1      -0.902  14.071  21.474  0.00  0.00    +0.000 OA
ENDBRANCH  16  24
ENDBRANCH   1  19
TORSDOF 2
ENDMDL
MODEL 7
REMARK VINA RESULT:      -7.0      3.105      3.613
REMARK  Name = 
REMARK  3 active torsions:
REMARK  status: ('A' for Active; 'I' for Inactive)
REMARK    1  A    between atoms: C_1  and  O_2
REMARK    2  A    between atoms: O_2  and  C_3
REMARK    3  A    between atoms: C_6  and  N_7
REMARK                            x       y       z     vdW  Elec       q    Type
REMARK                         _______ _______ _______ _____ _____    ______ ____
ROOT
ATOM      1  N   UNL     1       1.259  10.775  18.889  0.00  0.00    +0.000 N 
ATOM      2  C   UNL     1       1.766   9.853  17.872  0.00  0.00    +0.000 C 
ATOM      3  C   UNL     1       1.908   8.566  18.636  0.00  0.00    +0.000 A 
ATOM      4  N   UNL     1       2.503   7.442  18.211  0.00  0.00    +0.000 NA
ATOM      5  C   UNL     1       2.556   6.433  19.110  0.00  0.00    +0.000 A 
ATOM      6  N   UNL     1       3.154   5.269  18.750  0.00  0.00    +0.000 N 
ATOM      7  C   UNL     1       3.819   5.067  17.486  0.00  0.00    +0.000 C 
ATOM      8  C   UNL     1       3.871   3.546  17.390  0.00  0.00    +0.000 C 
ATOM      9  C   UNL     1       4.064   3.106  18.838  0.00  0.00    +0.000 C 
ATOM     10  C   UNL     1       3.307   4.153  19.661  0.00  0.00    +0.000 C 
ATOM     11  N   UNL     1       2.038   6.518  20.363  0.00  0.00    +0.000 NA
ATOM     12  C   UNL     1       1.461   7.676  20.744  0.00  0.00    +0.000 A 
ATOM     13  C   UNL     1       1.389   8.724  19.889  0.00  0.00    +0.000 A 
ATOM     14  C   UNL     1       0.955  10.093  20.071  0.00  0.00    +0.000 C 
ATOM     15  O   UNL     1       0.465  10.472  21.118  0.00  0.00    +0.000 OA
ENDROOT
BRANCH   1  19
ATOM     16  C   UNL     1       1.376  15.017  18.684  0.00  0.00    +0.000 A 
ATOM     17  C   UNL     1       0.190  14.350  18.973  0.00  0.00    +0.000 A 
ATOM     18  C   UNL     1       0.152  12.954  18.997  0.00  0.00    +0.000 A 
ATOM     19  C   UNL     1       1.292  12.185  18.733  0.00  0.00    +0.000 A 
ATOM     20  C   UNL     1       2.468  12.857  18.381  0.00  0.00    +0.000 A 
ATOM     21  C   UNL     1       2.506  14.260  18.345  0.00  0.00    +0.000 A 
ATOM     22 CL   UNL     1       3.998  15.022  17.910  0.00  0.00    +0.000 Cl
BRANCH  16  24
ATOM     23  C   UNL     1       0.263  17.078  18.438  0.00  0.00    +0.000 C 
ATOM     24  O   UNL     1       1.482  16.384  18.702  0.00  0.00    +0.000 OA
ENDBRANCH  16  24
ENDBRANCH   1  19
TORSDOF 2
ENDMDL
MODEL 8
REMARK VINA RESULT:      -6.9      3.629      8.693
REMARK  Name = 
REMARK  3 active torsions:
REMARK  status: ('A' for Active; 'I' for Inactive)
REMARK    1  A    between atoms: C_1  and  O_2
REMARK    2  A    between atoms: O_2  and  C_3
REMARK    3  A    between atoms: C_6  and  N_7
REMARK                            x       y       z     vdW  Elec       q    Type
REMARK                         _______ _______ _______ _____ _____    ______ ____
ROOT
ATOM      1  N   UNL     1       2.410   7.594  19.016  0.00  0.00    +0.000 N 
ATOM      2  C   UNL     1       2.147   8.959  18.555  0.00  0.00    +0.000 C 
ATOM      3  C   UNL     1       1.177   9.472  19.581  0.00  0.00    +0.000 A 
ATOM      4  N   UNL     1       0.483  10.619  19.527  0.00  0.00    +0.000 NA
ATOM      5  C   UNL     1      -0.378  10.830  20.549  0.00  0.00    +0.000 A 
ATOM      6  N   UNL     1      -1.120  11.966  20.552  0.00  0.00    +0.000 N 
ATOM      7  C   UNL     1      -1.114  12.931  19.480  0.00  0.00    +0.000 C 
ATOM      8  C   UNL     1      -1.690  14.169  20.160  0.00  0.00    +0.000 C 
ATOM      9  C   UNL     1      -2.706  13.594  21.140  0.00  0.00    +0.000 C 
ATOM     10  C   UNL     1      -2.105  12.254  21.575  0.00  0.00    +0.000 C 
ATOM     11  N   UNL     1      -0.539   9.964  21.583  0.00  0.00    +0.000 NA
ATOM     12  C   UNL     1       0.175   8.820  21.582  0.00  0.00    +0.000 A 
ATOM     13  C   UNL     1       1.043   8.550  20.579  0.00  0.00    +0.000 A 
ATOM     14  C   UNL     1       1.821   7.370  20.264  0.00  0.00    +0.000 C 
ATOM     15  O   UNL     1       1.848   6.408  21.007  0.00  0.00    +0.000 OA
ENDROOT
BRANCH   1  19
ATOM     16  C   UNL     1       4.356   4.595  16.722  0.00  0.00    +0.000 A 
ATOM     17  C   UNL     1       4.809   5.909  16.707  0.00  0.00    +0.000 A 
ATOM     18  C   UNL     1       4.138   6.897  17.431  0.00  0.00    +0.000 A 
ATOM     19  C   UNL     1       2.998   6.603  18.188  0.00  0.00    +0.000 A 
ATOM     20  C   UNL     1       2.507   5.293  18.151  0.00  0.00    +0.000 A 
ATOM     21  C   UNL     1       3.174   4.300  17.415  0.00  0.00    +0.000 A 
ATOM     22 CL   UNL     1       2.514   2.701  17.423  0.00  0.00    +0.000 Cl
BRANCH  16  24
ATOM     23  C   UNL     1       6.118   3.994  15.280  0.00  0.00    +0.000 C 
ATOM     24  O   UNL     1       5.009   3.577  16.074  0.00  0.00    +0.000 OA
ENDBRANCH  16  24
ENDBRANCH   1  19
TORSDOF 2
ENDMDL
MODEL 9
REMARK VINA RESULT:      -6.9      3.351      8.408
REMARK  Name = 
REMARK  3 active torsions:
REMARK  status: ('A' for Active; 'I' for Inactive)
REMARK    1  A    between atoms: C_1  and  O_2
REMARK    2  A    between atoms: O_2  and  C_3
REMARK    3  A    between atoms: C_6  and  N_7
REMARK                            x       y       z     vdW  Elec       q    Type
REMARK                         _______ _______ _______ _____ _____    ______ ____
ROOT
ATOM      1  N   UNL     1       2.198   7.688  18.930  0.00  0.00    +0.000 N 
ATOM      2  C   UNL     1       1.397   7.717  20.154  0.00  0.00    +0.000 C 
ATOM      3  C   UNL     1       0.772   9.083  20.106  0.00  0.00    +0.000 A 
ATOM      4  N   UNL     1       0.079   9.684  21.085  0.00  0.00    +0.000 NA
ATOM      5  C   UNL     1      -0.332  10.945  20.821  0.00  0.00    +0.000 A 
ATOM      6  N   UNL     1      -1.029  11.616  21.772  0.00  0.00    +0.000 N 
ATOM      7  C   UNL     1      -1.287  11.097  23.093  0.00  0.00    +0.000 C 
ATOM      8  C   UNL     1      -2.453  11.965  23.556  0.00  0.00    +0.000 C 
ATOM      9  C   UNL     1      -2.157  13.322  22.927  0.00  0.00    +0.000 C 
ATOM     10  C   UNL     1      -1.465  12.987  21.602  0.00  0.00    +0.000 C 
ATOM     11  N   UNL     1      -0.087  11.582  19.646  0.00  0.00    +0.000 NA
ATOM     12  C   UNL     1       0.624  10.936  18.699  0.00  0.00    +0.000 A 
ATOM     13  C   UNL     1       1.070   9.676  18.913  0.00  0.00    +0.000 A 
ATOM     14  C   UNL     1       1.947   8.817  18.145  0.00  0.00    +0.000 C 
ATOM     15  O   UNL     1       2.355   9.143  17.046  0.00  0.00    +0.000 OA
ENDROOT
BRANCH   1  19
ATOM     16  C   UNL     1       5.443   4.989  18.442  0.00  0.00    +0.000 A 
ATOM     17  C   UNL     1       5.405   6.191  17.743  0.00  0.00    +0.000 A 
ATOM     18  C   UNL     1       4.314   7.053  17.878  0.00  0.00    +0.000 A 
ATOM     19  C   UNL     1       3.232   6.741  18.710  0.00  0.00    +0.000 A 
ATOM     20  C   UNL     1       3.244   5.503  19.364  0.00  0.00    +0.000 A 
ATOM     21  C   UNL     1       4.335   4.631  19.222  0.00  0.00    +0.000 A 
ATOM     22 CL   UNL     1       4.284   3.121  20.067  0.00  0.00    +0.000 Cl
BRANCH  16  24
ATOM     23  C   UNL     1       7.615   4.608  17.616  0.00  0.00    +0.000 C 
ATOM     24  O   UNL     1       6.514   4.134  18.389  0.00  0.00    +0.000 OA
ENDBRANCH  16  24
ENDBRANCH   1  19
TORSDOF 2
ENDMDL
