MODEL 1
REMARK VINA RESULT:      -8.4      0.000      0.000
REMARK  Name = 
REMARK  11 active torsions:
REMARK  status: ('A' for Active; 'I' for Inactive)
REMARK    1  A    between atoms: C_1  and  O_2
REMARK    2  A    between atoms: O_2  and  C_3
REMARK    3  A    between atoms: C_6  and  C_7
REMARK    4  A    between atoms: N_8  and  N_9
REMARK    5  A    between atoms: C_13  and  C_14
REMARK    6  A    between atoms: C_14  and  C_15
REMARK    7  A    between atoms: C_18  and  O_19
REMARK    8  A    between atoms: O_19  and  C_20
REMARK    9  A    between atoms: C_21  and  O_22
REMARK   10  A    between atoms: O_22  and  C_23
REMARK   11  A    between atoms: C_25  and  O_26
REMARK                            x       y       z     vdW  Elec       q    Type
REMARK                         _______ _______ _______ _____ _____    ______ ____
ROOT
ATOM      1  N   UNL     1       8.847   8.204  18.718  0.00  0.00    +0.000 N 
ATOM      2  C   UNL     1       7.885   7.361  18.120  0.00  0.00    +0.000 A 
ATOM      3  N   UNL     1       7.152   7.800  17.068  0.00  0.00    +0.000 NA
ATOM      4  N   UNL     1       6.192   7.010  16.511  0.00  0.00    +0.000 NA
ATOM      5  C   UNL     1       5.996   5.782  17.017  0.00  0.00    +0.000 A 
ATOM      6  C   UNL     1       6.790   5.366  18.073  0.00  0.00    +0.000 A 
ATOM      7  N   UNL     1       7.729   6.137  18.650  0.00  0.00    +0.000 NA
ATOM      8  H   UNL     1       9.079   7.796  19.620  0.00  0.00    +0.000 HD
ENDROOT
BRANCH   1  10
ATOM      9  C   UNL     1       9.477  10.331  19.124  0.00  0.00    +0.000 C 
ATOM     10  N   UNL     1       8.581   9.536  18.639  0.00  0.00    +0.000 NA
BRANCH   9  14
ATOM     11  C   UNL     1       8.905  14.568  18.971  0.00  0.00    +0.000 A 
ATOM     12  C   UNL     1       9.376  13.964  20.135  0.00  0.00    +0.000 A 
ATOM     13  C   UNL     1       9.567  12.583  20.188  0.00  0.00    +0.000 A 
ATOM     14  C   UNL     1       9.269  11.794  19.072  0.00  0.00    +0.000 A 
ATOM     15  C   UNL     1       8.772  12.388  17.910  0.00  0.00    +0.000 A 
ATOM     16  C   UNL     1       8.590  13.777  17.862  0.00  0.00    +0.000 A 
BRANCH  11  18
ATOM     17  C   UNL     1       9.310  16.670  17.970  0.00  0.00    +0.000 C 
ATOM     18  O   UNL     1       8.756  15.925  19.046  0.00  0.00    +0.000 OA
ENDBRANCH  11  18
ENDBRANCH   9  14
ENDBRANCH   1  10
BRANCH   6  19
ATOM     19  O   UNL     1       6.673   4.134  18.652  0.00  0.00    +0.000 OA
ATOM     20  H   UNL     1       6.336   4.246  19.551  0.00  0.00    +0.000 HD
ENDBRANCH   6  19
BRANCH   5  21
ATOM     21  C   UNL     1       4.915   4.963  16.373  0.00  0.00    +0.000 C 
BRANCH  21  22
ATOM     22  C   UNL     1       3.800   4.573  17.317  0.00  0.00    +0.000 A 
ATOM     23  C   UNL     1       3.267   3.282  17.298  0.00  0.00    +0.000 A 
ATOM     24  C   UNL     1       2.266   2.924  18.200  0.00  0.00    +0.000 A 
ATOM     25  C   UNL     1       1.773   3.838  19.141  0.00  0.00    +0.000 A 
ATOM     26  C   UNL     1       2.276   5.152  19.152  0.00  0.00    +0.000 A 
ATOM     27  C   UNL     1       3.275   5.504  18.227  0.00  0.00    +0.000 A 
BRANCH  25  28
ATOM     28  O   UNL     1       0.819   3.277  19.950  0.00  0.00    +0.000 OA
ATOM     29  C   UNL     1       1.199   2.783  21.226  0.00  0.00    +0.000 C 
ENDBRANCH  25  28
BRANCH  26  30
ATOM     30  O   UNL     1       1.771   6.038  20.065  0.00  0.00    +0.000 OA
ATOM     31  C   UNL     1       2.120   7.410  19.946  0.00  0.00    +0.000 C 
ENDBRANCH  26  30
ENDBRANCH  21  22
ENDBRANCH   5  21
TORSDOF 8
ENDMDL
MODEL 2
REMARK VINA RESULT:      -7.9      1.158      2.096
REMARK  Name = 
REMARK  11 active torsions:
REMARK  status: ('A' for Active; 'I' for Inactive)
REMARK    1  A    between atoms: C_1  and  O_2
REMARK    2  A    between atoms: O_2  and  C_3
REMARK    3  A    between atoms: C_6  and  C_7
REMARK    4  A    between atoms: N_8  and  N_9
REMARK    5  A    between atoms: C_13  and  C_14
REMARK    6  A    between atoms: C_14  and  C_15
REMARK    7  A    between atoms: C_18  and  O_19
REMARK    8  A    between atoms: O_19  and  C_20
REMARK    9  A    between atoms: C_21  and  O_22
REMARK   10  A    between atoms: O_22  and  C_23
REMARK   11  A    between atoms: C_25  and  O_26
REMARK                            x       y       z     vdW  Elec       q    Type
REMARK                         _______ _______ _______ _____ _____    ______ ____
ROOT
ATOM      1  N   UNL     1       9.152   8.713  19.158  0.00  0.00    +0.000 N 
ATOM      2  C   UNL     1       8.287   7.883  18.413  0.00  0.00    +0.000 A 
ATOM      3  N   UNL     1       7.677   8.357  17.300  0.00  0.00    +0.000 NA
ATOM      4  N   UNL     1       6.808   7.579  16.598  0.00  0.00    +0.000 NA
ATOM      5  C   UNL     1       6.579   6.325  17.021  0.00  0.00    +0.000 A 
ATOM      6  C   UNL     1       7.250   5.875  18.147  0.00  0.00    +0.000 A 
ATOM      7  N   UNL     1       8.096   6.634  18.866  0.00  0.00    +0.000 NA
ATOM      8  H   UNL     1       9.283   8.268  20.064  0.00  0.00    +0.000 HD
ENDROOT
BRANCH   1  10
ATOM      9  C   UNL     1       9.850  10.830  18.809  0.00  0.00    +0.000 C 
ATOM     10  N   UNL     1       8.868  10.042  19.106  0.00  0.00    +0.000 NA
BRANCH   9  14
ATOM     11  C   UNL     1       9.181  15.046  18.540  0.00  0.00    +0.000 A 
ATOM     12  C   UNL     1      10.016  14.407  17.625  0.00  0.00    +0.000 A 
ATOM     13  C   UNL     1      10.234  13.031  17.708  0.00  0.00    +0.000 A 
ATOM     14  C   UNL     1       9.625  12.288  18.724  0.00  0.00    +0.000 A 
ATOM     15  C   UNL     1       8.807  12.925  19.660  0.00  0.00    +0.000 A 
ATOM     16  C   UNL     1       8.586  14.306  19.566  0.00  0.00    +0.000 A 
BRANCH  11  18
ATOM     17  C   UNL     1       7.741  16.920  18.523  0.00  0.00    +0.000 C 
ATOM     18  O   UNL     1       9.051  16.395  18.356  0.00  0.00    +0.000 OA
ENDBRANCH  11  18
ENDBRANCH   9  14
ENDBRANCH   1  10
BRANCH   6  19
ATOM     19  O   UNL     1       7.091   4.616  18.653  0.00  0.00    +0.000 OA
ATOM     20  H   UNL     1       7.324   4.628  19.591  0.00  0.00    +0.000 HD
ENDBRANCH   6  19
BRANCH   5  21
ATOM     21  C   UNL     1       5.602   5.519  16.216  0.00  0.00    +0.000 C 
BRANCH  21  22
ATOM     22  C   UNL     1       4.404   5.044  17.008  0.00  0.00    +0.000 A 
ATOM     23  C   UNL     1       3.543   5.960  17.619  0.00  0.00    +0.000 A 
ATOM     24  C   UNL     1       2.421   5.509  18.314  0.00  0.00    +0.000 A 
ATOM     25  C   UNL     1       2.129   4.142  18.417  0.00  0.00    +0.000 A 
ATOM     26  C   UNL     1       3.004   3.207  17.836  0.00  0.00    +0.000 A 
ATOM     27  C   UNL     1       4.140   3.673  17.151  0.00  0.00    +0.000 A 
BRANCH  25  28
ATOM     28  O   UNL     1       0.969   3.917  19.113  0.00  0.00    +0.000 OA
ATOM     29  C   UNL     1       1.023   3.789  20.525  0.00  0.00    +0.000 C 
ENDBRANCH  25  28
BRANCH  26  30
ATOM     30  O   UNL     1       2.713   1.874  17.963  0.00  0.00    +0.000 OA
ATOM     31  C   UNL     1       3.615   1.048  18.686  0.00  0.00    +0.000 C 
ENDBRANCH  26  30
ENDBRANCH  21  22
ENDBRANCH   5  21
TORSDOF 8
ENDMDL
MODEL 3
REMARK VINA RESULT:      -7.8      1.194      2.016
REMARK  Name = 
REMARK  11 active torsions:
REMARK  status: ('A' for Active; 'I' for Inactive)
REMARK    1  A    between atoms: C_1  and  O_2
REMARK    2  A    between atoms: O_2  and  C_3
REMARK    3  A    between atoms: C_6  and  C_7
REMARK    4  A    between atoms: N_8  and  N_9
REMARK    5  A    between atoms: C_13  and  C_14
REMARK    6  A    between atoms: C_14  and  C_15
REMARK    7  A    between atoms: C_18  and  O_19
REMARK    8  A    between atoms: O_19  and  C_20
REMARK    9  A    between atoms: C_21  and  O_22
REMARK   10  A    between atoms: O_22  and  C_23
REMARK   11  A    between atoms: C_25  and  O_26
REMARK                            x       y       z     vdW  Elec       q    Type
REMARK                         _______ _______ _______ _____ _____    ______ ____
ROOT
ATOM      1  N   UNL     1       9.182   8.730  19.117  0.00  0.00    +0.000 N 
ATOM      2  C   UNL     1       8.335   7.853  18.405  0.00  0.00    +0.000 A 
ATOM      3  N   UNL     1       7.777   8.244  17.233  0.00  0.00    +0.000 NA
ATOM      4  N   UNL     1       6.926   7.421  16.559  0.00  0.00    +0.000 NA
ATOM      5  C   UNL     1       6.661   6.209  17.072  0.00  0.00    +0.000 A 
ATOM      6  C   UNL     1       7.279   5.842  18.256  0.00  0.00    +0.000 A 
ATOM      7  N   UNL     1       8.107   6.646  18.947  0.00  0.00    +0.000 NA
ATOM      8  H   UNL     1       9.268   8.357  20.060  0.00  0.00    +0.000 HD
ENDROOT
BRANCH   1  10
ATOM      9  C   UNL     1       9.944  10.833  18.825  0.00  0.00    +0.000 C 
ATOM     10  N   UNL     1       8.919  10.054  18.948  0.00  0.00    +0.000 NA
BRANCH   9  14
ATOM     11  C   UNL     1       9.390  15.040  18.284  0.00  0.00    +0.000 A 
ATOM     12  C   UNL     1       8.639  14.348  19.233  0.00  0.00    +0.000 A 
ATOM     13  C   UNL     1       8.820  12.977  19.414  0.00  0.00    +0.000 A 
ATOM     14  C   UNL     1       9.748  12.285  18.630  0.00  0.00    +0.000 A 
ATOM     15  C   UNL     1      10.486  12.965  17.659  0.00  0.00    +0.000 A 
ATOM     16  C   UNL     1      10.305  14.344  17.487  0.00  0.00    +0.000 A 
BRANCH  11  18
ATOM     17  C   UNL     1      10.099  17.167  17.536  0.00  0.00    +0.000 C 
ATOM     18  O   UNL     1       9.120  16.377  18.198  0.00  0.00    +0.000 OA
ENDBRANCH  11  18
ENDBRANCH   9  14
ENDBRANCH   1  10
BRANCH   6  19
ATOM     19  O   UNL     1       7.082   4.630  18.854  0.00  0.00    +0.000 OA
ATOM     20  H   UNL     1       7.589   3.962  18.373  0.00  0.00    +0.000 HD
ENDBRANCH   6  19
BRANCH   5  21
ATOM     21  C   UNL     1       5.706   5.353  16.293  0.00  0.00    +0.000 C 
BRANCH  21  22
ATOM     22  C   UNL     1       4.486   4.928  17.081  0.00  0.00    +0.000 A 
ATOM     23  C   UNL     1       3.598   5.879  17.590  0.00  0.00    +0.000 A 
ATOM     24  C   UNL     1       2.458   5.472  18.282  0.00  0.00    +0.000 A 
ATOM     25  C   UNL     1       2.174   4.114  18.483  0.00  0.00    +0.000 A 
ATOM     26  C   UNL     1       3.075   3.146  18.006  0.00  0.00    +0.000 A 
ATOM     27  C   UNL     1       4.229   3.569  17.323  0.00  0.00    +0.000 A 
BRANCH  25  28
ATOM     28  O   UNL     1       0.993   3.932  19.156  0.00  0.00    +0.000 OA
ATOM     29  C   UNL     1       0.943   4.200  20.548  0.00  0.00    +0.000 C 
ENDBRANCH  25  28
BRANCH  26  30
ATOM     30  O   UNL     1       2.792   1.825  18.227  0.00  0.00    +0.000 OA
ATOM     31  C   UNL     1       3.846   0.962  18.632  0.00  0.00    +0.000 C 
ENDBRANCH  26  30
ENDBRANCH  21  22
ENDBRANCH   5  21
TORSDOF 8
ENDMDL
MODEL 4
REMARK VINA RESULT:      -7.8      1.071      1.949
REMARK  Name = 
REMARK  11 active torsions:
REMARK  status: ('A' for Active; 'I' for Inactive)
REMARK    1  A    between atoms: C_1  and  O_2
REMARK    2  A    between atoms: O_2  and  C_3
REMARK    3  A    between atoms: C_6  and  C_7
REMARK    4  A    between atoms: N_8  and  N_9
REMARK    5  A    between atoms: C_13  and  C_14
REMARK    6  A    between atoms: C_14  and  C_15
REMARK    7  A    between atoms: C_18  and  O_19
REMARK    8  A    between atoms: O_19  and  C_20
REMARK    9  A    between atoms: C_21  and  O_22
REMARK   10  A    between atoms: O_22  and  C_23
REMARK   11  A    between atoms: C_25  and  O_26
REMARK                            x       y       z     vdW  Elec       q    Type
REMARK                         _______ _______ _______ _____ _____    ______ ____
ROOT
ATOM      1  N   UNL     1       9.055   8.542  18.978  0.00  0.00    +0.000 N 
ATOM      2  C   UNL     1       8.152   7.714  18.276  0.00  0.00    +0.000 A 
ATOM      3  N   UNL     1       7.435   8.210  17.238  0.00  0.00    +0.000 NA
ATOM      4  N   UNL     1       6.532   7.431  16.582  0.00  0.00    +0.000 NA
ATOM      5  C   UNL     1       6.375   6.156  16.973  0.00  0.00    +0.000 A 
ATOM      6  C   UNL     1       7.153   5.685  18.018  0.00  0.00    +0.000 A 
ATOM      7  N   UNL     1       8.036   6.443  18.692  0.00  0.00    +0.000 NA
ATOM      8  H   UNL     1       9.275   8.067  19.850  0.00  0.00    +0.000 HD
ENDROOT
BRANCH   1  10
ATOM      9  C   UNL     1       9.680  10.684  19.309  0.00  0.00    +0.000 C 
ATOM     10  N   UNL     1       8.729   9.863  19.004  0.00  0.00    +0.000 NA
BRANCH   9  14
ATOM     11  C   UNL     1       8.937  14.894  19.438  0.00  0.00    +0.000 A 
ATOM     12  C   UNL     1       9.196  14.190  20.612  0.00  0.00    +0.000 A 
ATOM     13  C   UNL     1       9.442  12.817  20.574  0.00  0.00    +0.000 A 
ATOM     14  C   UNL     1       9.413  12.137  19.352  0.00  0.00    +0.000 A 
ATOM     15  C   UNL     1       9.130  12.830  18.174  0.00  0.00    +0.000 A 
ATOM     16  C   UNL     1       8.891  14.211  18.218  0.00  0.00    +0.000 A 
BRANCH  11  18
ATOM     17  C   UNL     1       8.385  16.644  20.928  0.00  0.00    +0.000 C 
ATOM     18  O   UNL     1       8.708  16.232  19.606  0.00  0.00    +0.000 OA
ENDBRANCH  11  18
ENDBRANCH   9  14
ENDBRANCH   1  10
BRANCH   6  19
ATOM     19  O   UNL     1       7.074   4.404  18.484  0.00  0.00    +0.000 OA
ATOM     20  H   UNL     1       7.896   4.192  18.947  0.00  0.00    +0.000 HD
ENDBRANCH   6  19
BRANCH   5  21
ATOM     21  C   UNL     1       5.355   5.351  16.221  0.00  0.00    +0.000 C 
BRANCH  21  22
ATOM     22  C   UNL     1       4.212   4.860  17.081  0.00  0.00    +0.000 A 
ATOM     23  C   UNL     1       3.326   5.763  17.675  0.00  0.00    +0.000 A 
ATOM     24  C   UNL     1       2.254   5.294  18.434  0.00  0.00    +0.000 A 
ATOM     25  C   UNL     1       2.037   3.922  18.619  0.00  0.00    +0.000 A 
ATOM     26  C   UNL     1       2.939   3.002  18.056  0.00  0.00    +0.000 A 
ATOM     27  C   UNL     1       4.025   3.487  17.305  0.00  0.00    +0.000 A 
BRANCH  25  28
ATOM     28  O   UNL     1       0.915   3.678  19.368  0.00  0.00    +0.000 OA
ATOM     29  C   UNL     1       1.048   3.475  20.766  0.00  0.00    +0.000 C 
ENDBRANCH  25  28
BRANCH  26  30
ATOM     30  O   UNL     1       2.722   1.666  18.262  0.00  0.00    +0.000 OA
ATOM     31  C   UNL     1       3.775   0.884  18.810  0.00  0.00    +0.000 C 
ENDBRANCH  26  30
ENDBRANCH  21  22
ENDBRANCH   5  21
TORSDOF 8
ENDMDL
MODEL 5
REMARK VINA RESULT:      -7.7      1.056      1.218
REMARK  Name = 
REMARK  11 active torsions:
REMARK  status: ('A' for Active; 'I' for Inactive)
REMARK    1  A    between atoms: C_1  and  O_2
REMARK    2  A    between atoms: O_2  and  C_3
REMARK    3  A    between atoms: C_6  and  C_7
REMARK    4  A    between atoms: N_8  and  N_9
REMARK    5  A    between atoms: C_13  and  C_14
REMARK    6  A    between atoms: C_14  and  C_15
REMARK    7  A    between atoms: C_18  and  O_19
REMARK    8  A    between atoms: O_19  and  C_20
REMARK    9  A    between atoms: C_21  and  O_22
REMARK   10  A    between atoms: O_22  and  C_23
REMARK   11  A    between atoms: C_25  and  O_26
REMARK                            x       y       z     vdW  Elec       q    Type
REMARK                         _______ _______ _______ _____ _____    ______ ____
ROOT
ATOM      1  N   UNL     1       9.113   8.707  19.114  0.00  0.00    +0.000 N 
ATOM      2  C   UNL     1       8.312   7.790  18.399  0.00  0.00    +0.000 A 
ATOM      3  N   UNL     1       7.802   8.127  17.190  0.00  0.00    +0.000 NA
ATOM      4  N   UNL     1       6.994   7.267  16.511  0.00  0.00    +0.000 NA
ATOM      5  C   UNL     1       6.723   6.071  17.058  0.00  0.00    +0.000 A 
ATOM      6  C   UNL     1       7.292   5.759  18.282  0.00  0.00    +0.000 A 
ATOM      7  N   UNL     1       8.076   6.602  18.977  0.00  0.00    +0.000 NA
ATOM      8  H   UNL     1       9.162   8.372  20.074  0.00  0.00    +0.000 HD
ENDROOT
BRANCH   1  10
ATOM      9  C   UNL     1       9.859  10.804  18.745  0.00  0.00    +0.000 C 
ATOM     10  N   UNL     1       8.840  10.020  18.882  0.00  0.00    +0.000 NA
BRANCH   9  14
ATOM     11  C   UNL     1       9.251  14.964  17.957  0.00  0.00    +0.000 A 
ATOM     12  C   UNL     1      10.421  14.332  17.538  0.00  0.00    +0.000 A 
ATOM     13  C   UNL     1      10.621  12.975  17.790  0.00  0.00    +0.000 A 
ATOM     14  C   UNL     1       9.651  12.244  18.482  0.00  0.00    +0.000 A 
ATOM     15  C   UNL     1       8.488  12.873  18.928  0.00  0.00    +0.000 A 
ATOM     16  C   UNL     1       8.289  14.236  18.665  0.00  0.00    +0.000 A 
BRANCH  11  18
ATOM     17  C   UNL     1       8.209  17.042  18.382  0.00  0.00    +0.000 C 
ATOM     18  O   UNL     1       9.175  16.295  17.655  0.00  0.00    +0.000 OA
ENDBRANCH  11  18
ENDBRANCH   9  14
ENDBRANCH   1  10
BRANCH   6  19
ATOM     19  O   UNL     1       7.085   4.567  18.917  0.00  0.00    +0.000 OA
ATOM     20  H   UNL     1       6.703   3.943  18.285  0.00  0.00    +0.000 HD
ENDBRANCH   6  19
BRANCH   5  21
ATOM     21  C   UNL     1       5.816   5.171  16.271  0.00  0.00    +0.000 C 
BRANCH  21  22
ATOM     22  C   UNL     1       4.514   4.853  16.973  0.00  0.00    +0.000 A 
ATOM     23  C   UNL     1       4.047   3.538  17.051  0.00  0.00    +0.000 A 
ATOM     24  C   UNL     1       2.865   3.255  17.734  0.00  0.00    +0.000 A 
ATOM     25  C   UNL     1       2.121   4.268  18.354  0.00  0.00    +0.000 A 
ATOM     26  C   UNL     1       2.560   5.600  18.256  0.00  0.00    +0.000 A 
ATOM     27  C   UNL     1       3.746   5.875  17.552  0.00  0.00    +0.000 A 
BRANCH  25  28
ATOM     28  O   UNL     1       1.015   3.772  18.995  0.00  0.00    +0.000 OA
ATOM     29  C   UNL     1       0.692   2.398  18.851  0.00  0.00    +0.000 C 
ENDBRANCH  25  28
BRANCH  26  30
ATOM     30  O   UNL     1       1.812   6.580  18.852  0.00  0.00    +0.000 OA
ATOM     31  C   UNL     1       2.196   7.039  20.141  0.00  0.00    +0.000 C 
ENDBRANCH  26  30
ENDBRANCH  21  22
ENDBRANCH   5  21
TORSDOF 8
ENDMDL
MODEL 6
REMARK VINA RESULT:      -7.7      5.867      9.312
REMARK  Name = 
REMARK  11 active torsions:
REMARK  status: ('A' for Active; 'I' for Inactive)
REMARK    1  A    between atoms: C_1  and  O_2
REMARK    2  A    between atoms: O_2  and  C_3
REMARK    3  A    between atoms: C_6  and  C_7
REMARK    4  A    between atoms: N_8  and  N_9
REMARK    5  A    between atoms: C_13  and  C_14
REMARK    6  A    between atoms: C_14  and  C_15
REMARK    7  A    between atoms: C_18  and  O_19
REMARK    8  A    between atoms: O_19  and  C_20
REMARK    9  A    between atoms: C_21  and  O_22
REMARK   10  A    between atoms: O_22  and  C_23
REMARK   11  A    between atoms: C_25  and  O_26
REMARK                            x       y       z     vdW  Elec       q    Type
REMARK                         _______ _______ _______ _____ _____    ______ ____
ROOT
ATOM      1  N   UNL     1       1.999   6.698  20.454  0.00  0.00    +0.000 N 
ATOM      2  C   UNL     1       1.510   8.013  20.617  0.00  0.00    +0.000 A 
ATOM      3  N   UNL     1       1.448   8.855  19.557  0.00  0.00    +0.000 NA
ATOM      4  N   UNL     1       1.018  10.137  19.713  0.00  0.00    +0.000 NA
ATOM      5  C   UNL     1       0.643  10.548  20.935  0.00  0.00    +0.000 A 
ATOM      6  C   UNL     1       0.694   9.642  21.981  0.00  0.00    +0.000 A 
ATOM      7  N   UNL     1       1.135   8.377  21.854  0.00  0.00    +0.000 NA
ATOM      8  H   UNL     1       2.207   6.342  21.384  0.00  0.00    +0.000 HD
ENDROOT
BRANCH   1  10
ATOM      9  C   UNL     1       3.722   5.536  19.577  0.00  0.00    +0.000 C 
ATOM     10  N   UNL     1       2.915   6.539  19.461  0.00  0.00    +0.000 NA
BRANCH   9  14
ATOM     11  C   UNL     1       6.672   4.841  16.558  0.00  0.00    +0.000 A 
ATOM     12  C   UNL     1       5.316   4.824  16.234  0.00  0.00    +0.000 A 
ATOM     13  C   UNL     1       4.352   5.054  17.215  0.00  0.00    +0.000 A 
ATOM     14  C   UNL     1       4.743   5.286  18.537  0.00  0.00    +0.000 A 
ATOM     15  C   UNL     1       6.097   5.279  18.876  0.00  0.00    +0.000 A 
ATOM     16  C   UNL     1       7.062   5.056  17.884  0.00  0.00    +0.000 A 
BRANCH  11  18
ATOM     17  C   UNL     1       6.984   4.833  14.216  0.00  0.00    +0.000 C 
ATOM     18  O   UNL     1       7.518   4.599  15.512  0.00  0.00    +0.000 OA
ENDBRANCH  11  18
ENDBRANCH   9  14
ENDBRANCH   1  10
BRANCH   6  19
ATOM     19  O   UNL     1       0.327   9.959  23.258  0.00  0.00    +0.000 OA
ATOM     20  H   UNL     1       0.401  10.916  23.373  0.00  0.00    +0.000 HD
ENDBRANCH   6  19
BRANCH   5  21
ATOM     21  C   UNL     1       0.192  11.975  21.047  0.00  0.00    +0.000 C 
BRANCH  21  22
ATOM     22  C   UNL     1      -1.283  12.172  20.778  0.00  0.00    +0.000 A 
ATOM     23  C   UNL     1      -2.128  12.681  21.768  0.00  0.00    +0.000 A 
ATOM     24  C   UNL     1      -3.479  12.893  21.494  0.00  0.00    +0.000 A 
ATOM     25  C   UNL     1      -4.020  12.606  20.233  0.00  0.00    +0.000 A 
ATOM     26  C   UNL     1      -3.190  12.062  19.237  0.00  0.00    +0.000 A 
ATOM     27  C   UNL     1      -1.833  11.838  19.531  0.00  0.00    +0.000 A 
BRANCH  25  28
ATOM     28  O   UNL     1      -5.354  12.916  20.166  0.00  0.00    +0.000 OA
ATOM     29  C   UNL     1      -6.233  12.407  21.157  0.00  0.00    +0.000 C 
ENDBRANCH  25  28
BRANCH  26  30
ATOM     30  O   UNL     1      -3.739  11.769  18.017  0.00  0.00    +0.000 OA
ATOM     31  C   UNL     1      -3.894  10.405  17.651  0.00  0.00    +0.000 C 
ENDBRANCH  26  30
ENDBRANCH  21  22
ENDBRANCH   5  21
TORSDOF 8
ENDMDL
MODEL 7
REMARK VINA RESULT:      -7.7      6.029      9.444
REMARK  Name = 
REMARK  11 active torsions:
REMARK  status: ('A' for Active; 'I' for Inactive)
REMARK    1  A    between atoms: C_1  and  O_2
REMARK    2  A    between atoms: O_2  and  C_3
REMARK    3  A    between atoms: C_6  and  C_7
REMARK    4  A    between atoms: N_8  and  N_9
REMARK    5  A    between atoms: C_13  and  C_14
REMARK    6  A    between atoms: C_14  and  C_15
REMARK    7  A    between atoms: C_18  and  O_19
REMARK    8  A    between atoms: O_19  and  C_20
REMARK    9  A    between atoms: C_21  and  O_22
REMARK   10  A    between atoms: O_22  and  C_23
REMARK   11  A    between atoms: C_25  and  O_26
REMARK                            x       y       z     vdW  Elec       q    Type
REMARK                         _______ _______ _______ _____ _____    ______ ____
ROOT
ATOM      1  N   UNL     1       1.882   6.780  20.534  0.00  0.00    +0.000 N 
ATOM      2  C   UNL     1       1.394   8.082  20.777  0.00  0.00    +0.000 A 
ATOM      3  N   UNL     1       1.287   8.973  19.760  0.00  0.00    +0.000 NA
ATOM      4  N   UNL     1       0.858  10.244  19.992  0.00  0.00    +0.000 NA
ATOM      5  C   UNL     1       0.529  10.595  21.245  0.00  0.00    +0.000 A 
ATOM      6  C   UNL     1       0.625   9.642  22.246  0.00  0.00    +0.000 A 
ATOM      7  N   UNL     1       1.066   8.387  22.042  0.00  0.00    +0.000 NA
ATOM      8  H   UNL     1       2.128   6.382  21.437  0.00  0.00    +0.000 HD
ENDROOT
BRANCH   1  10
ATOM      9  C   UNL     1       3.664   5.755  19.604  0.00  0.00    +0.000 C 
ATOM     10  N   UNL     1       2.759   6.673  19.499  0.00  0.00    +0.000 NA
BRANCH   9  14
ATOM     11  C   UNL     1       6.514   5.181  16.466  0.00  0.00    +0.000 A 
ATOM     12  C   UNL     1       6.750   4.655  17.736  0.00  0.00    +0.000 A 
ATOM     13  C   UNL     1       5.821   4.838  18.760  0.00  0.00    +0.000 A 
ATOM     14  C   UNL     1       4.652   5.566  18.521  0.00  0.00    +0.000 A 
ATOM     15  C   UNL     1       4.419   6.119  17.260  0.00  0.00    +0.000 A 
ATOM     16  C   UNL     1       5.353   5.925  16.232  0.00  0.00    +0.000 A 
BRANCH  11  18
ATOM     17  C   UNL     1       7.084   4.891  14.191  0.00  0.00    +0.000 C 
ATOM     18  O   UNL     1       7.499   4.939  15.550  0.00  0.00    +0.000 OA
ENDBRANCH  11  18
ENDBRANCH   9  14
ENDBRANCH   1  10
BRANCH   6  19
ATOM     19  O   UNL     1       0.307   9.897  23.549  0.00  0.00    +0.000 OA
ATOM     20  H   UNL     1       1.076  10.290  23.984  0.00  0.00    +0.000 HD
ENDBRANCH   6  19
BRANCH   5  21
ATOM     21  C   UNL     1       0.077  12.012  21.441  0.00  0.00    +0.000 C 
BRANCH  21  22
ATOM     22  C   UNL     1      -1.403  12.219  21.207  0.00  0.00    +0.000 A 
ATOM     23  C   UNL     1      -1.916  12.311  19.911  0.00  0.00    +0.000 A 
ATOM     24  C   UNL     1      -3.287  12.463  19.709  0.00  0.00    +0.000 A 
ATOM     25  C   UNL     1      -4.179  12.526  20.788  0.00  0.00    +0.000 A 
ATOM     26  C   UNL     1      -3.676  12.468  22.100  0.00  0.00    +0.000 A 
ATOM     27  C   UNL     1      -2.289  12.330  22.291  0.00  0.00    +0.000 A 
BRANCH  25  28
ATOM     28  O   UNL     1      -5.480  12.644  20.371  0.00  0.00    +0.000 OA
ATOM     29  C   UNL     1      -6.019  13.938  20.148  0.00  0.00    +0.000 C 
ENDBRANCH  25  28
BRANCH  26  30
ATOM     30  O   UNL     1      -4.560  12.550  23.143  0.00  0.00    +0.000 OA
ATOM     31  C   UNL     1      -4.049  12.532  24.469  0.00  0.00    +0.000 C 
ENDBRANCH  26  30
ENDBRANCH  21  22
ENDBRANCH   5  21
TORSDOF 8
ENDMDL
MODEL 8
REMARK VINA RESULT:      -7.7      5.968      9.474
REMARK  Name = 
REMARK  11 active torsions:
REMARK  status: ('A' for Active; 'I' for Inactive)
REMARK    1  A    between atoms: C_1  and  O_2
REMARK    2  A    between atoms: O_2  and  C_3
REMARK    3  A    between atoms: C_6  and  C_7
REMARK    4  A    between atoms: N_8  and  N_9
REMARK    5  A    between atoms: C_13  and  C_14
REMARK    6  A    between atoms: C_14  and  C_15
REMARK    7  A    between atoms: C_18  and  O_19
REMARK    8  A    between atoms: O_19  and  C_20
REMARK    9  A    between atoms: C_21  and  O_22
REMARK   10  A    between atoms: O_22  and  C_23
REMARK   11  A    between atoms: C_25  and  O_26
REMARK                            x       y       z     vdW  Elec       q    Type
REMARK                         _______ _______ _______ _____ _____    ______ ____
ROOT
ATOM      1  N   UNL     1       1.935   6.863  20.394  0.00  0.00    +0.000 N 
ATOM      2  C   UNL     1       1.456   8.162  20.673  0.00  0.00    +0.000 A 
ATOM      3  N   UNL     1       1.364   9.083  19.683  0.00  0.00    +0.000 NA
ATOM      4  N   UNL     1       0.944  10.350  19.949  0.00  0.00    +0.000 NA
ATOM      5  C   UNL     1       0.608  10.666  21.210  0.00  0.00    +0.000 A 
ATOM      6  C   UNL     1       0.688   9.683  22.182  0.00  0.00    +0.000 A 
ATOM      7  N   UNL     1       1.120   8.432  21.944  0.00  0.00    +0.000 NA
ATOM      8  H   UNL     1       2.171   6.437  21.287  0.00  0.00    +0.000 HD
ENDROOT
BRANCH   1  10
ATOM      9  C   UNL     1       3.715   5.851  19.448  0.00  0.00    +0.000 C 
ATOM     10  N   UNL     1       2.819   6.780  19.364  0.00  0.00    +0.000 NA
BRANCH   9  14
ATOM     11  C   UNL     1       6.601   5.402  16.323  0.00  0.00    +0.000 A 
ATOM     12  C   UNL     1       5.388   6.043  16.074  0.00  0.00    +0.000 A 
ATOM     13  C   UNL     1       4.446   6.194  17.091  0.00  0.00    +0.000 A 
ATOM     14  C   UNL     1       4.710   5.686  18.367  0.00  0.00    +0.000 A 
ATOM     15  C   UNL     1       5.911   5.020  18.619  0.00  0.00    +0.000 A 
ATOM     16  C   UNL     1       6.857   4.879  17.594  0.00  0.00    +0.000 A 
BRANCH  11  18
ATOM     17  C   UNL     1       6.875   4.754  14.066  0.00  0.00    +0.000 C 
ATOM     18  O   UNL     1       7.438   5.313  15.246  0.00  0.00    +0.000 OA
ENDBRANCH  11  18
ENDBRANCH   9  14
ENDBRANCH   1  10
BRANCH   6  19
ATOM     19  O   UNL     1       0.362   9.902  23.490  0.00  0.00    +0.000 OA
ATOM     20  H   UNL     1       0.777  10.726  23.779  0.00  0.00    +0.000 HD
ENDBRANCH   6  19
BRANCH   5  21
ATOM     21  C   UNL     1       0.166  12.081  21.445  0.00  0.00    +0.000 C 
BRANCH  21  22
ATOM     22  C   UNL     1      -1.318  12.223  21.699  0.00  0.00    +0.000 A 
ATOM     23  C   UNL     1      -1.838  12.085  22.989  0.00  0.00    +0.000 A 
ATOM     24  C   UNL     1      -3.204  12.255  23.214  0.00  0.00    +0.000 A 
ATOM     25  C   UNL     1      -4.082  12.567  22.168  0.00  0.00    +0.000 A 
ATOM     26  C   UNL     1      -3.579  12.676  20.859  0.00  0.00    +0.000 A 
ATOM     27  C   UNL     1      -2.203  12.487  20.642  0.00  0.00    +0.000 A 
BRANCH  25  28
ATOM     28  O   UNL     1      -5.371  12.723  22.609  0.00  0.00    +0.000 OA
ATOM     29  C   UNL     1      -5.837  14.023  22.934  0.00  0.00    +0.000 C 
ENDBRANCH  25  28
BRANCH  26  30
ATOM     30  O   UNL     1      -4.454  12.963  19.845  0.00  0.00    +0.000 OA
ATOM     31  C   UNL     1      -5.064  11.884  19.149  0.00  0.00    +0.000 C 
ENDBRANCH  26  30
ENDBRANCH  21  22
ENDBRANCH   5  21
TORSDOF 8
ENDMDL
MODEL 9
REMARK VINA RESULT:      -7.6      5.096      7.879
REMARK  Name = 
REMARK  11 active torsions:
REMARK  status: ('A' for Active; 'I' for Inactive)
REMARK    1  A    between atoms: C_1  and  O_2
REMARK    2  A    between atoms: O_2  and  C_3
REMARK    3  A    between atoms: C_6  and  C_7
REMARK    4  A    between atoms: N_8  and  N_9
REMARK    5  A    between atoms: C_13  and  C_14
REMARK    6  A    between atoms: C_14  and  C_15
REMARK    7  A    between atoms: C_18  and  O_19
REMARK    8  A    between atoms: O_19  and  C_20
REMARK    9  A    between atoms: C_21  and  O_22
REMARK   10  A    between atoms: O_22  and  C_23
REMARK   11  A    between atoms: C_25  and  O_26
REMARK                            x       y       z     vdW  Elec       q    Type
REMARK                         _______ _______ _______ _____ _____    ______ ____
ROOT
ATOM      1  N   UNL     1       1.772   6.821  21.284  0.00  0.00    +0.000 N 
ATOM      2  C   UNL     1       2.225   5.997  20.230  0.00  0.00    +0.000 A 
ATOM      3  N   UNL     1       2.367   6.502  18.980  0.00  0.00    +0.000 NA
ATOM      4  N   UNL     1       2.762   5.706  17.949  0.00  0.00    +0.000 NA
ATOM      5  C   UNL     1       3.024   4.413  18.198  0.00  0.00    +0.000 A 
ATOM      6  C   UNL     1       2.895   3.949  19.497  0.00  0.00    +0.000 A 
ATOM      7  N   UNL     1       2.486   4.714  20.525  0.00  0.00    +0.000 NA
ATOM      8  H   UNL     1       1.489   6.204  22.041  0.00  0.00    +0.000 HD
ENDROOT
BRANCH   1  10
ATOM      9  C   UNL     1       0.800   8.799  21.762  0.00  0.00    +0.000 C 
ATOM     10  N   UNL     1       0.948   7.838  20.911  0.00  0.00    +0.000 NA
BRANCH   9  14
ATOM     11  C   UNL     1      -1.744  12.102  20.806  0.00  0.00    +0.000 A 
ATOM     12  C   UNL     1      -1.217  11.304  19.792  0.00  0.00    +0.000 A 
ATOM     13  C   UNL     1      -0.389  10.224  20.100  0.00  0.00    +0.000 A 
ATOM     14  C   UNL     1      -0.072   9.947  21.434  0.00  0.00    +0.000 A 
ATOM     15  C   UNL     1      -0.574  10.757  22.454  0.00  0.00    +0.000 A 
ATOM     16  C   UNL     1      -1.411  11.836  22.138  0.00  0.00    +0.000 A 
BRANCH  11  18
ATOM     17  C   UNL     1      -3.920  13.016  20.679  0.00  0.00    +0.000 C 
ATOM     18  O   UNL     1      -2.536  13.131  20.376  0.00  0.00    +0.000 OA
ENDBRANCH  11  18
ENDBRANCH   9  14
ENDBRANCH   1  10
BRANCH   6  19
ATOM     19  O   UNL     1       3.145   2.654  19.853  0.00  0.00    +0.000 OA
ATOM     20  H   UNL     1       3.884   2.325  19.324  0.00  0.00    +0.000 HD
ENDBRANCH   6  19
BRANCH   5  21
ATOM     21  C   UNL     1       3.442   3.581  17.020  0.00  0.00    +0.000 C 
BRANCH  21  22
ATOM     22  C   UNL     1       4.705   4.069  16.346  0.00  0.00    +0.000 A 
ATOM     23  C   UNL     1       4.856   3.980  14.960  0.00  0.00    +0.000 A 
ATOM     24  C   UNL     1       6.010   4.468  14.349  0.00  0.00    +0.000 A 
ATOM     25  C   UNL     1       7.039   5.056  15.098  0.00  0.00    +0.000 A 
ATOM     26  C   UNL     1       6.917   5.123  16.497  0.00  0.00    +0.000 A 
ATOM     27  C   UNL     1       5.755   4.613  17.104  0.00  0.00    +0.000 A 
BRANCH  25  28
ATOM     28  O   UNL     1       8.064   5.497  14.302  0.00  0.00    +0.000 OA
ATOM     29  C   UNL     1       7.991   5.286  12.901  0.00  0.00    +0.000 C 
ENDBRANCH  25  28
BRANCH  26  30
ATOM     30  O   UNL     1       7.939   5.683  17.216  0.00  0.00    +0.000 OA
ATOM     31  C   UNL     1       7.633   6.321  18.448  0.00  0.00    +0.000 C 
ENDBRANCH  26  30
ENDBRANCH  21  22
ENDBRANCH   5  21
TORSDOF 8
ENDMDL
