MODEL 1
REMARK VINA RESULT:      -7.4      0.000      0.000
REMARK  Name = 
REMARK  3 active torsions:
REMARK  status: ('A' for Active; 'I' for Inactive)
REMARK    1  A    between atoms: C_1  and  C_2
REMARK    2  A    between atoms: C_2  and  C_3
REMARK    3  A    between atoms: C_2  and  N_4
REMARK                            x       y       z     vdW  Elec       q    Type
REMARK                         _______ _______ _______ _____ _____    ______ ____
ROOT
ATOM      1  N   UNL     1       3.378   3.808  19.790  0.00  0.00    +0.000 NA
ATOM      2  C   UNL     1       4.261   4.757  19.042  0.00  0.00    +0.000 C 
ATOM      3  C   UNL     1       3.555   5.958  18.360  0.00  0.00    +0.000 C 
ATOM      4  N   UNL     1       2.586   6.614  19.245  0.00  0.00    +0.000 N 
ATOM      5  C   UNL     1       2.225   7.920  18.963  0.00  0.00    +0.000 C 
ATOM      6  O   UNL     1       2.599   8.470  17.927  0.00  0.00    +0.000 OA
ATOM      7  N   UNL     1       1.451   8.593  19.876  0.00  0.00    +0.000 N 
ATOM      8  C   UNL     1       0.944   9.920  19.517  0.00  0.00    +0.000 C 
ATOM      9  C   UNL     1       0.187  10.338  20.740  0.00  0.00    +0.000 A 
ATOM     10  C   UNL     1      -0.697  11.387  20.915  0.00  0.00    +0.000 A 
ATOM     11  C   UNL     1      -1.332  11.515  22.154  0.00  0.00    +0.000 A 
ATOM     12  C   UNL     1      -1.077  10.603  23.192  0.00  0.00    +0.000 A 
ATOM     13  C   UNL     1      -0.160   9.566  23.016  0.00  0.00    +0.000 A 
ATOM     14  C   UNL     1       0.470   9.456  21.790  0.00  0.00    +0.000 A 
ATOM     15  C   UNL     1       1.464   8.436  21.335  0.00  0.00    +0.000 C 
ATOM     16  C   UNL     1       1.678   5.650  19.865  0.00  0.00    +0.000 C 
ATOM     17  C   UNL     1       2.501   4.627  20.663  0.00  0.00    +0.000 C 
ENDROOT
BRANCH   1  19
ATOM     18  C   UNL     1       3.540   1.818  18.290  0.00  0.00    +0.000 C 
ATOM     19  C   UNL     1       2.623   2.885  18.905  0.00  0.00    +0.000 C 
ATOM     20  C   UNL     1       1.502   2.128  19.646  0.00  0.00    +0.000 C 
ENDBRANCH   1  19
TORSDOF 1
ENDMDL
MODEL 2
REMARK VINA RESULT:      -6.9      2.122      7.582
REMARK  Name = 
REMARK  3 active torsions:
REMARK  status: ('A' for Active; 'I' for Inactive)
REMARK    1  A    between atoms: C_1  and  C_2
REMARK    2  A    between atoms: C_2  and  C_3
REMARK    3  A    between atoms: C_2  and  N_4
REMARK                            x       y       z     vdW  Elec       q    Type
REMARK                         _______ _______ _______ _____ _____    ______ ____
ROOT
ATOM      1  N   UNL     1       0.688  11.301  19.565  0.00  0.00    +0.000 NA
ATOM      2  C   UNL     1       0.966  10.584  20.848  0.00  0.00    +0.000 C 
ATOM      3  C   UNL     1       0.896   9.035  20.799  0.00  0.00    +0.000 C 
ATOM      4  N   UNL     1       1.602   8.480  19.638  0.00  0.00    +0.000 N 
ATOM      5  C   UNL     1       2.010   7.159  19.694  0.00  0.00    +0.000 C 
ATOM      6  O   UNL     1       1.672   6.431  20.628  0.00  0.00    +0.000 OA
ATOM      7  N   UNL     1       2.812   6.682  18.687  0.00  0.00    +0.000 N 
ATOM      8  C   UNL     1       3.125   5.250  18.661  0.00  0.00    +0.000 C 
ATOM      9  C   UNL     1       4.021   5.118  17.469  0.00  0.00    +0.000 A 
ATOM     10  C   UNL     1       4.447   3.980  16.807  0.00  0.00    +0.000 A 
ATOM     11  C   UNL     1       5.232   4.139  15.662  0.00  0.00    +0.000 A 
ATOM     12  C   UNL     1       5.580   5.419  15.198  0.00  0.00    +0.000 A 
ATOM     13  C   UNL     1       5.171   6.560  15.889  0.00  0.00    +0.000 A 
ATOM     14  C   UNL     1       4.403   6.390  17.027  0.00  0.00    +0.000 A 
ATOM     15  C   UNL     1       3.822   7.431  17.930  0.00  0.00    +0.000 C 
ATOM     16  C   UNL     1       1.211   9.144  18.396  0.00  0.00    +0.000 C 
ATOM     17  C   UNL     1       1.509  10.647  18.516  0.00  0.00    +0.000 C 
ENDROOT
BRANCH   1  19
ATOM     18  C   UNL     1      -1.599  11.827  20.419  0.00  0.00    +0.000 C 
ATOM     19  C   UNL     1      -0.757  11.358  19.224  0.00  0.00    +0.000 C 
ATOM     20  C   UNL     1      -1.060  12.329  18.064  0.00  0.00    +0.000 C 
ENDBRANCH   1  19
TORSDOF 1
ENDMDL
MODEL 3
REMARK VINA RESULT:      -6.3      1.337      6.977
REMARK  Name = 
REMARK  3 active torsions:
REMARK  status: ('A' for Active; 'I' for Inactive)
REMARK    1  A    between atoms: C_1  and  C_2
REMARK    2  A    between atoms: C_2  and  C_3
REMARK    3  A    between atoms: C_2  and  N_4
REMARK                            x       y       z     vdW  Elec       q    Type
REMARK                         _______ _______ _______ _____ _____    ______ ____
ROOT
ATOM      1  N   UNL     1      -0.600  10.414  20.559  0.00  0.00    +0.000 NA
ATOM      2  C   UNL     1      -0.316  10.448  19.090  0.00  0.00    +0.000 C 
ATOM      3  C   UNL     1       1.079   9.933  18.648  0.00  0.00    +0.000 C 
ATOM      4  N   UNL     1       1.440   8.667  19.298  0.00  0.00    +0.000 N 
ATOM      5  C   UNL     1       2.401   7.876  18.696  0.00  0.00    +0.000 C 
ATOM      6  O   UNL     1       3.033   8.280  17.720  0.00  0.00    +0.000 OA
ATOM      7  N   UNL     1       2.623   6.620  19.205  0.00  0.00    +0.000 N 
ATOM      8  C   UNL     1       3.738   5.835  18.667  0.00  0.00    +0.000 C 
ATOM      9  C   UNL     1       3.648   4.548  19.427  0.00  0.00    +0.000 A 
ATOM     10  C   UNL     1       4.561   3.514  19.522  0.00  0.00    +0.000 A 
ATOM     11  C   UNL     1       4.259   2.443  20.369  0.00  0.00    +0.000 A 
ATOM     12  C   UNL     1       3.060   2.420  21.101  0.00  0.00    +0.000 A 
ATOM     13  C   UNL     1       2.131   3.453  20.975  0.00  0.00    +0.000 A 
ATOM     14  C   UNL     1       2.436   4.502  20.126  0.00  0.00    +0.000 A 
ATOM     15  C   UNL     1       1.637   5.730  19.829  0.00  0.00    +0.000 C 
ATOM     16  C   UNL     1       1.246   8.726  20.747  0.00  0.00    +0.000 C 
ATOM     17  C   UNL     1      -0.223   9.063  21.042  0.00  0.00    +0.000 C 
ENDROOT
BRANCH   1  19
ATOM     18  C   UNL     1       0.161  12.791  20.473  0.00  0.00    +0.000 C 
ATOM     19  C   UNL     1       0.064  11.509  21.311  0.00  0.00    +0.000 C 
ATOM     20  C   UNL     1      -0.687  11.886  22.606  0.00  0.00    +0.000 C 
ENDBRANCH   1  19
TORSDOF 1
ENDMDL
MODEL 4
REMARK VINA RESULT:      -6.2      4.789      8.979
REMARK  Name = 
REMARK  3 active torsions:
REMARK  status: ('A' for Active; 'I' for Inactive)
REMARK    1  A    between atoms: C_1  and  C_2
REMARK    2  A    between atoms: C_2  and  C_3
REMARK    3  A    between atoms: C_2  and  N_4
REMARK                            x       y       z     vdW  Elec       q    Type
REMARK                         _______ _______ _______ _____ _____    ______ ____
ROOT
ATOM      1  N   UNL     1       2.216   4.656  18.513  0.00  0.00    +0.000 NA
ATOM      2  C   UNL     1       2.762   6.034  18.309  0.00  0.00    +0.000 C 
ATOM      3  C   UNL     1       4.236   6.126  17.836  0.00  0.00    +0.000 C 
ATOM      4  N   UNL     1       4.531   5.198  16.738  0.00  0.00    +0.000 N 
ATOM      5  C   UNL     1       5.622   5.468  15.931  0.00  0.00    +0.000 C 
ATOM      6  O   UNL     1       6.402   6.380  16.206  0.00  0.00    +0.000 OA
ATOM      7  N   UNL     1       5.806   4.702  14.808  0.00  0.00    +0.000 N 
ATOM      8  C   UNL     1       7.035   4.884  14.031  0.00  0.00    +0.000 C 
ATOM      9  C   UNL     1       6.868   3.922  12.896  0.00  0.00    +0.000 A 
ATOM     10  C   UNL     1       7.796   3.479  11.970  0.00  0.00    +0.000 A 
ATOM     11  C   UNL     1       7.395   2.511  11.046  0.00  0.00    +0.000 A 
ATOM     12  C   UNL     1       6.085   2.003  11.057  0.00  0.00    +0.000 A 
ATOM     13  C   UNL     1       5.147   2.477  11.974  0.00  0.00    +0.000 A 
ATOM     14  C   UNL     1       5.552   3.443  12.878  0.00  0.00    +0.000 A 
ATOM     15  C   UNL     1       4.765   4.098  13.967  0.00  0.00    +0.000 C 
ATOM     16  C   UNL     1       4.074   3.841  17.037  0.00  0.00    +0.000 C 
ATOM     17  C   UNL     1       2.561   3.870  17.302  0.00  0.00    +0.000 C 
ENDROOT
BRANCH   1  19
ATOM     18  C   UNL     1       2.204   4.801  21.006  0.00  0.00    +0.000 C 
ATOM     19  C   UNL     1       2.680   4.021  19.773  0.00  0.00    +0.000 C 
ATOM     20  C   UNL     1       2.164   2.576  19.940  0.00  0.00    +0.000 C 
ENDBRANCH   1  19
TORSDOF 1
ENDMDL
MODEL 5
REMARK VINA RESULT:      -6.2      1.192      1.743
REMARK  Name = 
REMARK  3 active torsions:
REMARK  status: ('A' for Active; 'I' for Inactive)
REMARK    1  A    between atoms: C_1  and  C_2
REMARK    2  A    between atoms: C_2  and  C_3
REMARK    3  A    between atoms: C_2  and  N_4
REMARK                            x       y       z     vdW  Elec       q    Type
REMARK                         _______ _______ _______ _____ _____    ______ ____
ROOT
ATOM      1  N   UNL     1       3.156   2.962  20.110  0.00  0.00    +0.000 NA
ATOM      2  C   UNL     1       4.361   3.616  19.509  0.00  0.00    +0.000 C 
ATOM      3  C   UNL     1       4.089   4.731  18.466  0.00  0.00    +0.000 C 
ATOM      4  N   UNL     1       3.056   5.674  18.912  0.00  0.00    +0.000 N 
ATOM      5  C   UNL     1       3.025   6.929  18.331  0.00  0.00    +0.000 C 
ATOM      6  O   UNL     1       3.751   7.202  17.374  0.00  0.00    +0.000 OA
ATOM      7  N   UNL     1       2.174   7.869  18.856  0.00  0.00    +0.000 N 
ATOM      8  C   UNL     1       2.028   9.149  18.157  0.00  0.00    +0.000 C 
ATOM      9  C   UNL     1       1.065   9.903  19.021  0.00  0.00    +0.000 A 
ATOM     10  C   UNL     1       0.372  11.071  18.759  0.00  0.00    +0.000 A 
ATOM     11  C   UNL     1      -0.531  11.531  19.721  0.00  0.00    +0.000 A 
ATOM     12  C   UNL     1      -0.727  10.827  20.921  0.00  0.00    +0.000 A 
ATOM     13  C   UNL     1      -0.001   9.667  21.190  0.00  0.00    +0.000 A 
ATOM     14  C   UNL     1       0.898   9.226  20.236  0.00  0.00    +0.000 A 
ATOM     15  C   UNL     1       1.776   8.016  20.261  0.00  0.00    +0.000 C 
ATOM     16  C   UNL     1       1.858   4.983  19.387  0.00  0.00    +0.000 C 
ATOM     17  C   UNL     1       2.244   4.049  20.544  0.00  0.00    +0.000 C 
ENDROOT
BRANCH   1  19
ATOM     18  C   UNL     1       1.041   2.352  18.930  0.00  0.00    +0.000 C 
ATOM     19  C   UNL     1       2.505   1.982  19.203  0.00  0.00    +0.000 C 
ATOM     20  C   UNL     1       3.199   1.886  17.828  0.00  0.00    +0.000 C 
ENDBRANCH   1  19
TORSDOF 1
ENDMDL
MODEL 6
REMARK VINA RESULT:      -6.1      1.762      7.026
REMARK  Name = 
REMARK  3 active torsions:
REMARK  status: ('A' for Active; 'I' for Inactive)
REMARK    1  A    between atoms: C_1  and  C_2
REMARK    2  A    between atoms: C_2  and  C_3
REMARK    3  A    between atoms: C_2  and  N_4
REMARK                            x       y       z     vdW  Elec       q    Type
REMARK                         _______ _______ _______ _____ _____    ______ ____
ROOT
ATOM      1  N   UNL     1      -0.725   9.570  21.308  0.00  0.00    +0.000 NA
ATOM      2  C   UNL     1      -0.760  10.303  20.004  0.00  0.00    +0.000 C 
ATOM      3  C   UNL     1       0.582  10.400  19.233  0.00  0.00    +0.000 C 
ATOM      4  N   UNL     1       1.289   9.114  19.177  0.00  0.00    +0.000 N 
ATOM      5  C   UNL     1       2.230   8.930  18.181  0.00  0.00    +0.000 C 
ATOM      6  O   UNL     1       2.565   9.861  17.447  0.00  0.00    +0.000 OA
ATOM      7  N   UNL     1       2.772   7.680  18.020  0.00  0.00    +0.000 N 
ATOM      8  C   UNL     1       3.874   7.512  17.067  0.00  0.00    +0.000 C 
ATOM      9  C   UNL     1       4.173   6.047  17.145  0.00  0.00    +0.000 A 
ATOM     10  C   UNL     1       5.255   5.340  16.652  0.00  0.00    +0.000 A 
ATOM     11  C   UNL     1       5.330   3.972  16.928  0.00  0.00    +0.000 A 
ATOM     12  C   UNL     1       4.331   3.333  17.683  0.00  0.00    +0.000 A 
ATOM     13  C   UNL     1       3.227   4.049  18.149  0.00  0.00    +0.000 A 
ATOM     14  C   UNL     1       3.159   5.400  17.861  0.00  0.00    +0.000 A 
ATOM     15  C   UNL     1       2.111   6.391  18.255  0.00  0.00    +0.000 C 
ATOM     16  C   UNL     1       1.390   8.493  20.498  0.00  0.00    +0.000 C 
ATOM     17  C   UNL     1      -0.022   8.286  21.064  0.00  0.00    +0.000 C 
ENDROOT
BRANCH   1  19
ATOM     18  C   UNL     1      -1.013  11.556  22.795  0.00  0.00    +0.000 C 
ATOM     19  C   UNL     1      -0.126  10.363  22.412  0.00  0.00    +0.000 C 
ATOM     20  C   UNL     1       0.080   9.536  23.698  0.00  0.00    +0.000 C 
ENDBRANCH   1  19
TORSDOF 1
ENDMDL
MODEL 7
REMARK VINA RESULT:      -6.0      4.130      8.085
REMARK  Name = 
REMARK  3 active torsions:
REMARK  status: ('A' for Active; 'I' for Inactive)
REMARK    1  A    between atoms: C_1  and  C_2
REMARK    2  A    between atoms: C_2  and  C_3
REMARK    3  A    between atoms: C_2  and  N_4
REMARK                            x       y       z     vdW  Elec       q    Type
REMARK                         _______ _______ _______ _____ _____    ______ ____
ROOT
ATOM      1  N   UNL     1       2.177   4.109  19.796  0.00  0.00    +0.000 NA
ATOM      2  C   UNL     1       2.625   5.534  19.876  0.00  0.00    +0.000 C 
ATOM      3  C   UNL     1       4.083   5.821  19.430  0.00  0.00    +0.000 C 
ATOM      4  N   UNL     1       4.422   5.158  18.165  0.00  0.00    +0.000 N 
ATOM      5  C   UNL     1       5.479   5.660  17.428  0.00  0.00    +0.000 C 
ATOM      6  O   UNL     1       6.201   6.549  17.881  0.00  0.00    +0.000 OA
ATOM      7  N   UNL     1       5.696   5.153  16.172  0.00  0.00    +0.000 N 
ATOM      8  C   UNL     1       6.899   5.573  15.446  0.00  0.00    +0.000 C 
ATOM      9  C   UNL     1       6.779   4.852  14.139  0.00  0.00    +0.000 A 
ATOM     10  C   UNL     1       7.719   4.671  13.141  0.00  0.00    +0.000 A 
ATOM     11  C   UNL     1       7.369   3.886  12.039  0.00  0.00    +0.000 A 
ATOM     12  C   UNL     1       6.096   3.297  11.949  0.00  0.00    +0.000 A 
ATOM     13  C   UNL     1       5.143   3.510  12.946  0.00  0.00    +0.000 A 
ATOM     14  C   UNL     1       5.497   4.298  14.026  0.00  0.00    +0.000 A 
ATOM     15  C   UNL     1       4.685   4.662  15.227  0.00  0.00    +0.000 C 
ATOM     16  C   UNL     1       4.061   3.741  18.182  0.00  0.00    +0.000 C 
ATOM     17  C   UNL     1       2.554   3.611  18.450  0.00  0.00    +0.000 C 
ENDROOT
BRANCH   1  19
ATOM     18  C   UNL     1       1.564   2.623  21.708  0.00  0.00    +0.000 C 
ATOM     19  C   UNL     1       2.701   3.264  20.899  0.00  0.00    +0.000 C 
ATOM     20  C   UNL     1       3.591   2.108  20.398  0.00  0.00    +0.000 C 
ENDBRANCH   1  19
TORSDOF 1
ENDMDL
MODEL 8
REMARK VINA RESULT:      -6.0      3.231      8.374
REMARK  Name = 
REMARK  3 active torsions:
REMARK  status: ('A' for Active; 'I' for Inactive)
REMARK    1  A    between atoms: C_1  and  C_2
REMARK    2  A    between atoms: C_2  and  C_3
REMARK    3  A    between atoms: C_2  and  N_4
REMARK                            x       y       z     vdW  Elec       q    Type
REMARK                         _______ _______ _______ _____ _____    ______ ____
ROOT
ATOM      1  N   UNL     1      -2.790  13.886  21.516  0.00  0.00    +0.000 NA
ATOM      2  C   UNL     1      -1.972  13.774  22.764  0.00  0.00    +0.000 C 
ATOM      3  C   UNL     1      -1.554  12.341  23.185  0.00  0.00    +0.000 C 
ATOM      4  N   UNL     1      -1.037  11.555  22.059  0.00  0.00    +0.000 N 
ATOM      5  C   UNL     1      -0.230  10.468  22.339  0.00  0.00    +0.000 C 
ATOM      6  O   UNL     1      -0.061  10.086  23.497  0.00  0.00    +0.000 OA
ATOM      7  N   UNL     1       0.390   9.830  21.293  0.00  0.00    +0.000 N 
ATOM      8  C   UNL     1       1.125   8.592  21.566  0.00  0.00    +0.000 C 
ATOM      9  C   UNL     1       1.672   8.216  20.223  0.00  0.00    +0.000 A 
ATOM     10  C   UNL     1       2.250   7.031  19.806  0.00  0.00    +0.000 A 
ATOM     11  C   UNL     1       2.616   6.913  18.462  0.00  0.00    +0.000 A 
ATOM     12  C   UNL     1       2.402   7.971  17.561  0.00  0.00    +0.000 A 
ATOM     13  C   UNL     1       1.846   9.173  17.998  0.00  0.00    +0.000 A 
ATOM     14  C   UNL     1       1.498   9.283  19.332  0.00  0.00    +0.000 A 
ATOM     15  C   UNL     1       0.873  10.437  20.047  0.00  0.00    +0.000 C 
ATOM     16  C   UNL     1      -1.930  11.612  20.902  0.00  0.00    +0.000 C 
ATOM     17  C   UNL     1      -2.108  13.077  20.477  0.00  0.00    +0.000 C 
ENDROOT
BRANCH   1  19
ATOM     18  C   UNL     1      -4.879  14.361  22.799  0.00  0.00    +0.000 C 
ATOM     19  C   UNL     1      -4.213  13.509  21.710  0.00  0.00    +0.000 C 
ATOM     20  C   UNL     1      -5.059  13.687  20.432  0.00  0.00    +0.000 C 
ENDBRANCH   1  19
TORSDOF 1
ENDMDL
MODEL 9
REMARK VINA RESULT:      -6.0      2.162      3.468
REMARK  Name = 
REMARK  3 active torsions:
REMARK  status: ('A' for Active; 'I' for Inactive)
REMARK    1  A    between atoms: C_1  and  C_2
REMARK    2  A    between atoms: C_2  and  C_3
REMARK    3  A    between atoms: C_2  and  N_4
REMARK                            x       y       z     vdW  Elec       q    Type
REMARK                         _______ _______ _______ _____ _____    ______ ____
ROOT
ATOM      1  N   UNL     1       5.029   5.461  16.534  0.00  0.00    +0.000 NA
ATOM      2  C   UNL     1       4.047   4.476  17.086  0.00  0.00    +0.000 C 
ATOM      3  C   UNL     1       3.563   4.730  18.538  0.00  0.00    +0.000 C 
ATOM      4  N   UNL     1       3.198   6.133  18.769  0.00  0.00    +0.000 N 
ATOM      5  C   UNL     1       2.350   6.420  19.823  0.00  0.00    +0.000 C 
ATOM      6  O   UNL     1       2.021   5.548  20.627  0.00  0.00    +0.000 OA
ATOM      7  N   UNL     1       1.873   7.702  19.944  0.00  0.00    +0.000 N 
ATOM      8  C   UNL     1       1.096   8.049  21.138  0.00  0.00    +0.000 C 
ATOM      9  C   UNL     1       0.735   9.483  20.905  0.00  0.00    +0.000 A 
ATOM     10  C   UNL     1       0.208  10.414  21.782  0.00  0.00    +0.000 A 
ATOM     11  C   UNL     1       0.029  11.723  21.326  0.00  0.00    +0.000 A 
ATOM     12  C   UNL     1       0.373  12.081  20.011  0.00  0.00    +0.000 A 
ATOM     13  C   UNL     1       0.874  11.128  19.124  0.00  0.00    +0.000 A 
ATOM     14  C   UNL     1       1.038   9.834  19.584  0.00  0.00    +0.000 A 
ATOM     15  C   UNL     1       1.570   8.641  18.857  0.00  0.00    +0.000 C 
ATOM     16  C   UNL     1       4.241   7.048  18.309  0.00  0.00    +0.000 C 
ATOM     17  C   UNL     1       4.488   6.815  16.811  0.00  0.00    +0.000 C 
ENDROOT
BRANCH   1  19
ATOM     18  C   UNL     1       7.211   4.305  16.162  0.00  0.00    +0.000 C 
ATOM     19  C   UNL     1       6.409   5.268  17.048  0.00  0.00    +0.000 C 
ATOM     20  C   UNL     1       7.214   6.582  17.111  0.00  0.00    +0.000 C 
ENDBRANCH   1  19
TORSDOF 1
ENDMDL
