MODEL 1
REMARK VINA RESULT:      -8.6      0.000      0.000
REMARK  Name = 
REMARK  7 active torsions:
REMARK  status: ('A' for Active; 'I' for Inactive)
REMARK    1  A    between atoms: C_1  and  O_2
REMARK    2  A    between atoms: O_2  and  C_3
REMARK    3  A    between atoms: C_7  and  N_8
REMARK    4  A    between atoms: N_8  and  S_9
REMARK    5  A    between atoms: S_9  and  C_12
REMARK    6  A    between atoms: N_18  and  C_19
REMARK    7  A    between atoms: N_24  and  C_25
REMARK                            x       y       z     vdW  Elec       q    Type
REMARK                         _______ _______ _______ _____ _____    ______ ____
ROOT
ATOM      1  C   UNL     1       5.170   5.832  17.874  0.00  0.00    +0.000 A 
ATOM      2  C   UNL     1       4.118   6.616  18.370  0.00  0.00    +0.000 A 
ATOM      3  C   UNL     1       3.120   6.017  19.149  0.00  0.00    +0.000 A 
ATOM      4  C   UNL     1       3.197   4.645  19.389  0.00  0.00    +0.000 A 
ATOM      5  C   UNL     1       4.397   3.957  19.119  0.00  0.00    +0.000 A 
ATOM      6  C   UNL     1       5.381   4.532  18.333  0.00  0.00    +0.000 A 
ATOM      7  N   UNL     1       4.444   2.558  19.397  0.00  0.00    +0.000 N 
ATOM      8  C   UNL     1       4.328   2.262  20.842  0.00  0.00    +0.000 C 
ATOM      9  C   UNL     1       3.389   1.988  18.649  0.00  0.00    +0.000 A 
ATOM     10  O   UNL     1       3.524   1.353  17.616  0.00  0.00    +0.000 OA
ATOM     11  C   UNL     1       2.011   2.520  19.143  0.00  0.00    +0.000 A 
ATOM     12  O   UNL     1       1.022   1.800  19.124  0.00  0.00    +0.000 OA
ATOM     13  N   UNL     1       2.055   3.835  19.657  0.00  0.00    +0.000 N 
ATOM     14  C   UNL     1       0.931   4.297  20.429  0.00  0.00    +0.000 C 
ENDROOT
BRANCH   1  15
ATOM     15  S   UNL     1       6.139   6.409  16.496  0.00  0.00    +0.000 S 
ATOM     16  O   UNL     1       7.217   7.203  17.044  0.00  0.00    +0.000 OA
ATOM     17  O   UNL     1       5.231   6.942  15.508  0.00  0.00    +0.000 OA
BRANCH  15  18
ATOM     18  N   UNL     1       6.841   4.981  15.923  0.00  0.00    +0.000 N 
ATOM     19  H   UNL     1       6.778   4.190  16.561  0.00  0.00    +0.000 HD
BRANCH  18  24
ATOM     20  C   UNL     1       6.104   3.511  12.569  0.00  0.00    +0.000 A 
ATOM     21  C   UNL     1       7.010   4.229  11.782  0.00  0.00    +0.000 A 
ATOM     22  C   UNL     1       7.856   5.175  12.359  0.00  0.00    +0.000 A 
ATOM     23  C   UNL     1       7.785   5.419  13.731  0.00  0.00    +0.000 A 
ATOM     24  C   UNL     1       6.880   4.704  14.516  0.00  0.00    +0.000 A 
ATOM     25  C   UNL     1       6.058   3.731  13.950  0.00  0.00    +0.000 A 
BRANCH  20  27
ATOM     26  C   UNL     1       4.173   3.140  11.228  0.00  0.00    +0.000 C 
ATOM     27  O   UNL     1       5.333   2.624  11.867  0.00  0.00    +0.000 OA
ENDBRANCH  20  27
ENDBRANCH  18  24
ENDBRANCH  15  18
ENDBRANCH   1  15
TORSDOF 4
ENDMDL
MODEL 2
REMARK VINA RESULT:      -8.2      1.489      1.713
REMARK  Name = 
REMARK  7 active torsions:
REMARK  status: ('A' for Active; 'I' for Inactive)
REMARK    1  A    between atoms: C_1  and  O_2
REMARK    2  A    between atoms: O_2  and  C_3
REMARK    3  A    between atoms: C_7  and  N_8
REMARK    4  A    between atoms: N_8  and  S_9
REMARK    5  A    between atoms: S_9  and  C_12
REMARK    6  A    between atoms: N_18  and  C_19
REMARK    7  A    between atoms: N_24  and  C_25
REMARK                            x       y       z     vdW  Elec       q    Type
REMARK                         _______ _______ _______ _____ _____    ______ ____
ROOT
ATOM      1  C   UNL     1       5.572   5.213  17.459  0.00  0.00    +0.000 A 
ATOM      2  C   UNL     1       5.838   5.417  18.821  0.00  0.00    +0.000 A 
ATOM      3  C   UNL     1       4.998   4.841  19.782  0.00  0.00    +0.000 A 
ATOM      4  C   UNL     1       3.904   4.095  19.347  0.00  0.00    +0.000 A 
ATOM      5  C   UNL     1       3.833   3.681  18.002  0.00  0.00    +0.000 A 
ATOM      6  C   UNL     1       4.645   4.259  17.040  0.00  0.00    +0.000 A 
ATOM      7  N   UNL     1       2.708   2.901  17.599  0.00  0.00    +0.000 N 
ATOM      8  C   UNL     1       2.675   1.573  18.251  0.00  0.00    +0.000 C 
ATOM      9  C   UNL     1       1.574   3.680  17.918  0.00  0.00    +0.000 A 
ATOM     10  O   UNL     1       0.895   4.296  17.112  0.00  0.00    +0.000 OA
ATOM     11  C   UNL     1       1.468   3.899  19.457  0.00  0.00    +0.000 A 
ATOM     12  O   UNL     1       0.375   3.968  20.003  0.00  0.00    +0.000 OA
ATOM     13  N   UNL     1       2.716   3.930  20.118  0.00  0.00    +0.000 N 
ATOM     14  C   UNL     1       2.725   3.799  21.551  0.00  0.00    +0.000 C 
ENDROOT
BRANCH   1  15
ATOM     15  S   UNL     1       6.265   6.309  16.239  0.00  0.00    +0.000 S 
ATOM     16  O   UNL     1       7.004   7.323  16.958  0.00  0.00    +0.000 OA
ATOM     17  O   UNL     1       5.217   6.652  15.307  0.00  0.00    +0.000 OA
BRANCH  15  18
ATOM     18  N   UNL     1       7.413   5.328  15.481  0.00  0.00    +0.000 N 
ATOM     19  H   UNL     1       7.921   4.705  16.106  0.00  0.00    +0.000 HD
BRANCH  18  24
ATOM     20  C   UNL     1       6.197   3.480  12.471  0.00  0.00    +0.000 A 
ATOM     21  C   UNL     1       6.909   4.148  11.469  0.00  0.00    +0.000 A 
ATOM     22  C   UNL     1       7.784   5.183  11.791  0.00  0.00    +0.000 A 
ATOM     23  C   UNL     1       7.937   5.569  13.123  0.00  0.00    +0.000 A 
ATOM     24  C   UNL     1       7.226   4.904  14.123  0.00  0.00    +0.000 A 
ATOM     25  C   UNL     1       6.378   3.844  13.809  0.00  0.00    +0.000 A 
BRANCH  20  27
ATOM     26  C   UNL     1       5.981   1.403  11.329  0.00  0.00    +0.000 C 
ATOM     27  O   UNL     1       5.371   2.493  12.007  0.00  0.00    +0.000 OA
ENDBRANCH  20  27
ENDBRANCH  18  24
ENDBRANCH  15  18
ENDBRANCH   1  15
TORSDOF 4
ENDMDL
MODEL 3
REMARK VINA RESULT:      -7.7      4.984      7.686
REMARK  Name = 
REMARK  7 active torsions:
REMARK  status: ('A' for Active; 'I' for Inactive)
REMARK    1  A    between atoms: C_1  and  O_2
REMARK    2  A    between atoms: O_2  and  C_3
REMARK    3  A    between atoms: C_7  and  N_8
REMARK    4  A    between atoms: N_8  and  S_9
REMARK    5  A    between atoms: S_9  and  C_12
REMARK    6  A    between atoms: N_18  and  C_19
REMARK    7  A    between atoms: N_24  and  C_25
REMARK                            x       y       z     vdW  Elec       q    Type
REMARK                         _______ _______ _______ _____ _____    ______ ____
ROOT
ATOM      1  C   UNL     1       1.460   7.190  20.147  0.00  0.00    +0.000 A 
ATOM      2  C   UNL     1       2.468   7.429  19.201  0.00  0.00    +0.000 A 
ATOM      3  C   UNL     1       3.179   6.349  18.662  0.00  0.00    +0.000 A 
ATOM      4  C   UNL     1       2.869   5.064  19.105  0.00  0.00    +0.000 A 
ATOM      5  C   UNL     1       1.680   4.842  19.827  0.00  0.00    +0.000 A 
ATOM      6  C   UNL     1       0.982   5.901  20.382  0.00  0.00    +0.000 A 
ATOM      7  N   UNL     1       1.387   3.509  20.244  0.00  0.00    +0.000 N 
ATOM      8  C   UNL     1       1.137   2.600  19.104  0.00  0.00    +0.000 C 
ATOM      9  C   UNL     1       2.497   3.102  21.017  0.00  0.00    +0.000 A 
ATOM     10  O   UNL     1       2.515   3.024  22.235  0.00  0.00    +0.000 OA
ATOM     11  C   UNL     1       3.789   3.051  20.147  0.00  0.00    +0.000 A 
ATOM     12  O   UNL     1       4.652   2.212  20.363  0.00  0.00    +0.000 OA
ATOM     13  N   UNL     1       3.805   3.988  19.090  0.00  0.00    +0.000 N 
ATOM     14  C   UNL     1       4.778   3.811  18.045  0.00  0.00    +0.000 C 
ENDROOT
BRANCH   1  15
ATOM     15  S   UNL     1       0.908   8.503  21.215  0.00  0.00    +0.000 S 
ATOM     16  O   UNL     1       1.917   8.664  22.239  0.00  0.00    +0.000 OA
ATOM     17  O   UNL     1      -0.475   8.253  21.546  0.00  0.00    +0.000 OA
BRANCH  15  18
ATOM     18  N   UNL     1       1.024   9.860  20.213  0.00  0.00    +0.000 N 
ATOM     19  H   UNL     1       1.934   9.990  19.777  0.00  0.00    +0.000 HD
BRANCH  18  24
ATOM     20  C   UNL     1      -1.626  10.324  17.621  0.00  0.00    +0.000 A 
ATOM     21  C   UNL     1      -2.381  11.336  18.220  0.00  0.00    +0.000 A 
ATOM     22  C   UNL     1      -2.009  11.861  19.457  0.00  0.00    +0.000 A 
ATOM     23  C   UNL     1      -0.882  11.358  20.109  0.00  0.00    +0.000 A 
ATOM     24  C   UNL     1      -0.129  10.347  19.512  0.00  0.00    +0.000 A 
ATOM     25  C   UNL     1      -0.477   9.845  18.259  0.00  0.00    +0.000 A 
BRANCH  20  27
ATOM     26  C   UNL     1      -2.889  10.829  15.668  0.00  0.00    +0.000 C 
ATOM     27  O   UNL     1      -2.114   9.901  16.414  0.00  0.00    +0.000 OA
ENDBRANCH  20  27
ENDBRANCH  18  24
ENDBRANCH  15  18
ENDBRANCH   1  15
TORSDOF 4
ENDMDL
MODEL 4
REMARK VINA RESULT:      -7.7      3.091      7.141
REMARK  Name = 
REMARK  7 active torsions:
REMARK  status: ('A' for Active; 'I' for Inactive)
REMARK    1  A    between atoms: C_1  and  O_2
REMARK    2  A    between atoms: O_2  and  C_3
REMARK    3  A    between atoms: C_7  and  N_8
REMARK    4  A    between atoms: N_8  and  S_9
REMARK    5  A    between atoms: S_9  and  C_12
REMARK    6  A    between atoms: N_18  and  C_19
REMARK    7  A    between atoms: N_24  and  C_25
REMARK                            x       y       z     vdW  Elec       q    Type
REMARK                         _______ _______ _______ _____ _____    ______ ____
ROOT
ATOM      1  C   UNL     1       3.306   4.022  19.377  0.00  0.00    +0.000 A 
ATOM      2  C   UNL     1       3.005   3.099  18.364  0.00  0.00    +0.000 A 
ATOM      3  C   UNL     1       3.856   2.986  17.258  0.00  0.00    +0.000 A 
ATOM      4  C   UNL     1       4.973   3.818  17.192  0.00  0.00    +0.000 A 
ATOM      5  C   UNL     1       5.391   4.517  18.341  0.00  0.00    +0.000 A 
ATOM      6  C   UNL     1       4.549   4.652  19.432  0.00  0.00    +0.000 A 
ATOM      7  N   UNL     1       6.550   5.342  18.239  0.00  0.00    +0.000 N 
ATOM      8  C   UNL     1       7.782   4.563  17.983  0.00  0.00    +0.000 C 
ATOM      9  C   UNL     1       6.273   6.258  17.200  0.00  0.00    +0.000 A 
ATOM     10  O   UNL     1       5.976   7.431  17.357  0.00  0.00    +0.000 OA
ATOM     11  C   UNL     1       6.102   5.516  15.840  0.00  0.00    +0.000 A 
ATOM     12  O   UNL     1       6.461   6.041  14.795  0.00  0.00    +0.000 OA
ATOM     13  N   UNL     1       5.582   4.209  15.963  0.00  0.00    +0.000 N 
ATOM     14  C   UNL     1       5.689   3.330  14.828  0.00  0.00    +0.000 C 
ENDROOT
BRANCH   1  15
ATOM     15  S   UNL     1       2.035   4.561  20.501  0.00  0.00    +0.000 S 
ATOM     16  O   UNL     1       2.191   3.789  21.714  0.00  0.00    +0.000 OA
ATOM     17  O   UNL     1       0.787   4.591  19.776  0.00  0.00    +0.000 OA
BRANCH  15  18
ATOM     18  N   UNL     1       2.523   6.137  20.871  0.00  0.00    +0.000 N 
ATOM     19  H   UNL     1       3.435   6.205  21.319  0.00  0.00    +0.000 HD
BRANCH  18  24
ATOM     20  C   UNL     1       0.904   9.322  19.784  0.00  0.00    +0.000 A 
ATOM     21  C   UNL     1       1.298   9.353  18.443  0.00  0.00    +0.000 A 
ATOM     22  C   UNL     1       2.077   8.327  17.909  0.00  0.00    +0.000 A 
ATOM     23  C   UNL     1       2.481   7.271  18.726  0.00  0.00    +0.000 A 
ATOM     24  C   UNL     1       2.090   7.241  20.065  0.00  0.00    +0.000 A 
ATOM     25  C   UNL     1       1.280   8.245  20.593  0.00  0.00    +0.000 A 
BRANCH  20  27
ATOM     26  C   UNL     1      -0.843  10.853  19.261  0.00  0.00    +0.000 C 
ATOM     27  O   UNL     1       0.150  10.397  20.170  0.00  0.00    +0.000 OA
ENDBRANCH  20  27
ENDBRANCH  18  24
ENDBRANCH  15  18
ENDBRANCH   1  15
TORSDOF 4
ENDMDL
MODEL 5
REMARK VINA RESULT:      -7.6      3.809      6.223
REMARK  Name = 
REMARK  7 active torsions:
REMARK  status: ('A' for Active; 'I' for Inactive)
REMARK    1  A    between atoms: C_1  and  O_2
REMARK    2  A    between atoms: O_2  and  C_3
REMARK    3  A    between atoms: C_7  and  N_8
REMARK    4  A    between atoms: N_8  and  S_9
REMARK    5  A    between atoms: S_9  and  C_12
REMARK    6  A    between atoms: N_18  and  C_19
REMARK    7  A    between atoms: N_24  and  C_25
REMARK                            x       y       z     vdW  Elec       q    Type
REMARK                         _______ _______ _______ _____ _____    ______ ____
ROOT
ATOM      1  C   UNL     1       2.127   5.751  19.158  0.00  0.00    +0.000 A 
ATOM      2  C   UNL     1       2.454   6.576  18.071  0.00  0.00    +0.000 A 
ATOM      3  C   UNL     1       2.285   7.962  18.181  0.00  0.00    +0.000 A 
ATOM      4  C   UNL     1       1.774   8.476  19.372  0.00  0.00    +0.000 A 
ATOM      5  C   UNL     1       1.727   7.661  20.520  0.00  0.00    +0.000 A 
ATOM      6  C   UNL     1       1.872   6.288  20.420  0.00  0.00    +0.000 A 
ATOM      7  N   UNL     1       1.217   8.230  21.725  0.00  0.00    +0.000 N 
ATOM      8  C   UNL     1       2.074   9.316  22.249  0.00  0.00    +0.000 C 
ATOM      9  C   UNL     1      -0.084   8.682  21.409  0.00  0.00    +0.000 A 
ATOM     10  O   UNL     1      -1.120   8.127  21.736  0.00  0.00    +0.000 OA
ATOM     11  C   UNL     1      -0.031   9.814  20.339  0.00  0.00    +0.000 A 
ATOM     12  O   UNL     1      -0.846  10.726  20.357  0.00  0.00    +0.000 OA
ATOM     13  N   UNL     1       1.057   9.707  19.445  0.00  0.00    +0.000 N 
ATOM     14  C   UNL     1       1.387  10.854  18.641  0.00  0.00    +0.000 C 
ENDROOT
BRANCH   1  15
ATOM     15  S   UNL     1       1.831   4.014  18.904  0.00  0.00    +0.000 S 
ATOM     16  O   UNL     1       1.513   3.843  17.503  0.00  0.00    +0.000 OA
ATOM     17  O   UNL     1       0.940   3.560  19.945  0.00  0.00    +0.000 OA
BRANCH  15  18
ATOM     18  N   UNL     1       3.368   3.347  19.130  0.00  0.00    +0.000 N 
ATOM     19  H   UNL     1       3.371   2.358  19.370  0.00  0.00    +0.000 HD
BRANCH  18  24
ATOM     20  C   UNL     1       6.586   5.070  18.339  0.00  0.00    +0.000 A 
ATOM     21  C   UNL     1       6.662   4.829  16.963  0.00  0.00    +0.000 A 
ATOM     22  C   UNL     1       5.656   4.119  16.311  0.00  0.00    +0.000 A 
ATOM     23  C   UNL     1       4.573   3.628  17.043  0.00  0.00    +0.000 A 
ATOM     24  C   UNL     1       4.498   3.866  18.415  0.00  0.00    +0.000 A 
ATOM     25  C   UNL     1       5.484   4.608  19.064  0.00  0.00    +0.000 A 
BRANCH  20  27
ATOM     26  C   UNL     1       7.930   7.033  18.251  0.00  0.00    +0.000 C 
ATOM     27  O   UNL     1       7.647   5.772  18.843  0.00  0.00    +0.000 OA
ENDBRANCH  20  27
ENDBRANCH  18  24
ENDBRANCH  15  18
ENDBRANCH   1  15
TORSDOF 4
ENDMDL
MODEL 6
REMARK VINA RESULT:      -7.6      3.761      5.856
REMARK  Name = 
REMARK  7 active torsions:
REMARK  status: ('A' for Active; 'I' for Inactive)
REMARK    1  A    between atoms: C_1  and  O_2
REMARK    2  A    between atoms: O_2  and  C_3
REMARK    3  A    between atoms: C_7  and  N_8
REMARK    4  A    between atoms: N_8  and  S_9
REMARK    5  A    between atoms: S_9  and  C_12
REMARK    6  A    between atoms: N_18  and  C_19
REMARK    7  A    between atoms: N_24  and  C_25
REMARK                            x       y       z     vdW  Elec       q    Type
REMARK                         _______ _______ _______ _____ _____    ______ ____
ROOT
ATOM      1  C   UNL     1       2.236   5.882  18.989  0.00  0.00    +0.000 A 
ATOM      2  C   UNL     1       2.535   6.757  17.934  0.00  0.00    +0.000 A 
ATOM      3  C   UNL     1       2.325   8.132  18.097  0.00  0.00    +0.000 A 
ATOM      4  C   UNL     1       1.802   8.585  19.308  0.00  0.00    +0.000 A 
ATOM      5  C   UNL     1       1.784   7.726  20.424  0.00  0.00    +0.000 A 
ATOM      6  C   UNL     1       1.970   6.363  20.271  0.00  0.00    +0.000 A 
ATOM      7  N   UNL     1       1.261   8.233  21.651  0.00  0.00    +0.000 N 
ATOM      8  C   UNL     1       2.087   9.324  22.214  0.00  0.00    +0.000 C 
ATOM      9  C   UNL     1      -0.053   8.658  21.355  0.00  0.00    +0.000 A 
ATOM     10  O   UNL     1      -1.072   8.059  21.664  0.00  0.00    +0.000 OA
ATOM     11  C   UNL     1      -0.038   9.830  20.330  0.00  0.00    +0.000 A 
ATOM     12  O   UNL     1      -0.881  10.716  20.384  0.00  0.00    +0.000 OA
ATOM     13  N   UNL     1       1.049   9.790  19.430  0.00  0.00    +0.000 N 
ATOM     14  C   UNL     1       1.341  10.976  18.669  0.00  0.00    +0.000 C 
ENDROOT
BRANCH   1  15
ATOM     15  S   UNL     1       1.992   4.148  18.670  0.00  0.00    +0.000 S 
ATOM     16  O   UNL     1       1.717   4.016  17.256  0.00  0.00    +0.000 OA
ATOM     17  O   UNL     1       1.085   3.637  19.670  0.00  0.00    +0.000 OA
BRANCH  15  18
ATOM     18  N   UNL     1       3.539   3.512  18.917  0.00  0.00    +0.000 N 
ATOM     19  H   UNL     1       3.578   2.496  18.969  0.00  0.00    +0.000 HD
BRANCH  18  24
ATOM     20  C   UNL     1       6.148   4.885  16.624  0.00  0.00    +0.000 A 
ATOM     21  C   UNL     1       6.950   5.567  17.545  0.00  0.00    +0.000 A 
ATOM     22  C   UNL     1       6.634   5.560  18.902  0.00  0.00    +0.000 A 
ATOM     23  C   UNL     1       5.498   4.880  19.342  0.00  0.00    +0.000 A 
ATOM     24  C   UNL     1       4.696   4.201  18.424  0.00  0.00    +0.000 A 
ATOM     25  C   UNL     1       5.029   4.176  17.071  0.00  0.00    +0.000 A 
BRANCH  20  27
ATOM     26  C   UNL     1       6.226   3.927  14.447  0.00  0.00    +0.000 C 
ATOM     27  O   UNL     1       6.574   4.987  15.327  0.00  0.00    +0.000 OA
ENDBRANCH  20  27
ENDBRANCH  18  24
ENDBRANCH  15  18
ENDBRANCH   1  15
TORSDOF 4
ENDMDL
MODEL 7
REMARK VINA RESULT:      -7.5      4.013      6.304
REMARK  Name = 
REMARK  7 active torsions:
REMARK  status: ('A' for Active; 'I' for Inactive)
REMARK    1  A    between atoms: C_1  and  O_2
REMARK    2  A    between atoms: O_2  and  C_3
REMARK    3  A    between atoms: C_7  and  N_8
REMARK    4  A    between atoms: N_8  and  S_9
REMARK    5  A    between atoms: S_9  and  C_12
REMARK    6  A    between atoms: N_18  and  C_19
REMARK    7  A    between atoms: N_24  and  C_25
REMARK                            x       y       z     vdW  Elec       q    Type
REMARK                         _______ _______ _______ _____ _____    ______ ____
ROOT
ATOM      1  C   UNL     1       2.442   6.471  18.716  0.00  0.00    +0.000 A 
ATOM      2  C   UNL     1       2.568   7.460  17.729  0.00  0.00    +0.000 A 
ATOM      3  C   UNL     1       2.172   8.773  18.014  0.00  0.00    +0.000 A 
ATOM      4  C   UNL     1       1.642   9.049  19.274  0.00  0.00    +0.000 A 
ATOM      5  C   UNL     1       1.793   8.111  20.314  0.00  0.00    +0.000 A 
ATOM      6  C   UNL     1       2.164   6.805  20.041  0.00  0.00    +0.000 A 
ATOM      7  N   UNL     1       1.255   8.438  21.595  0.00  0.00    +0.000 N 
ATOM      8  C   UNL     1       1.940   9.590  22.222  0.00  0.00    +0.000 C 
ATOM      9  C   UNL     1      -0.118   8.689  21.376  0.00  0.00    +0.000 A 
ATOM     10  O   UNL     1      -1.026   7.926  21.663  0.00  0.00    +0.000 OA
ATOM     11  C   UNL     1      -0.313   9.929  20.452  0.00  0.00    +0.000 A 
ATOM     12  O   UNL     1      -1.270  10.675  20.606  0.00  0.00    +0.000 OA
ATOM     13  N   UNL     1       0.731  10.118  19.519  0.00  0.00    +0.000 N 
ATOM     14  C   UNL     1       0.818  11.390  18.853  0.00  0.00    +0.000 C 
ENDROOT
BRANCH   1  15
ATOM     15  S   UNL     1       2.434   4.750  18.259  0.00  0.00    +0.000 S 
ATOM     16  O   UNL     1       1.305   4.555  17.377  0.00  0.00    +0.000 OA
ATOM     17  O   UNL     1       2.599   3.972  19.464  0.00  0.00    +0.000 OA
BRANCH  15  18
ATOM     18  N   UNL     1       3.819   4.624  17.299  0.00  0.00    +0.000 N 
ATOM     19  H   UNL     1       3.641   4.598  16.297  0.00  0.00    +0.000 HD
BRANCH  18  24
ATOM     20  C   UNL     1       6.922   6.696  17.481  0.00  0.00    +0.000 A 
ATOM     21  C   UNL     1       7.473   6.208  18.671  0.00  0.00    +0.000 A 
ATOM     22  C   UNL     1       6.830   5.202  19.390  0.00  0.00    +0.000 A 
ATOM     23  C   UNL     1       5.617   4.691  18.927  0.00  0.00    +0.000 A 
ATOM     24  C   UNL     1       5.066   5.178  17.742  0.00  0.00    +0.000 A 
ATOM     25  C   UNL     1       5.724   6.158  17.001  0.00  0.00    +0.000 A 
BRANCH  20  27
ATOM     26  C   UNL     1       8.010   8.801  17.696  0.00  0.00    +0.000 C 
ATOM     27  O   UNL     1       7.657   7.686  16.889  0.00  0.00    +0.000 OA
ENDBRANCH  20  27
ENDBRANCH  18  24
ENDBRANCH  15  18
ENDBRANCH   1  15
TORSDOF 4
ENDMDL
MODEL 8
REMARK VINA RESULT:      -7.4      5.324      8.284
REMARK  Name = 
REMARK  7 active torsions:
REMARK  status: ('A' for Active; 'I' for Inactive)
REMARK    1  A    between atoms: C_1  and  O_2
REMARK    2  A    between atoms: O_2  and  C_3
REMARK    3  A    between atoms: C_7  and  N_8
REMARK    4  A    between atoms: N_8  and  S_9
REMARK    5  A    between atoms: S_9  and  C_12
REMARK    6  A    between atoms: N_18  and  C_19
REMARK    7  A    between atoms: N_24  and  C_25
REMARK                            x       y       z     vdW  Elec       q    Type
REMARK                         _______ _______ _______ _____ _____    ______ ____
ROOT
ATOM      1  C   UNL     1       1.469   7.188  20.149  0.00  0.00    +0.000 A 
ATOM      2  C   UNL     1       2.470   7.428  19.195  0.00  0.00    +0.000 A 
ATOM      3  C   UNL     1       3.177   6.349  18.651  0.00  0.00    +0.000 A 
ATOM      4  C   UNL     1       2.872   5.063  19.095  0.00  0.00    +0.000 A 
ATOM      5  C   UNL     1       1.689   4.840  19.827  0.00  0.00    +0.000 A 
ATOM      6  C   UNL     1       0.994   5.899  20.387  0.00  0.00    +0.000 A 
ATOM      7  N   UNL     1       1.401   3.507  20.247  0.00  0.00    +0.000 N 
ATOM      8  C   UNL     1       1.143   2.597  19.109  0.00  0.00    +0.000 C 
ATOM      9  C   UNL     1       2.518   3.102  21.011  0.00  0.00    +0.000 A 
ATOM     10  O   UNL     1       2.545   3.023  22.229  0.00  0.00    +0.000 OA
ATOM     11  C   UNL     1       3.802   3.051  20.130  0.00  0.00    +0.000 A 
ATOM     12  O   UNL     1       4.669   2.213  20.340  0.00  0.00    +0.000 OA
ATOM     13  N   UNL     1       3.809   3.988  19.074  0.00  0.00    +0.000 N 
ATOM     14  C   UNL     1       4.775   3.812  18.021  0.00  0.00    +0.000 C 
ENDROOT
BRANCH   1  15
ATOM     15  S   UNL     1       0.924   8.501  21.221  0.00  0.00    +0.000 S 
ATOM     16  O   UNL     1       1.944   8.666  22.234  0.00  0.00    +0.000 OA
ATOM     17  O   UNL     1      -0.454   8.246  21.567  0.00  0.00    +0.000 OA
BRANCH  15  18
ATOM     18  N   UNL     1       1.024   9.856  20.216  0.00  0.00    +0.000 N 
ATOM     19  H   UNL     1       1.898   9.940  19.701  0.00  0.00    +0.000 HD
BRANCH  18  24
ATOM     20  C   UNL     1      -2.067  11.883  19.676  0.00  0.00    +0.000 A 
ATOM     21  C   UNL     1      -2.429  11.442  18.399  0.00  0.00    +0.000 A 
ATOM     22  C   UNL     1      -1.666  10.482  17.737  0.00  0.00    +0.000 A 
ATOM     23  C   UNL     1      -0.521   9.969  18.348  0.00  0.00    +0.000 A 
ATOM     24  C   UNL     1      -0.158  10.410  19.621  0.00  0.00    +0.000 A 
ATOM     25  C   UNL     1      -0.938  11.343  20.301  0.00  0.00    +0.000 A 
BRANCH  20  27
ATOM     26  C   UNL     1      -4.296  12.659  19.981  0.00  0.00    +0.000 C 
ATOM     27  O   UNL     1      -2.902  12.833  20.198  0.00  0.00    +0.000 OA
ENDBRANCH  20  27
ENDBRANCH  18  24
ENDBRANCH  15  18
ENDBRANCH   1  15
TORSDOF 4
ENDMDL
MODEL 9
REMARK VINA RESULT:      -7.3      3.457      7.644
REMARK  Name = 
REMARK  7 active torsions:
REMARK  status: ('A' for Active; 'I' for Inactive)
REMARK    1  A    between atoms: C_1  and  O_2
REMARK    2  A    between atoms: O_2  and  C_3
REMARK    3  A    between atoms: C_7  and  N_8
REMARK    4  A    between atoms: N_8  and  S_9
REMARK    5  A    between atoms: S_9  and  C_12
REMARK    6  A    between atoms: N_18  and  C_19
REMARK    7  A    between atoms: N_24  and  C_25
REMARK                            x       y       z     vdW  Elec       q    Type
REMARK                         _______ _______ _______ _____ _____    ______ ____
ROOT
ATOM      1  C   UNL     1       3.451   4.468  19.099  0.00  0.00    +0.000 A 
ATOM      2  C   UNL     1       3.073   3.541  18.116  0.00  0.00    +0.000 A 
ATOM      3  C   UNL     1       3.940   3.276  17.048  0.00  0.00    +0.000 A 
ATOM      4  C   UNL     1       5.151   3.966  16.989  0.00  0.00    +0.000 A 
ATOM      5  C   UNL     1       5.612   4.664  18.122  0.00  0.00    +0.000 A 
ATOM      6  C   UNL     1       4.758   4.949  19.174  0.00  0.00    +0.000 A 
ATOM      7  N   UNL     1       6.865   5.340  18.029  0.00  0.00    +0.000 N 
ATOM      8  C   UNL     1       8.002   4.409  17.854  0.00  0.00    +0.000 C 
ATOM      9  C   UNL     1       6.734   6.232  16.942  0.00  0.00    +0.000 A 
ATOM     10  O   UNL     1       6.575   7.438  17.037  0.00  0.00    +0.000 OA
ATOM     11  C   UNL     1       6.519   5.452  15.610  0.00  0.00    +0.000 A 
ATOM     12  O   UNL     1       6.972   5.881  14.557  0.00  0.00    +0.000 OA
ATOM     13  N   UNL     1       5.842   4.223  15.769  0.00  0.00    +0.000 N 
ATOM     14  C   UNL     1       5.880   3.285  14.678  0.00  0.00    +0.000 C 
ENDROOT
BRANCH   1  15
ATOM     15  S   UNL     1       2.218   5.207  20.149  0.00  0.00    +0.000 S 
ATOM     16  O   UNL     1       2.368   4.610  21.458  0.00  0.00    +0.000 OA
ATOM     17  O   UNL     1       0.959   5.178  19.443  0.00  0.00    +0.000 OA
BRANCH  15  18
ATOM     18  N   UNL     1       2.765   6.801  20.286  0.00  0.00    +0.000 N 
ATOM     19  H   UNL     1       3.757   6.928  20.095  0.00  0.00    +0.000 HD
BRANCH  18  24
ATOM     20  C   UNL     1       0.222   9.507  20.687  0.00  0.00    +0.000 A 
ATOM     21  C   UNL     1       0.214  10.031  19.391  0.00  0.00    +0.000 A 
ATOM     22  C   UNL     1       1.031   9.487  18.401  0.00  0.00    +0.000 A 
ATOM     23  C   UNL     1       1.875   8.421  18.713  0.00  0.00    +0.000 A 
ATOM     24  C   UNL     1       1.885   7.899  20.007  0.00  0.00    +0.000 A 
ATOM     25  C   UNL     1       1.043   8.416  20.989  0.00  0.00    +0.000 A 
BRANCH  20  27
ATOM     26  C   UNL     1      -0.501   9.823  22.933  0.00  0.00    +0.000 C 
ATOM     27  O   UNL     1      -0.623  10.146  21.554  0.00  0.00    +0.000 OA
ENDBRANCH  20  27
ENDBRANCH  18  24
ENDBRANCH  15  18
ENDBRANCH   1  15
TORSDOF 4
ENDMDL
