MODEL 1
REMARK VINA RESULT:      -6.8      0.000      0.000
REMARK  Name = 
REMARK  9 active torsions:
REMARK  status: ('A' for Active; 'I' for Inactive)
REMARK    1  A    between atoms: C_1  and  C_2
REMARK    2  A    between atoms: C_2  and  C_3
REMARK    3  A    between atoms: C_3  and  C_4
REMARK    4  A    between atoms: C_3  and  N_5
REMARK    5  A    between atoms: C_6  and  C_8
REMARK    6  A    between atoms: C_11  and  N_12
REMARK    7  A    between atoms: N_12  and  S_13
REMARK    8  A    between atoms: S_13  and  C_14
REMARK    9  A    between atoms: C_17  and  C_18
REMARK                            x       y       z     vdW  Elec       q    Type
REMARK                         _______ _______ _______ _____ _____    ______ ____
ROOT
ATOM      1  C   UNL     1       7.909   7.950  18.168  0.00  0.00    +0.000 A 
ATOM      2  C   UNL     1       8.308   6.969  19.075  0.00  0.00    +0.000 A 
ATOM      3  C   UNL     1       7.746   5.692  19.004  0.00  0.00    +0.000 A 
ATOM      4  C   UNL     1       6.786   5.375  18.039  0.00  0.00    +0.000 A 
ATOM      5  C   UNL     1       6.383   6.346  17.109  0.00  0.00    +0.000 A 
ATOM      6  C   UNL     1       5.308   6.142  16.079  0.00  0.00    +0.000 C 
ATOM      7  C   UNL     1       6.978   7.623  17.169  0.00  0.00    +0.000 A 
ENDROOT
BRANCH   1   9
ATOM      8  N   UNL     1       9.217   9.680  19.316  0.00  0.00    +0.000 N 
ATOM      9  C   UNL     1       8.437   9.355  18.222  0.00  0.00    +0.000 C 
ATOM     10  O   UNL     1       8.118  10.163  17.357  0.00  0.00    +0.000 OA
ATOM     11  H   UNL     1       9.218   9.047  20.104  0.00  0.00    +0.000 HD
BRANCH   8  12
ATOM     12  C   UNL     1       9.638  11.054  19.579  0.00  0.00    +0.000 C 
ATOM     13  C   UNL     1       9.490  11.367  21.070  0.00  0.00    +0.000 C 
BRANCH  12  15
ATOM     14  C   UNL     1      11.246  11.862  17.753  0.00  0.00    +0.000 C 
ATOM     15  C   UNL     1      11.098  11.276  19.150  0.00  0.00    +0.000 C 
ENDBRANCH  12  15
ENDBRANCH   8  12
ENDBRANCH   1   9
BRANCH   4  16
ATOM     16  N   UNL     1       6.264   4.047  18.075  0.00  0.00    +0.000 N 
ATOM     17  H   UNL     1       6.275   3.524  17.198  0.00  0.00    +0.000 HD
BRANCH  16  18
ATOM     18  S   UNL     1       4.860   3.745  18.959  0.00  0.00    +0.000 S 
ATOM     19  C   UNL     1       3.742   3.172  17.694  0.00  0.00    +0.000 C 
ATOM     20  O   UNL     1       5.090   2.679  19.903  0.00  0.00    +0.000 OA
ATOM     21  O   UNL     1       4.387   5.045  19.390  0.00  0.00    +0.000 OA
ENDBRANCH  16  18
ENDBRANCH   4  16
TORSDOF 5
ENDMDL
MODEL 2
REMARK VINA RESULT:      -6.3      5.435      6.459
REMARK  Name = 
REMARK  9 active torsions:
REMARK  status: ('A' for Active; 'I' for Inactive)
REMARK    1  A    between atoms: C_1  and  C_2
REMARK    2  A    between atoms: C_2  and  C_3
REMARK    3  A    between atoms: C_3  and  C_4
REMARK    4  A    between atoms: C_3  and  N_5
REMARK    5  A    between atoms: C_6  and  C_8
REMARK    6  A    between atoms: C_11  and  N_12
REMARK    7  A    between atoms: N_12  and  S_13
REMARK    8  A    between atoms: S_13  and  C_14
REMARK    9  A    between atoms: C_17  and  C_18
REMARK                            x       y       z     vdW  Elec       q    Type
REMARK                         _______ _______ _______ _____ _____    ______ ____
ROOT
ATOM      1  C   UNL     1       4.585   5.039  16.874  0.00  0.00    +0.000 A 
ATOM      2  C   UNL     1       4.847   3.808  17.475  0.00  0.00    +0.000 A 
ATOM      3  C   UNL     1       4.323   3.532  18.740  0.00  0.00    +0.000 A 
ATOM      4  C   UNL     1       3.540   4.468  19.422  0.00  0.00    +0.000 A 
ATOM      5  C   UNL     1       3.255   5.706  18.825  0.00  0.00    +0.000 A 
ATOM      6  C   UNL     1       2.490   6.815  19.492  0.00  0.00    +0.000 C 
ATOM      7  C   UNL     1       3.762   5.965  17.535  0.00  0.00    +0.000 A 
ENDROOT
BRANCH   1   9
ATOM      8  N   UNL     1       5.446   4.379  14.673  0.00  0.00    +0.000 N 
ATOM      9  C   UNL     1       5.159   5.417  15.538  0.00  0.00    +0.000 C 
ATOM     10  O   UNL     1       5.406   6.592  15.289  0.00  0.00    +0.000 OA
ATOM     11  H   UNL     1       5.459   3.439  15.046  0.00  0.00    +0.000 HD
BRANCH   8  12
ATOM     12  C   UNL     1       6.172   4.598  13.424  0.00  0.00    +0.000 C 
ATOM     13  C   UNL     1       7.647   4.878  13.722  0.00  0.00    +0.000 C 
BRANCH  12  15
ATOM     14  C   UNL     1       4.727   3.277  11.769  0.00  0.00    +0.000 C 
ATOM     15  C   UNL     1       6.059   3.374  12.499  0.00  0.00    +0.000 C 
ENDBRANCH  12  15
ENDBRANCH   8  12
ENDBRANCH   1   9
BRANCH   4  16
ATOM     16  N   UNL     1       3.079   4.087  20.717  0.00  0.00    +0.000 N 
ATOM     17  H   UNL     1       3.776   3.709  21.362  0.00  0.00    +0.000 HD
BRANCH  16  18
ATOM     18  S   UNL     1       1.606   3.279  20.855  0.00  0.00    +0.000 S 
ATOM     19  C   UNL     1       1.711   2.087  19.532  0.00  0.00    +0.000 C 
ATOM     20  O   UNL     1       1.541   2.580  22.116  0.00  0.00    +0.000 OA
ATOM     21  O   UNL     1       0.596   4.247  20.478  0.00  0.00    +0.000 OA
ENDBRANCH  16  18
ENDBRANCH   4  16
TORSDOF 5
ENDMDL
MODEL 3
REMARK VINA RESULT:      -6.3      5.248      6.634
REMARK  Name = 
REMARK  9 active torsions:
REMARK  status: ('A' for Active; 'I' for Inactive)
REMARK    1  A    between atoms: C_1  and  C_2
REMARK    2  A    between atoms: C_2  and  C_3
REMARK    3  A    between atoms: C_3  and  C_4
REMARK    4  A    between atoms: C_3  and  N_5
REMARK    5  A    between atoms: C_6  and  C_8
REMARK    6  A    between atoms: C_11  and  N_12
REMARK    7  A    between atoms: N_12  and  S_13
REMARK    8  A    between atoms: S_13  and  C_14
REMARK    9  A    between atoms: C_17  and  C_18
REMARK                            x       y       z     vdW  Elec       q    Type
REMARK                         _______ _______ _______ _____ _____    ______ ____
ROOT
ATOM      1  C   UNL     1       4.794   4.748  16.779  0.00  0.00    +0.000 A 
ATOM      2  C   UNL     1       4.658   5.614  17.863  0.00  0.00    +0.000 A 
ATOM      3  C   UNL     1       4.185   5.125  19.083  0.00  0.00    +0.000 A 
ATOM      4  C   UNL     1       3.841   3.780  19.241  0.00  0.00    +0.000 A 
ATOM      5  C   UNL     1       3.984   2.891  18.164  0.00  0.00    +0.000 A 
ATOM      6  C   UNL     1       3.575   1.444  18.195  0.00  0.00    +0.000 C 
ATOM      7  C   UNL     1       4.491   3.386  16.945  0.00  0.00    +0.000 A 
ENDROOT
BRANCH   1   9
ATOM      8  N   UNL     1       5.582   4.240  14.511  0.00  0.00    +0.000 N 
ATOM      9  C   UNL     1       5.249   5.219  15.427  0.00  0.00    +0.000 C 
ATOM     10  O   UNL     1       5.368   6.420  15.206  0.00  0.00    +0.000 OA
ATOM     11  H   UNL     1       5.706   3.295  14.849  0.00  0.00    +0.000 HD
BRANCH   8  12
ATOM     12  C   UNL     1       6.208   4.565  13.232  0.00  0.00    +0.000 C 
ATOM     13  C   UNL     1       7.680   4.926  13.450  0.00  0.00    +0.000 C 
BRANCH  12  15
ATOM     14  C   UNL     1       4.722   3.196  11.654  0.00  0.00    +0.000 C 
ATOM     15  C   UNL     1       6.109   3.383  12.253  0.00  0.00    +0.000 C 
ENDBRANCH  12  15
ENDBRANCH   8  12
ENDBRANCH   1   9
BRANCH   4  16
ATOM     16  N   UNL     1       3.346   3.397  20.524  0.00  0.00    +0.000 N 
ATOM     17  H   UNL     1       3.745   2.553  20.938  0.00  0.00    +0.000 HD
BRANCH  16  18
ATOM     18  S   UNL     1       1.692   3.515  20.830  0.00  0.00    +0.000 S 
ATOM     19  C   UNL     1       1.446   5.281  20.868  0.00  0.00    +0.000 C 
ATOM     20  O   UNL     1       0.945   2.958  19.728  0.00  0.00    +0.000 OA
ATOM     21  O   UNL     1       1.513   3.029  22.184  0.00  0.00    +0.000 OA
ENDBRANCH  16  18
ENDBRANCH   4  16
TORSDOF 5
ENDMDL
MODEL 4
REMARK VINA RESULT:      -6.2      5.283      6.605
REMARK  Name = 
REMARK  9 active torsions:
REMARK  status: ('A' for Active; 'I' for Inactive)
REMARK    1  A    between atoms: C_1  and  C_2
REMARK    2  A    between atoms: C_2  and  C_3
REMARK    3  A    between atoms: C_3  and  C_4
REMARK    4  A    between atoms: C_3  and  N_5
REMARK    5  A    between atoms: C_6  and  C_8
REMARK    6  A    between atoms: C_11  and  N_12
REMARK    7  A    between atoms: N_12  and  S_13
REMARK    8  A    between atoms: S_13  and  C_14
REMARK    9  A    between atoms: C_17  and  C_18
REMARK                            x       y       z     vdW  Elec       q    Type
REMARK                         _______ _______ _______ _____ _____    ______ ____
ROOT
ATOM      1  C   UNL     1       2.378   7.694  18.595  0.00  0.00    +0.000 A 
ATOM      2  C   UNL     1       1.957   6.875  19.642  0.00  0.00    +0.000 A 
ATOM      3  C   UNL     1       2.463   5.578  19.751  0.00  0.00    +0.000 A 
ATOM      4  C   UNL     1       3.384   5.078  18.826  0.00  0.00    +0.000 A 
ATOM      5  C   UNL     1       3.828   5.893  17.774  0.00  0.00    +0.000 A 
ATOM      6  C   UNL     1       4.756   5.439  16.681  0.00  0.00    +0.000 C 
ATOM      7  C   UNL     1       3.337   7.212  17.689  0.00  0.00    +0.000 A 
ENDROOT
BRANCH   1   9
ATOM      8  N   UNL     1       0.846   9.490  19.265  0.00  0.00    +0.000 N 
ATOM      9  C   UNL     1       1.836   9.080  18.392  0.00  0.00    +0.000 C 
ATOM     10  O   UNL     1       2.230   9.760  17.451  0.00  0.00    +0.000 OA
ATOM     11  H   UNL     1       0.399   8.789  19.840  0.00  0.00    +0.000 HD
BRANCH   8  12
ATOM     12  C   UNL     1       0.113  10.738  19.065  0.00  0.00    +0.000 C 
ATOM     13  C   UNL     1      -1.186  10.461  18.305  0.00  0.00    +0.000 C 
BRANCH  12  15
ATOM     14  C   UNL     1      -0.306  10.433  21.576  0.00  0.00    +0.000 C 
ATOM     15  C   UNL     1      -0.213  11.408  20.411  0.00  0.00    +0.000 C 
ENDBRANCH  12  15
ENDBRANCH   8  12
ENDBRANCH   1   9
BRANCH   4  16
ATOM     16  N   UNL     1       3.813   3.731  19.022  0.00  0.00    +0.000 N 
ATOM     17  H   UNL     1       4.816   3.552  18.947  0.00  0.00    +0.000 HD
BRANCH  16  18
ATOM     18  S   UNL     1       2.908   2.479  18.347  0.00  0.00    +0.000 S 
ATOM     19  C   UNL     1       1.725   2.138  19.637  0.00  0.00    +0.000 C 
ATOM     20  O   UNL     1       2.207   2.951  17.177  0.00  0.00    +0.000 OA
ATOM     21  O   UNL     1       3.807   1.344  18.281  0.00  0.00    +0.000 OA
ENDBRANCH  16  18
ENDBRANCH   4  16
TORSDOF 5
ENDMDL
MODEL 5
REMARK VINA RESULT:      -6.2      5.124      7.248
REMARK  Name = 
REMARK  9 active torsions:
REMARK  status: ('A' for Active; 'I' for Inactive)
REMARK    1  A    between atoms: C_1  and  C_2
REMARK    2  A    between atoms: C_2  and  C_3
REMARK    3  A    between atoms: C_3  and  C_4
REMARK    4  A    between atoms: C_3  and  N_5
REMARK    5  A    between atoms: C_6  and  C_8
REMARK    6  A    between atoms: C_11  and  N_12
REMARK    7  A    between atoms: N_12  and  S_13
REMARK    8  A    between atoms: S_13  and  C_14
REMARK    9  A    between atoms: C_17  and  C_18
REMARK                            x       y       z     vdW  Elec       q    Type
REMARK                         _______ _______ _______ _____ _____    ______ ____
ROOT
ATOM      1  C   UNL     1       5.158   4.645  15.841  0.00  0.00    +0.000 A 
ATOM      2  C   UNL     1       5.085   5.798  16.622  0.00  0.00    +0.000 A 
ATOM      3  C   UNL     1       4.581   5.720  17.922  0.00  0.00    +0.000 A 
ATOM      4  C   UNL     1       4.143   4.507  18.460  0.00  0.00    +0.000 A 
ATOM      5  C   UNL     1       4.222   3.335  17.693  0.00  0.00    +0.000 A 
ATOM      6  C   UNL     1       3.713   1.992  18.138  0.00  0.00    +0.000 C 
ATOM      7  C   UNL     1       4.760   3.416  16.392  0.00  0.00    +0.000 A 
ENDROOT
BRANCH   1   9
ATOM      8  N   UNL     1       4.928   3.909  13.511  0.00  0.00    +0.000 N 
ATOM      9  C   UNL     1       5.642   4.668  14.419  0.00  0.00    +0.000 C 
ATOM     10  O   UNL     1       6.659   5.289  14.129  0.00  0.00    +0.000 OA
ATOM     11  H   UNL     1       4.272   3.230  13.871  0.00  0.00    +0.000 HD
BRANCH   8  12
ATOM     12  C   UNL     1       5.400   3.702  12.144  0.00  0.00    +0.000 C 
ATOM     13  C   UNL     1       6.691   2.880  12.158  0.00  0.00    +0.000 C 
BRANCH  12  15
ATOM     14  C   UNL     1       3.476   3.912  10.462  0.00  0.00    +0.000 C 
ATOM     15  C   UNL     1       4.339   2.977  11.298  0.00  0.00    +0.000 C 
ENDBRANCH  12  15
ENDBRANCH   8  12
ENDBRANCH   1   9
BRANCH   4  16
ATOM     16  N   UNL     1       3.626   4.552  19.789  0.00  0.00    +0.000 N 
ATOM     17  H   UNL     1       3.997   3.868  20.451  0.00  0.00    +0.000 HD
BRANCH  16  18
ATOM     18  S   UNL     1       1.973   4.796  20.014  0.00  0.00    +0.000 S 
ATOM     19  C   UNL     1       1.552   3.476  21.137  0.00  0.00    +0.000 C 
ATOM     20  O   UNL     1       1.744   6.062  20.668  0.00  0.00    +0.000 OA
ATOM     21  O   UNL     1       1.358   4.484  18.739  0.00  0.00    +0.000 OA
ENDBRANCH  16  18
ENDBRANCH   4  16
TORSDOF 5
ENDMDL
MODEL 6
REMARK VINA RESULT:      -6.2      6.228      8.880
REMARK  Name = 
REMARK  9 active torsions:
REMARK  status: ('A' for Active; 'I' for Inactive)
REMARK    1  A    between atoms: C_1  and  C_2
REMARK    2  A    between atoms: C_2  and  C_3
REMARK    3  A    between atoms: C_3  and  C_4
REMARK    4  A    between atoms: C_3  and  N_5
REMARK    5  A    between atoms: C_6  and  C_8
REMARK    6  A    between atoms: C_11  and  N_12
REMARK    7  A    between atoms: N_12  and  S_13
REMARK    8  A    between atoms: S_13  and  C_14
REMARK    9  A    between atoms: C_17  and  C_18
REMARK                            x       y       z     vdW  Elec       q    Type
REMARK                         _______ _______ _______ _____ _____    ______ ____
ROOT
ATOM      1  C   UNL     1       2.409   7.055  19.468  0.00  0.00    +0.000 A 
ATOM      2  C   UNL     1       2.522   7.722  18.248  0.00  0.00    +0.000 A 
ATOM      3  C   UNL     1       1.895   8.957  18.076  0.00  0.00    +0.000 A 
ATOM      4  C   UNL     1       1.150   9.543  19.104  0.00  0.00    +0.000 A 
ATOM      5  C   UNL     1       1.038   8.892  20.342  0.00  0.00    +0.000 A 
ATOM      6  C   UNL     1       0.204   9.388  21.491  0.00  0.00    +0.000 C 
ATOM      7  C   UNL     1       1.699   7.659  20.518  0.00  0.00    +0.000 A 
ENDROOT
BRANCH   1   9
ATOM      8  N   UNL     1       2.149   4.689  20.065  0.00  0.00    +0.000 N 
ATOM      9  C   UNL     1       3.017   5.701  19.701  0.00  0.00    +0.000 C 
ATOM     10  O   UNL     1       4.232   5.554  19.625  0.00  0.00    +0.000 OA
ATOM     11  H   UNL     1       1.216   4.945  20.357  0.00  0.00    +0.000 HD
BRANCH   8  12
ATOM     12  C   UNL     1       2.633   3.379  20.495  0.00  0.00    +0.000 C 
ATOM     13  C   UNL     1       1.898   2.945  21.766  0.00  0.00    +0.000 C 
BRANCH  12  15
ATOM     14  C   UNL     1       1.283   2.652  18.442  0.00  0.00    +0.000 C 
ATOM     15  C   UNL     1       2.423   2.325  19.395  0.00  0.00    +0.000 C 
ENDBRANCH  12  15
ENDBRANCH   8  12
ENDBRANCH   1   9
BRANCH   4  16
ATOM     16  N   UNL     1       0.534  10.796  18.808  0.00  0.00    +0.000 N 
ATOM     17  H   UNL     1       0.001  10.852  17.938  0.00  0.00    +0.000 HD
BRANCH  16  18
ATOM     18  S   UNL     1       1.390  12.218  19.103  0.00  0.00    +0.000 S 
ATOM     19  C   UNL     1       0.201  13.467  18.650  0.00  0.00    +0.000 C 
ATOM     20  O   UNL     1       1.684  12.334  20.511  0.00  0.00    +0.000 OA
ATOM     21  O   UNL     1       2.443  12.249  18.108  0.00  0.00    +0.000 OA
ENDBRANCH  16  18
ENDBRANCH   4  16
TORSDOF 5
ENDMDL
MODEL 7
REMARK VINA RESULT:      -6.2      5.795      8.339
REMARK  Name = 
REMARK  9 active torsions:
REMARK  status: ('A' for Active; 'I' for Inactive)
REMARK    1  A    between atoms: C_1  and  C_2
REMARK    2  A    between atoms: C_2  and  C_3
REMARK    3  A    between atoms: C_3  and  C_4
REMARK    4  A    between atoms: C_3  and  N_5
REMARK    5  A    between atoms: C_6  and  C_8
REMARK    6  A    between atoms: C_11  and  N_12
REMARK    7  A    between atoms: N_12  and  S_13
REMARK    8  A    between atoms: S_13  and  C_14
REMARK    9  A    between atoms: C_17  and  C_18
REMARK                            x       y       z     vdW  Elec       q    Type
REMARK                         _______ _______ _______ _____ _____    ______ ____
ROOT
ATOM      1  C   UNL     1       2.454   7.324  19.020  0.00  0.00    +0.000 A 
ATOM      2  C   UNL     1       2.372   8.208  17.944  0.00  0.00    +0.000 A 
ATOM      3  C   UNL     1       1.659   9.400  18.081  0.00  0.00    +0.000 A 
ATOM      4  C   UNL     1       1.019   9.729  19.280  0.00  0.00    +0.000 A 
ATOM      5  C   UNL     1       1.103   8.858  20.377  0.00  0.00    +0.000 A 
ATOM      6  C   UNL     1       0.395   9.071  21.687  0.00  0.00    +0.000 C 
ATOM      7  C   UNL     1       1.851   7.671  20.240  0.00  0.00    +0.000 A 
ENDROOT
BRANCH   1   9
ATOM      8  N   UNL     1       3.443   5.546  17.648  0.00  0.00    +0.000 N 
ATOM      9  C   UNL     1       3.163   6.004  18.922  0.00  0.00    +0.000 C 
ATOM     10  O   UNL     1       3.407   5.363  19.939  0.00  0.00    +0.000 OA
ATOM     11  H   UNL     1       2.984   5.998  16.869  0.00  0.00    +0.000 HD
BRANCH   8  12
ATOM     12  C   UNL     1       3.962   4.201  17.412  0.00  0.00    +0.000 C 
ATOM     13  C   UNL     1       2.801   3.232  17.169  0.00  0.00    +0.000 C 
BRANCH  12  15
ATOM     14  C   UNL     1       5.353   5.563  15.745  0.00  0.00    +0.000 C 
ATOM     15  C   UNL     1       4.909   4.180  16.201  0.00  0.00    +0.000 C 
ENDBRANCH  12  15
ENDBRANCH   8  12
ENDBRANCH   1   9
BRANCH   4  16
ATOM     16  N   UNL     1       0.300  10.962  19.298  0.00  0.00    +0.000 N 
ATOM     17  H   UNL     1      -0.348  11.128  18.526  0.00  0.00    +0.000 HD
BRANCH  16  18
ATOM     18  S   UNL     1       1.107  12.373  19.744  0.00  0.00    +0.000 S 
ATOM     19  C   UNL     1      -0.188  13.593  19.630  0.00  0.00    +0.000 C 
ATOM     20  O   UNL     1       1.548  12.278  21.115  0.00  0.00    +0.000 OA
ATOM     21  O   UNL     1       2.042  12.640  18.669  0.00  0.00    +0.000 OA
ENDBRANCH  16  18
ENDBRANCH   4  16
TORSDOF 5
ENDMDL
MODEL 8
REMARK VINA RESULT:      -6.1      6.456      9.113
REMARK  Name = 
REMARK  9 active torsions:
REMARK  status: ('A' for Active; 'I' for Inactive)
REMARK    1  A    between atoms: C_1  and  C_2
REMARK    2  A    between atoms: C_2  and  C_3
REMARK    3  A    between atoms: C_3  and  C_4
REMARK    4  A    between atoms: C_3  and  N_5
REMARK    5  A    between atoms: C_6  and  C_8
REMARK    6  A    between atoms: C_11  and  N_12
REMARK    7  A    between atoms: N_12  and  S_13
REMARK    8  A    between atoms: S_13  and  C_14
REMARK    9  A    between atoms: C_17  and  C_18
REMARK                            x       y       z     vdW  Elec       q    Type
REMARK                         _______ _______ _______ _____ _____    ______ ____
ROOT
ATOM      1  C   UNL     1       2.134   7.323  19.472  0.00  0.00    +0.000 A 
ATOM      2  C   UNL     1       2.198   8.084  18.304  0.00  0.00    +0.000 A 
ATOM      3  C   UNL     1       1.650   9.368  18.286  0.00  0.00    +0.000 A 
ATOM      4  C   UNL     1       1.034   9.911  19.417  0.00  0.00    +0.000 A 
ATOM      5  C   UNL     1       0.973   9.165  20.604  0.00  0.00    +0.000 A 
ATOM      6  C   UNL     1       0.272   9.615  21.856  0.00  0.00    +0.000 C 
ATOM      7  C   UNL     1       1.555   7.881  20.624  0.00  0.00    +0.000 A 
ENDROOT
BRANCH   1   9
ATOM      8  N   UNL     1       1.718   4.914  19.682  0.00  0.00    +0.000 N 
ATOM      9  C   UNL     1       2.658   5.918  19.544  0.00  0.00    +0.000 C 
ATOM     10  O   UNL     1       3.868   5.715  19.541  0.00  0.00    +0.000 OA
ATOM     11  H   UNL     1       0.776   5.177  19.936  0.00  0.00    +0.000 HD
BRANCH   8  12
ATOM     12  C   UNL     1       2.105   3.530  19.945  0.00  0.00    +0.000 C 
ATOM     13  C   UNL     1       1.432   3.037  21.228  0.00  0.00    +0.000 C 
BRANCH  12  15
ATOM     14  C   UNL     1       2.445   2.925  17.477  0.00  0.00    +0.000 C 
ATOM     15  C   UNL     1       1.709   2.615  18.773  0.00  0.00    +0.000 C 
ENDBRANCH  12  15
ENDBRANCH   8  12
ENDBRANCH   1   9
BRANCH   4  16
ATOM     16  N   UNL     1       0.488  11.222  19.275  0.00  0.00    +0.000 N 
ATOM     17  H   UNL     1       0.743  11.907  19.990  0.00  0.00    +0.000 HD
BRANCH  16  18
ATOM     18  S   UNL     1      -1.121  11.391  18.803  0.00  0.00    +0.000 S 
ATOM     19  C   UNL     1      -1.865  12.092  20.265  0.00  0.00    +0.000 C 
ATOM     20  O   UNL     1      -1.223  12.339  17.721  0.00  0.00    +0.000 OA
ATOM     21  O   UNL     1      -1.630  10.040  18.672  0.00  0.00    +0.000 OA
ENDBRANCH  16  18
ENDBRANCH   4  16
TORSDOF 5
ENDMDL
MODEL 9
REMARK VINA RESULT:      -6.1      6.158      8.508
REMARK  Name = 
REMARK  9 active torsions:
REMARK  status: ('A' for Active; 'I' for Inactive)
REMARK    1  A    between atoms: C_1  and  C_2
REMARK    2  A    between atoms: C_2  and  C_3
REMARK    3  A    between atoms: C_3  and  C_4
REMARK    4  A    between atoms: C_3  and  N_5
REMARK    5  A    between atoms: C_6  and  C_8
REMARK    6  A    between atoms: C_11  and  N_12
REMARK    7  A    between atoms: N_12  and  S_13
REMARK    8  A    between atoms: S_13  and  C_14
REMARK    9  A    between atoms: C_17  and  C_18
REMARK                            x       y       z     vdW  Elec       q    Type
REMARK                         _______ _______ _______ _____ _____    ______ ____
ROOT
ATOM      1  C   UNL     1       2.276   7.489  19.066  0.00  0.00    +0.000 A 
ATOM      2  C   UNL     1       2.258   8.322  17.948  0.00  0.00    +0.000 A 
ATOM      3  C   UNL     1       1.629   9.567  18.024  0.00  0.00    +0.000 A 
ATOM      4  C   UNL     1       1.012   9.998  19.201  0.00  0.00    +0.000 A 
ATOM      5  C   UNL     1       1.033   9.178  20.341  0.00  0.00    +0.000 A 
ATOM      6  C   UNL     1       0.341   9.503  21.635  0.00  0.00    +0.000 C 
ATOM      7  C   UNL     1       1.697   7.936  20.265  0.00  0.00    +0.000 A 
ENDROOT
BRANCH   1   9
ATOM      8  N   UNL     1       3.318   5.661  17.804  0.00  0.00    +0.000 N 
ATOM      9  C   UNL     1       2.891   6.119  19.036  0.00  0.00    +0.000 C 
ATOM     10  O   UNL     1       2.937   5.446  20.060  0.00  0.00    +0.000 OA
ATOM     11  H   UNL     1       3.012   6.159  16.980  0.00  0.00    +0.000 HD
BRANCH   8  12
ATOM     12  C   UNL     1       3.764   4.283  17.610  0.00  0.00    +0.000 C 
ATOM     13  C   UNL     1       2.569   3.396  17.250  0.00  0.00    +0.000 C 
BRANCH  12  15
ATOM     14  C   UNL     1       5.200   5.548  15.904  0.00  0.00    +0.000 C 
ATOM     15  C   UNL     1       4.820   4.198  16.495  0.00  0.00    +0.000 C 
ENDBRANCH  12  15
ENDBRANCH   8  12
ENDBRANCH   1   9
BRANCH   4  16
ATOM     16  N   UNL     1       0.380  11.277  19.156  0.00  0.00    +0.000 N 
ATOM     17  H   UNL     1       0.604  11.928  19.911  0.00  0.00    +0.000 HD
BRANCH  16  18
ATOM     18  S   UNL     1      -1.246  11.369  18.722  0.00  0.00    +0.000 S 
ATOM     19  C   UNL     1      -1.985  12.060  20.191  0.00  0.00    +0.000 C 
ATOM     20  O   UNL     1      -1.414  12.296  17.628  0.00  0.00    +0.000 OA
ATOM     21  O   UNL     1      -1.699   9.996  18.622  0.00  0.00    +0.000 OA
ENDBRANCH  16  18
ENDBRANCH   4  16
TORSDOF 5
ENDMDL
