MODEL 1
REMARK VINA RESULT:      -8.0      0.000      0.000
REMARK  Name = 
REMARK  14 active torsions:
REMARK  status: ('A' for Active; 'I' for Inactive)
REMARK    1  A    between atoms: C_1  and  C_2
REMARK    2  A    between atoms: C_2  and  C_15
REMARK    3  A    between atoms: C_3  and  C_4
REMARK    4  A    between atoms: C_4  and  C_5
REMARK    5  A    between atoms: C_5  and  C_6
REMARK    6  A    between atoms: C_7  and  C_8
REMARK    7  A    between atoms: C_13  and  C_14
REMARK    8  A    between atoms: C_15  and  O_16
REMARK    9  A    between atoms: C_15  and  C_17
REMARK   10  A    between atoms: C_17  and  C_18
REMARK   11  A    between atoms: C_19  and  O_20
REMARK   12  A    between atoms: C_23  and  C_24
REMARK   13  A    between atoms: C_25  and  C_26
REMARK   14  A    between atoms: C_28  and  O_29
REMARK                            x       y       z     vdW  Elec       q    Type
REMARK                         _______ _______ _______ _____ _____    ______ ____
ROOT
ATOM      1  C   UNL     1       1.050   8.822  20.178  0.00  0.00    +0.000 C 
ENDROOT
BRANCH   1   3
ATOM      2  C   UNL     1       2.291   8.410  17.986  0.00  0.00    +0.000 C 
ATOM      3  C   UNL     1       1.947   7.881  19.362  0.00  0.00    +0.000 C 
ATOM      4  C   UNL     1       2.359   6.687  19.839  0.00  0.00    +0.000 C 
BRANCH   4   5
ATOM      5  C   UNL     1       3.235   5.642  19.196  0.00  0.00    +0.000 C 
BRANCH   5   6
ATOM      6  C   UNL     1       2.510   4.299  18.757  0.00  0.00    +0.000 C 
ATOM      7  C   UNL     1       1.613   4.630  17.536  0.00  0.00    +0.000 C 
ATOM      8  C   UNL     1       3.630   3.280  18.330  0.00  0.00    +0.000 C 
ATOM      9  C   UNL     1       3.156   1.998  17.627  0.00  0.00    +0.000 C 
ATOM     10  C   UNL     1       4.527   2.901  19.522  0.00  0.00    +0.000 C 
ATOM     11  C   UNL     1       3.741   2.372  20.713  0.00  0.00    +0.000 C 
ATOM     12  C   UNL     1       2.555   3.242  21.078  0.00  0.00    +0.000 C 
ATOM     13  O   UNL     1       2.241   3.399  22.260  0.00  0.00    +0.000 OA
ATOM     14  C   UNL     1       1.662   3.768  19.959  0.00  0.00    +0.000 C 
ATOM     15  C   UNL     1       0.597   2.709  19.661  0.00  0.00    +0.000 C 
ENDBRANCH   5   6
ENDBRANCH   4   5
ENDBRANCH   1   3
BRANCH   1  16
ATOM     16  O   UNL     1       1.546   8.783  21.532  0.00  0.00    +0.000 OA
ATOM     17  H   UNL     1       2.505   8.616  21.486  0.00  0.00    +0.000 HD
ENDBRANCH   1  16
BRANCH   1  18
ATOM     18  C   UNL     1       0.992  10.308  19.714  0.00  0.00    +0.000 C 
BRANCH  18  19
ATOM     19  C   UNL     1      -0.366  10.995  19.814  0.00  0.00    +0.000 A 
ATOM     20  C   UNL     1      -1.274  11.004  18.742  0.00  0.00    +0.000 A 
ATOM     21  C   UNL     1      -2.521  11.660  18.823  0.00  0.00    +0.000 A 
ATOM     22 CL   UNL     1      -3.533  11.672  17.410  0.00  0.00    +0.000 Cl
ATOM     23  C   UNL     1      -2.922  12.294  20.013  0.00  0.00    +0.000 A 
ATOM     24  C   UNL     1      -4.225  13.044  20.100  0.00  0.00    +0.000 C 
ATOM     25  C   UNL     1      -2.071  12.179  21.135  0.00  0.00    +0.000 A 
ATOM     26  C   UNL     1      -0.808  11.550  21.025  0.00  0.00    +0.000 A 
BRANCH  20  27
ATOM     27  O   UNL     1      -1.004  10.317  17.589  0.00  0.00    +0.000 OA
ATOM     28  H   UNL     1      -0.085   9.982  17.658  0.00  0.00    +0.000 HD
ENDBRANCH  20  27
BRANCH  25  29
ATOM     29  C   UNL     1      -2.515  12.689  22.457  0.00  0.00    +0.000 C 
ATOM     30  O   UNL     1      -2.684  11.928  23.407  0.00  0.00    +0.000 OA
ENDBRANCH  25  29
BRANCH  26  31
ATOM     31  O   UNL     1       0.026  11.433  22.113  0.00  0.00    +0.000 OA
ATOM     32  H   UNL     1      -0.258  12.072  22.806  0.00  0.00    +0.000 HD
ENDBRANCH  26  31
ENDBRANCH  18  19
ENDBRANCH   1  18
TORSDOF 9
ENDMDL
MODEL 2
REMARK VINA RESULT:      -7.8      1.321      2.610
REMARK  Name = 
REMARK  14 active torsions:
REMARK  status: ('A' for Active; 'I' for Inactive)
REMARK    1  A    between atoms: C_1  and  C_2
REMARK    2  A    between atoms: C_2  and  C_15
REMARK    3  A    between atoms: C_3  and  C_4
REMARK    4  A    between atoms: C_4  and  C_5
REMARK    5  A    between atoms: C_5  and  C_6
REMARK    6  A    between atoms: C_7  and  C_8
REMARK    7  A    between atoms: C_13  and  C_14
REMARK    8  A    between atoms: C_15  and  O_16
REMARK    9  A    between atoms: C_15  and  C_17
REMARK   10  A    between atoms: C_17  and  C_18
REMARK   11  A    between atoms: C_19  and  O_20
REMARK   12  A    between atoms: C_23  and  C_24
REMARK   13  A    between atoms: C_25  and  C_26
REMARK   14  A    between atoms: C_28  and  O_29
REMARK                            x       y       z     vdW  Elec       q    Type
REMARK                         _______ _______ _______ _____ _____    ______ ____
ROOT
ATOM      1  C   UNL     1       0.815   9.145  19.781  0.00  0.00    +0.000 C 
ENDROOT
BRANCH   1   3
ATOM      2  C   UNL     1       2.479   8.584  17.929  0.00  0.00    +0.000 C 
ATOM      3  C   UNL     1       1.846   8.149  19.234  0.00  0.00    +0.000 C 
ATOM      4  C   UNL     1       2.129   6.988  19.863  0.00  0.00    +0.000 C 
BRANCH   4   5
ATOM      5  C   UNL     1       3.103   5.901  19.486  0.00  0.00    +0.000 C 
BRANCH   5   6
ATOM      6  C   UNL     1       2.469   4.579  18.875  0.00  0.00    +0.000 C 
ATOM      7  C   UNL     1       1.571   5.000  17.683  0.00  0.00    +0.000 C 
ATOM      8  C   UNL     1       3.656   3.687  18.355  0.00  0.00    +0.000 C 
ATOM      9  C   UNL     1       3.272   2.472  17.495  0.00  0.00    +0.000 C 
ATOM     10  C   UNL     1       4.557   3.222  19.513  0.00  0.00    +0.000 C 
ATOM     11  C   UNL     1       3.788   2.508  20.616  0.00  0.00    +0.000 C 
ATOM     12  C   UNL     1       2.546   3.256  21.055  0.00  0.00    +0.000 C 
ATOM     13  O   UNL     1       2.205   3.251  22.240  0.00  0.00    +0.000 OA
ATOM     14  C   UNL     1       1.638   3.858  19.987  0.00  0.00    +0.000 C 
ATOM     15  C   UNL     1       0.645   2.781  19.542  0.00  0.00    +0.000 C 
ENDBRANCH   5   6
ENDBRANCH   4   5
ENDBRANCH   1   3
BRANCH   1  16
ATOM     16  O   UNL     1       1.316   9.589  21.058  0.00  0.00    +0.000 OA
ATOM     17  H   UNL     1       0.607   9.454  21.713  0.00  0.00    +0.000 HD
ENDBRANCH   1  16
BRANCH   1  18
ATOM     18  C   UNL     1       0.517  10.397  18.903  0.00  0.00    +0.000 C 
BRANCH  18  19
ATOM     19  C   UNL     1      -0.894  10.966  18.992  0.00  0.00    +0.000 A 
ATOM     20  C   UNL     1      -1.285  11.820  20.037  0.00  0.00    +0.000 A 
ATOM     21  C   UNL     1      -2.598  12.329  20.136  0.00  0.00    +0.000 A 
ATOM     22 CL   UNL     1      -2.992  13.315  21.512  0.00  0.00    +0.000 Cl
ATOM     23  C   UNL     1      -3.558  12.033  19.152  0.00  0.00    +0.000 A 
ATOM     24  C   UNL     1      -4.977  12.523  19.270  0.00  0.00    +0.000 C 
ATOM     25  C   UNL     1      -3.137  11.280  18.033  0.00  0.00    +0.000 A 
ATOM     26  C   UNL     1      -1.828  10.747  17.968  0.00  0.00    +0.000 A 
BRANCH  20  27
ATOM     27  O   UNL     1      -0.380  12.243  20.973  0.00  0.00    +0.000 OA
ATOM     28  H   UNL     1       0.513  12.140  20.581  0.00  0.00    +0.000 HD
ENDBRANCH  20  27
BRANCH  25  29
ATOM     29  C   UNL     1      -4.062  11.074  16.889  0.00  0.00    +0.000 C 
ATOM     30  O   UNL     1      -3.686  11.237  15.731  0.00  0.00    +0.000 OA
ENDBRANCH  25  29
BRANCH  26  31
ATOM     31  O   UNL     1      -1.410  10.015  16.881  0.00  0.00    +0.000 OA
ATOM     32  H   UNL     1      -2.194   9.604  16.450  0.00  0.00    +0.000 HD
ENDBRANCH  26  31
ENDBRANCH  18  19
ENDBRANCH   1  18
TORSDOF 9
ENDMDL
MODEL 3
REMARK VINA RESULT:      -7.6      2.154      3.056
REMARK  Name = 
REMARK  14 active torsions:
REMARK  status: ('A' for Active; 'I' for Inactive)
REMARK    1  A    between atoms: C_1  and  C_2
REMARK    2  A    between atoms: C_2  and  C_15
REMARK    3  A    between atoms: C_3  and  C_4
REMARK    4  A    between atoms: C_4  and  C_5
REMARK    5  A    between atoms: C_5  and  C_6
REMARK    6  A    between atoms: C_7  and  C_8
REMARK    7  A    between atoms: C_13  and  C_14
REMARK    8  A    between atoms: C_15  and  O_16
REMARK    9  A    between atoms: C_15  and  C_17
REMARK   10  A    between atoms: C_17  and  C_18
REMARK   11  A    between atoms: C_19  and  O_20
REMARK   12  A    between atoms: C_23  and  C_24
REMARK   13  A    between atoms: C_25  and  C_26
REMARK   14  A    between atoms: C_28  and  O_29
REMARK                            x       y       z     vdW  Elec       q    Type
REMARK                         _______ _______ _______ _____ _____    ______ ____
ROOT
ATOM      1  C   UNL     1       2.097   9.107  18.362  0.00  0.00    +0.000 C 
ENDROOT
BRANCH   1   3
ATOM      2  C   UNL     1       3.851   7.730  17.121  0.00  0.00    +0.000 C 
ATOM      3  C   UNL     1       2.805   7.754  18.215  0.00  0.00    +0.000 C 
ATOM      4  C   UNL     1       2.492   6.691  18.986  0.00  0.00    +0.000 C 
BRANCH   4   5
ATOM      5  C   UNL     1       3.074   5.300  18.992  0.00  0.00    +0.000 C 
BRANCH   5   6
ATOM      6  C   UNL     1       2.162   4.166  19.628  0.00  0.00    +0.000 C 
ATOM      7  C   UNL     1       1.017   4.867  20.404  0.00  0.00    +0.000 C 
ATOM      8  C   UNL     1       1.560   3.327  18.440  0.00  0.00    +0.000 C 
ATOM      9  C   UNL     1       0.446   2.333  18.802  0.00  0.00    +0.000 C 
ATOM     10  C   UNL     1       2.663   2.589  17.662  0.00  0.00    +0.000 C 
ATOM     11  C   UNL     1       3.538   1.716  18.551  0.00  0.00    +0.000 C 
ATOM     12  C   UNL     1       4.027   2.433  19.792  0.00  0.00    +0.000 C 
ATOM     13  O   UNL     1       5.158   2.212  20.232  0.00  0.00    +0.000 OA
ATOM     14  C   UNL     1       3.039   3.288  20.580  0.00  0.00    +0.000 C 
ATOM     15  C   UNL     1       2.312   2.381  21.577  0.00  0.00    +0.000 C 
ENDBRANCH   5   6
ENDBRANCH   4   5
ENDBRANCH   1   3
BRANCH   1  16
ATOM     16  O   UNL     1       2.359   9.837  17.146  0.00  0.00    +0.000 OA
ATOM     17  H   UNL     1       2.145   9.246  16.400  0.00  0.00    +0.000 HD
ENDBRANCH   1  16
BRANCH   1  18
ATOM     18  C   UNL     1       0.557   9.069  18.595  0.00  0.00    +0.000 C 
BRANCH  18  19
ATOM     19  C   UNL     1       0.032   9.874  19.778  0.00  0.00    +0.000 A 
ATOM     20  C   UNL     1       0.203   9.443  21.104  0.00  0.00    +0.000 A 
ATOM     21  C   UNL     1      -0.304  10.174  22.200  0.00  0.00    +0.000 A 
ATOM     22 CL   UNL     1      -0.099   9.508  23.793  0.00  0.00    +0.000 Cl
ATOM     23  C   UNL     1      -0.964  11.399  22.002  0.00  0.00    +0.000 A 
ATOM     24  C   UNL     1      -1.558  12.165  23.154  0.00  0.00    +0.000 C 
ATOM     25  C   UNL     1      -1.028  11.901  20.682  0.00  0.00    +0.000 A 
ATOM     26  C   UNL     1      -0.548  11.138  19.592  0.00  0.00    +0.000 A 
BRANCH  20  27
ATOM     27  O   UNL     1       0.930   8.318  21.387  0.00  0.00    +0.000 OA
ATOM     28  H   UNL     1       0.677   7.635  20.729  0.00  0.00    +0.000 HD
ENDBRANCH  20  27
BRANCH  25  29
ATOM     29  C   UNL     1      -1.570  13.262  20.433  0.00  0.00    +0.000 C 
ATOM     30  O   UNL     1      -2.706  13.422  19.994  0.00  0.00    +0.000 OA
ENDBRANCH  25  29
BRANCH  26  31
ATOM     31  O   UNL     1      -0.605  11.622  18.305  0.00  0.00    +0.000 OA
ATOM     32  H   UNL     1       0.203  11.339  17.820  0.00  0.00    +0.000 HD
ENDBRANCH  26  31
ENDBRANCH  18  19
ENDBRANCH   1  18
TORSDOF 9
ENDMDL
MODEL 4
REMARK VINA RESULT:      -7.6      1.290      2.141
REMARK  Name = 
REMARK  14 active torsions:
REMARK  status: ('A' for Active; 'I' for Inactive)
REMARK    1  A    between atoms: C_1  and  C_2
REMARK    2  A    between atoms: C_2  and  C_15
REMARK    3  A    between atoms: C_3  and  C_4
REMARK    4  A    between atoms: C_4  and  C_5
REMARK    5  A    between atoms: C_5  and  C_6
REMARK    6  A    between atoms: C_7  and  C_8
REMARK    7  A    between atoms: C_13  and  C_14
REMARK    8  A    between atoms: C_15  and  O_16
REMARK    9  A    between atoms: C_15  and  C_17
REMARK   10  A    between atoms: C_17  and  C_18
REMARK   11  A    between atoms: C_19  and  O_20
REMARK   12  A    between atoms: C_23  and  C_24
REMARK   13  A    between atoms: C_25  and  C_26
REMARK   14  A    between atoms: C_28  and  O_29
REMARK                            x       y       z     vdW  Elec       q    Type
REMARK                         _______ _______ _______ _____ _____    ______ ____
ROOT
ATOM      1  C   UNL     1       0.775   9.259  20.373  0.00  0.00    +0.000 C 
ENDROOT
BRANCH   1   3
ATOM      2  C   UNL     1       1.994   8.823  18.173  0.00  0.00    +0.000 C 
ATOM      3  C   UNL     1       1.681   8.319  19.566  0.00  0.00    +0.000 C 
ATOM      4  C   UNL     1       2.127   7.146  20.065  0.00  0.00    +0.000 C 
BRANCH   4   5
ATOM      5  C   UNL     1       3.018   6.106  19.432  0.00  0.00    +0.000 C 
BRANCH   5   6
ATOM      6  C   UNL     1       2.721   4.599  19.832  0.00  0.00    +0.000 C 
ATOM      7  C   UNL     1       2.550   4.548  21.372  0.00  0.00    +0.000 C 
ATOM      8  C   UNL     1       1.371   4.187  19.136  0.00  0.00    +0.000 C 
ATOM      9  C   UNL     1       0.752   2.853  19.581  0.00  0.00    +0.000 C 
ATOM     10  C   UNL     1       1.506   4.195  17.603  0.00  0.00    +0.000 C 
ATOM     11  C   UNL     1       2.657   3.333  17.102  0.00  0.00    +0.000 C 
ATOM     12  C   UNL     1       3.954   3.584  17.842  0.00  0.00    +0.000 C 
ATOM     13  O   UNL     1       5.030   3.545  17.241  0.00  0.00    +0.000 OA
ATOM     14  C   UNL     1       3.917   3.707  19.363  0.00  0.00    +0.000 C 
ATOM     15  C   UNL     1       4.029   2.301  19.958  0.00  0.00    +0.000 C 
ENDBRANCH   5   6
ENDBRANCH   4   5
ENDBRANCH   1   3
BRANCH   1  16
ATOM     16  O   UNL     1       1.339   9.329  21.698  0.00  0.00    +0.000 OA
ATOM     17  H   UNL     1       0.598   9.385  22.328  0.00  0.00    +0.000 HD
ENDBRANCH   1  16
BRANCH   1  18
ATOM     18  C   UNL     1       0.609  10.708  19.827  0.00  0.00    +0.000 C 
BRANCH  18  19
ATOM     19  C   UNL     1      -0.808  11.272  19.825  0.00  0.00    +0.000 A 
ATOM     20  C   UNL     1      -1.644  11.175  18.700  0.00  0.00    +0.000 A 
ATOM     21  C   UNL     1      -2.947  11.718  18.687  0.00  0.00    +0.000 A 
ATOM     22 CL   UNL     1      -3.865  11.607  17.215  0.00  0.00    +0.000 Cl
ATOM     23  C   UNL     1      -3.477  12.339  19.832  0.00  0.00    +0.000 A 
ATOM     24  C   UNL     1      -4.843  12.971  19.819  0.00  0.00    +0.000 C 
ATOM     25  C   UNL     1      -2.690  12.327  21.006  0.00  0.00    +0.000 A 
ATOM     26  C   UNL     1      -1.373  11.812  20.991  0.00  0.00    +0.000 A 
BRANCH  20  27
ATOM     27  O   UNL     1      -1.242  10.490  17.585  0.00  0.00    +0.000 OA
ATOM     28  H   UNL     1      -0.726   9.714  17.891  0.00  0.00    +0.000 HD
ENDBRANCH  20  27
BRANCH  25  29
ATOM     29  C   UNL     1      -3.261  12.824  22.284  0.00  0.00    +0.000 C 
ATOM     30  O   UNL     1      -3.475  12.061  23.223  0.00  0.00    +0.000 OA
ENDBRANCH  25  29
BRANCH  26  31
ATOM     31  O   UNL     1      -0.602  11.794  22.130  0.00  0.00    +0.000 OA
ATOM     32  H   UNL     1       0.076  11.086  22.049  0.00  0.00    +0.000 HD
ENDBRANCH  26  31
ENDBRANCH  18  19
ENDBRANCH   1  18
TORSDOF 9
ENDMDL
MODEL 5
REMARK VINA RESULT:      -7.5      1.068      1.300
REMARK  Name = 
REMARK  14 active torsions:
REMARK  status: ('A' for Active; 'I' for Inactive)
REMARK    1  A    between atoms: C_1  and  C_2
REMARK    2  A    between atoms: C_2  and  C_15
REMARK    3  A    between atoms: C_3  and  C_4
REMARK    4  A    between atoms: C_4  and  C_5
REMARK    5  A    between atoms: C_5  and  C_6
REMARK    6  A    between atoms: C_7  and  C_8
REMARK    7  A    between atoms: C_13  and  C_14
REMARK    8  A    between atoms: C_15  and  O_16
REMARK    9  A    between atoms: C_15  and  C_17
REMARK   10  A    between atoms: C_17  and  C_18
REMARK   11  A    between atoms: C_19  and  O_20
REMARK   12  A    between atoms: C_23  and  C_24
REMARK   13  A    between atoms: C_25  and  C_26
REMARK   14  A    between atoms: C_28  and  O_29
REMARK                            x       y       z     vdW  Elec       q    Type
REMARK                         _______ _______ _______ _____ _____    ______ ____
ROOT
ATOM      1  C   UNL     1       0.884   9.033  20.124  0.00  0.00    +0.000 C 
ENDROOT
BRANCH   1   3
ATOM      2  C   UNL     1       2.463   8.609  18.165  0.00  0.00    +0.000 C 
ATOM      3  C   UNL     1       1.869   8.069  19.448  0.00  0.00    +0.000 C 
ATOM      4  C   UNL     1       2.146   6.850  19.958  0.00  0.00    +0.000 C 
BRANCH   4   5
ATOM      5  C   UNL     1       3.078   5.781  19.445  0.00  0.00    +0.000 C 
BRANCH   5   6
ATOM      6  C   UNL     1       2.389   4.456  18.906  0.00  0.00    +0.000 C 
ATOM      7  C   UNL     1       1.461   4.858  17.731  0.00  0.00    +0.000 C 
ATOM      8  C   UNL     1       3.533   3.514  18.379  0.00  0.00    +0.000 C 
ATOM      9  C   UNL     1       3.088   2.280  17.578  0.00  0.00    +0.000 C 
ATOM     10  C   UNL     1       4.462   3.066  19.522  0.00  0.00    +0.000 C 
ATOM     11  C   UNL     1       3.713   2.414  20.676  0.00  0.00    +0.000 C 
ATOM     12  C   UNL     1       2.508   3.211  21.130  0.00  0.00    +0.000 C 
ATOM     13  O   UNL     1       2.208   3.258  22.325  0.00  0.00    +0.000 OA
ATOM     14  C   UNL     1       1.579   3.799  20.071  0.00  0.00    +0.000 C 
ATOM     15  C   UNL     1       0.543   2.734  19.701  0.00  0.00    +0.000 C 
ENDBRANCH   5   6
ENDBRANCH   4   5
ENDBRANCH   1   3
BRANCH   1  16
ATOM     16  O   UNL     1       1.355   9.215  21.475  0.00  0.00    +0.000 OA
ATOM     17  H   UNL     1       1.153   8.398  21.966  0.00  0.00    +0.000 HD
ENDBRANCH   1  16
BRANCH   1  18
ATOM     18  C   UNL     1       0.713  10.434  19.465  0.00  0.00    +0.000 C 
BRANCH  18  19
ATOM     19  C   UNL     1      -0.688  10.787  18.979  0.00  0.00    +0.000 A 
ATOM     20  C   UNL     1      -1.223  10.244  17.799  0.00  0.00    +0.000 A 
ATOM     21  C   UNL     1      -2.510  10.588  17.333  0.00  0.00    +0.000 A 
ATOM     22 CL   UNL     1      -3.041   9.914  15.822  0.00  0.00    +0.000 Cl
ATOM     23  C   UNL     1      -3.330  11.461  18.070  0.00  0.00    +0.000 A 
ATOM     24  C   UNL     1      -4.684  11.881  17.562  0.00  0.00    +0.000 C 
ATOM     25  C   UNL     1      -2.850  11.910  19.321  0.00  0.00    +0.000 A 
ATOM     26  C   UNL     1      -1.543  11.586  19.754  0.00  0.00    +0.000 A 
BRANCH  20  27
ATOM     27  O   UNL     1      -0.531   9.304  17.083  0.00  0.00    +0.000 OA
ATOM     28  H   UNL     1       0.004   9.782  16.416  0.00  0.00    +0.000 HD
ENDBRANCH  20  27
BRANCH  25  29
ATOM     29  C   UNL     1      -3.734  12.702  20.214  0.00  0.00    +0.000 C 
ATOM     30  O   UNL     1      -4.107  12.257  21.296  0.00  0.00    +0.000 OA
ENDBRANCH  25  29
BRANCH  26  31
ATOM     31  O   UNL     1      -1.068  12.018  20.972  0.00  0.00    +0.000 OA
ATOM     32  H   UNL     1      -1.169  12.995  21.027  0.00  0.00    +0.000 HD
ENDBRANCH  26  31
ENDBRANCH  18  19
ENDBRANCH   1  18
TORSDOF 9
ENDMDL
MODEL 6
REMARK VINA RESULT:      -7.5      1.690      2.317
REMARK  Name = 
REMARK  14 active torsions:
REMARK  status: ('A' for Active; 'I' for Inactive)
REMARK    1  A    between atoms: C_1  and  C_2
REMARK    2  A    between atoms: C_2  and  C_15
REMARK    3  A    between atoms: C_3  and  C_4
REMARK    4  A    between atoms: C_4  and  C_5
REMARK    5  A    between atoms: C_5  and  C_6
REMARK    6  A    between atoms: C_7  and  C_8
REMARK    7  A    between atoms: C_13  and  C_14
REMARK    8  A    between atoms: C_15  and  O_16
REMARK    9  A    between atoms: C_15  and  C_17
REMARK   10  A    between atoms: C_17  and  C_18
REMARK   11  A    between atoms: C_19  and  O_20
REMARK   12  A    between atoms: C_23  and  C_24
REMARK   13  A    between atoms: C_25  and  C_26
REMARK   14  A    between atoms: C_28  and  O_29
REMARK                            x       y       z     vdW  Elec       q    Type
REMARK                         _______ _______ _______ _____ _____    ______ ____
ROOT
ATOM      1  C   UNL     1       0.571   9.580  19.952  0.00  0.00    +0.000 C 
ENDROOT
BRANCH   1   3
ATOM      2  C   UNL     1       2.080   9.067  17.958  0.00  0.00    +0.000 C 
ATOM      3  C   UNL     1       1.581   8.615  19.314  0.00  0.00    +0.000 C 
ATOM      4  C   UNL     1       1.956   7.466  19.914  0.00  0.00    +0.000 C 
BRANCH   4   5
ATOM      5  C   UNL     1       2.926   6.408  19.451  0.00  0.00    +0.000 C 
BRANCH   5   6
ATOM      6  C   UNL     1       2.460   4.903  19.644  0.00  0.00    +0.000 C 
ATOM      7  C   UNL     1       1.342   4.894  20.719  0.00  0.00    +0.000 C 
ATOM      8  C   UNL     1       1.874   4.414  18.268  0.00  0.00    +0.000 C 
ATOM      9  C   UNL     1       1.129   3.070  18.281  0.00  0.00    +0.000 C 
ATOM     10  C   UNL     1       2.960   4.379  17.178  0.00  0.00    +0.000 C 
ATOM     11  C   UNL     1       4.174   3.551  17.573  0.00  0.00    +0.000 C 
ATOM     12  C   UNL     1       4.693   3.878  18.958  0.00  0.00    +0.000 C 
ATOM     13  O   UNL     1       5.905   3.865  19.186  0.00  0.00    +0.000 OA
ATOM     14  C   UNL     1       3.689   4.048  20.094  0.00  0.00    +0.000 C 
ATOM     15  C   UNL     1       3.410   2.667  20.694  0.00  0.00    +0.000 C 
ENDBRANCH   5   6
ENDBRANCH   4   5
ENDBRANCH   1   3
BRANCH   1  16
ATOM     16  O   UNL     1       1.097   9.917  21.252  0.00  0.00    +0.000 OA
ATOM     17  H   UNL     1       1.784   9.259  21.468  0.00  0.00    +0.000 HD
ENDBRANCH   1  16
BRANCH   1  18
ATOM     18  C   UNL     1       0.279  10.899  19.177  0.00  0.00    +0.000 C 
BRANCH  18  19
ATOM     19  C   UNL     1      -1.175  11.150  18.793  0.00  0.00    +0.000 A 
ATOM     20  C   UNL     1      -1.749  10.579  17.646  0.00  0.00    +0.000 A 
ATOM     21  C   UNL     1      -3.088  10.830  17.275  0.00  0.00    +0.000 A 
ATOM     22 CL   UNL     1      -3.671  10.131  15.794  0.00  0.00    +0.000 Cl
ATOM     23  C   UNL     1      -3.917  11.633  18.079  0.00  0.00    +0.000 A 
ATOM     24  C   UNL     1      -5.330  11.955  17.671  0.00  0.00    +0.000 C 
ATOM     25  C   UNL     1      -3.384  12.106  19.299  0.00  0.00    +0.000 A 
ATOM     26  C   UNL     1      -2.030  11.877  19.637  0.00  0.00    +0.000 A 
BRANCH  20  27
ATOM     27  O   UNL     1      -1.041   9.699  16.871  0.00  0.00    +0.000 OA
ATOM     28  H   UNL     1      -0.090   9.895  17.005  0.00  0.00    +0.000 HD
ENDBRANCH  20  27
BRANCH  25  29
ATOM     29  C   UNL     1      -4.261  12.822  20.261  0.00  0.00    +0.000 C 
ATOM     30  O   UNL     1      -3.969  13.940  20.676  0.00  0.00    +0.000 OA
ENDBRANCH  25  29
BRANCH  26  31
ATOM     31  O   UNL     1      -1.505  12.332  20.825  0.00  0.00    +0.000 OA
ATOM     32  H   UNL     1      -1.579  13.313  20.852  0.00  0.00    +0.000 HD
ENDBRANCH  26  31
ENDBRANCH  18  19
ENDBRANCH   1  18
TORSDOF 9
ENDMDL
MODEL 7
REMARK VINA RESULT:      -7.5      1.738      3.288
REMARK  Name = 
REMARK  14 active torsions:
REMARK  status: ('A' for Active; 'I' for Inactive)
REMARK    1  A    between atoms: C_1  and  C_2
REMARK    2  A    between atoms: C_2  and  C_15
REMARK    3  A    between atoms: C_3  and  C_4
REMARK    4  A    between atoms: C_4  and  C_5
REMARK    5  A    between atoms: C_5  and  C_6
REMARK    6  A    between atoms: C_7  and  C_8
REMARK    7  A    between atoms: C_13  and  C_14
REMARK    8  A    between atoms: C_15  and  O_16
REMARK    9  A    between atoms: C_15  and  C_17
REMARK   10  A    between atoms: C_17  and  C_18
REMARK   11  A    between atoms: C_19  and  O_20
REMARK   12  A    between atoms: C_23  and  C_24
REMARK   13  A    between atoms: C_25  and  C_26
REMARK   14  A    between atoms: C_28  and  O_29
REMARK                            x       y       z     vdW  Elec       q    Type
REMARK                         _______ _______ _______ _____ _____    ______ ____
ROOT
ATOM      1  C   UNL     1       1.207   8.435  20.237  0.00  0.00    +0.000 C 
ENDROOT
BRANCH   1   3
ATOM      2  C   UNL     1       2.724   7.817  18.280  0.00  0.00    +0.000 C 
ATOM      3  C   UNL     1       2.201   7.427  19.646  0.00  0.00    +0.000 C 
ATOM      4  C   UNL     1       2.545   6.292  20.293  0.00  0.00    +0.000 C 
BRANCH   4   5
ATOM      5  C   UNL     1       3.496   5.198  19.879  0.00  0.00    +0.000 C 
BRANCH   5   6
ATOM      6  C   UNL     1       2.868   3.746  19.737  0.00  0.00    +0.000 C 
ATOM      7  C   UNL     1       2.683   3.175  21.167  0.00  0.00    +0.000 C 
ATOM      8  C   UNL     1       1.463   3.909  19.047  0.00  0.00    +0.000 C 
ATOM      9  C   UNL     1       0.560   2.665  19.034  0.00  0.00    +0.000 C 
ATOM     10  C   UNL     1       1.604   4.445  17.611  0.00  0.00    +0.000 C 
ATOM     11  C   UNL     1       2.536   3.605  16.749  0.00  0.00    +0.000 C 
ATOM     12  C   UNL     1       3.853   3.291  17.428  0.00  0.00    +0.000 C 
ATOM     13  O   UNL     1       4.896   3.249  16.771  0.00  0.00    +0.000 OA
ATOM     14  C   UNL     1       3.837   2.857  18.891  0.00  0.00    +0.000 C 
ATOM     15  C   UNL     1       3.630   1.341  18.936  0.00  0.00    +0.000 C 
ENDBRANCH   5   6
ENDBRANCH   4   5
ENDBRANCH   1   3
BRANCH   1  16
ATOM     16  O   UNL     1       1.574   8.603  21.622  0.00  0.00    +0.000 OA
ATOM     17  H   UNL     1       2.148   7.854  21.864  0.00  0.00    +0.000 HD
ENDBRANCH   1  16
BRANCH   1  18
ATOM     18  C   UNL     1       1.153   9.839  19.565  0.00  0.00    +0.000 C 
BRANCH  18  19
ATOM     19  C   UNL     1      -0.163  10.600  19.693  0.00  0.00    +0.000 A 
ATOM     20  C   UNL     1      -0.465  11.376  20.824  0.00  0.00    +0.000 A 
ATOM     21  C   UNL     1      -1.691  12.061  20.956  0.00  0.00    +0.000 A 
ATOM     22 CL   UNL     1      -1.990  12.929  22.432  0.00  0.00    +0.000 Cl
ATOM     23  C   UNL     1      -2.646  12.029  19.923  0.00  0.00    +0.000 A 
ATOM     24  C   UNL     1      -3.981  12.709  20.069  0.00  0.00    +0.000 C 
ATOM     25  C   UNL     1      -2.297  11.357  18.731  0.00  0.00    +0.000 A 
ATOM     26  C   UNL     1      -1.079  10.644  18.630  0.00  0.00    +0.000 A 
BRANCH  20  27
ATOM     27  O   UNL     1       0.456  11.546  21.823  0.00  0.00    +0.000 OA
ATOM     28  H   UNL     1       1.221  10.970  21.615  0.00  0.00    +0.000 HD
ENDBRANCH  20  27
BRANCH  25  29
ATOM     29  C   UNL     1      -3.196  11.426  17.551  0.00  0.00    +0.000 C 
ATOM     30  O   UNL     1      -2.746  11.442  16.408  0.00  0.00    +0.000 OA
ENDBRANCH  25  29
BRANCH  26  31
ATOM     31  O   UNL     1      -0.730   9.989  17.471  0.00  0.00    +0.000 OA
ATOM     32  H   UNL     1      -0.356  10.639  16.834  0.00  0.00    +0.000 HD
ENDBRANCH  26  31
ENDBRANCH  18  19
ENDBRANCH   1  18
TORSDOF 9
ENDMDL
MODEL 8
REMARK VINA RESULT:      -7.5      1.761      3.350
REMARK  Name = 
REMARK  14 active torsions:
REMARK  status: ('A' for Active; 'I' for Inactive)
REMARK    1  A    between atoms: C_1  and  C_2
REMARK    2  A    between atoms: C_2  and  C_15
REMARK    3  A    between atoms: C_3  and  C_4
REMARK    4  A    between atoms: C_4  and  C_5
REMARK    5  A    between atoms: C_5  and  C_6
REMARK    6  A    between atoms: C_7  and  C_8
REMARK    7  A    between atoms: C_13  and  C_14
REMARK    8  A    between atoms: C_15  and  O_16
REMARK    9  A    between atoms: C_15  and  C_17
REMARK   10  A    between atoms: C_17  and  C_18
REMARK   11  A    between atoms: C_19  and  O_20
REMARK   12  A    between atoms: C_23  and  C_24
REMARK   13  A    between atoms: C_25  and  C_26
REMARK   14  A    between atoms: C_28  and  O_29
REMARK                            x       y       z     vdW  Elec       q    Type
REMARK                         _______ _______ _______ _____ _____    ______ ____
ROOT
ATOM      1  C   UNL     1       0.685   9.365  20.167  0.00  0.00    +0.000 C 
ENDROOT
BRANCH   1   3
ATOM      2  C   UNL     1       2.122   8.975  18.095  0.00  0.00    +0.000 C 
ATOM      3  C   UNL     1       1.659   8.435  19.431  0.00  0.00    +0.000 C 
ATOM      4  C   UNL     1       2.036   7.241  19.937  0.00  0.00    +0.000 C 
BRANCH   4   5
ATOM      5  C   UNL     1       2.975   6.207  19.370  0.00  0.00    +0.000 C 
BRANCH   5   6
ATOM      6  C   UNL     1       2.708   4.706  19.813  0.00  0.00    +0.000 C 
ATOM      7  C   UNL     1       2.503   4.702  21.350  0.00  0.00    +0.000 C 
ATOM      8  C   UNL     1       1.385   4.236  19.102  0.00  0.00    +0.000 C 
ATOM      9  C   UNL     1       0.791   2.901  19.577  0.00  0.00    +0.000 C 
ATOM     10  C   UNL     1       1.556   4.196  17.572  0.00  0.00    +0.000 C 
ATOM     11  C   UNL     1       2.740   3.350  17.127  0.00  0.00    +0.000 C 
ATOM     12  C   UNL     1       4.013   3.659  17.887  0.00  0.00    +0.000 C 
ATOM     13  O   UNL     1       5.103   3.628  17.312  0.00  0.00    +0.000 OA
ATOM     14  C   UNL     1       3.937   3.832  19.401  0.00  0.00    +0.000 C 
ATOM     15  C   UNL     1       4.071   2.450  20.046  0.00  0.00    +0.000 C 
ENDBRANCH   5   6
ENDBRANCH   4   5
ENDBRANCH   1   3
BRANCH   1  16
ATOM     16  O   UNL     1       1.210   9.530  21.500  0.00  0.00    +0.000 OA
ATOM     17  H   UNL     1       0.454   9.690  22.094  0.00  0.00    +0.000 HD
ENDBRANCH   1  16
BRANCH   1  18
ATOM     18  C   UNL     1       0.459  10.774  19.545  0.00  0.00    +0.000 C 
BRANCH  18  19
ATOM     19  C   UNL     1      -0.990  11.179  19.296  0.00  0.00    +0.000 A 
ATOM     20  C   UNL     1      -1.705  11.976  20.205  0.00  0.00    +0.000 A 
ATOM     21  C   UNL     1      -3.054  12.332  19.989  0.00  0.00    +0.000 A 
ATOM     22 CL   UNL     1      -3.863  13.259  21.217  0.00  0.00    +0.000 Cl
ATOM     23  C   UNL     1      -3.721  11.935  18.816  0.00  0.00    +0.000 A 
ATOM     24  C   UNL     1      -5.175  12.260  18.594  0.00  0.00    +0.000 C 
ATOM     25  C   UNL     1      -2.972  11.242  17.839  0.00  0.00    +0.000 A 
ATOM     26  C   UNL     1      -1.632  10.862  18.088  0.00  0.00    +0.000 A 
BRANCH  20  27
ATOM     27  O   UNL     1      -1.094  12.493  21.315  0.00  0.00    +0.000 OA
ATOM     28  H   UNL     1      -0.173  12.155  21.325  0.00  0.00    +0.000 HD
ENDBRANCH  20  27
BRANCH  25  29
ATOM     29  C   UNL     1      -3.578  10.940  16.518  0.00  0.00    +0.000 C 
ATOM     30  O   UNL     1      -3.404   9.853  15.973  0.00  0.00    +0.000 OA
ENDBRANCH  25  29
BRANCH  26  31
ATOM     31  O   UNL     1      -0.895  10.189  17.141  0.00  0.00    +0.000 OA
ATOM     32  H   UNL     1      -0.549  10.835  16.485  0.00  0.00    +0.000 HD
ENDBRANCH  26  31
ENDBRANCH  18  19
ENDBRANCH   1  18
TORSDOF 9
ENDMDL
MODEL 9
REMARK VINA RESULT:      -7.5      2.034      2.984
REMARK  Name = 
REMARK  14 active torsions:
REMARK  status: ('A' for Active; 'I' for Inactive)
REMARK    1  A    between atoms: C_1  and  C_2
REMARK    2  A    between atoms: C_2  and  C_15
REMARK    3  A    between atoms: C_3  and  C_4
REMARK    4  A    between atoms: C_4  and  C_5
REMARK    5  A    between atoms: C_5  and  C_6
REMARK    6  A    between atoms: C_7  and  C_8
REMARK    7  A    between atoms: C_13  and  C_14
REMARK    8  A    between atoms: C_15  and  O_16
REMARK    9  A    between atoms: C_15  and  C_17
REMARK   10  A    between atoms: C_17  and  C_18
REMARK   11  A    between atoms: C_19  and  O_20
REMARK   12  A    between atoms: C_23  and  C_24
REMARK   13  A    between atoms: C_25  and  C_26
REMARK   14  A    between atoms: C_28  and  O_29
REMARK                            x       y       z     vdW  Elec       q    Type
REMARK                         _______ _______ _______ _____ _____    ______ ____
ROOT
ATOM      1  C   UNL     1       2.021   9.127  18.281  0.00  0.00    +0.000 C 
ENDROOT
BRANCH   1   3
ATOM      2  C   UNL     1       3.881   7.646  17.355  0.00  0.00    +0.000 C 
ATOM      3  C   UNL     1       2.516   7.700  18.005  0.00  0.00    +0.000 C 
ATOM      4  C   UNL     1       1.774   6.612  18.303  0.00  0.00    +0.000 C 
BRANCH   4   5
ATOM      5  C   UNL     1       2.091   5.149  18.114  0.00  0.00    +0.000 C 
BRANCH   5   6
ATOM      6  C   UNL     1       2.436   4.335  19.433  0.00  0.00    +0.000 C 
ATOM      7  C   UNL     1       2.861   5.360  20.516  0.00  0.00    +0.000 C 
ATOM      8  C   UNL     1       1.122   3.599  19.886  0.00  0.00    +0.000 C 
ATOM      9  C   UNL     1       1.148   2.952  21.280  0.00  0.00    +0.000 C 
ATOM     10  C   UNL     1       0.682   2.549  18.850  0.00  0.00    +0.000 C 
ATOM     11  C   UNL     1       1.777   1.545  18.518  0.00  0.00    +0.000 C 
ATOM     12  C   UNL     1       3.110   2.197  18.216  0.00  0.00    +0.000 C 
ATOM     13  O   UNL     1       3.850   1.724  17.350  0.00  0.00    +0.000 OA
ATOM     14  C   UNL     1       3.592   3.330  19.117  0.00  0.00    +0.000 C 
ATOM     15  C   UNL     1       4.337   2.712  20.303  0.00  0.00    +0.000 C 
ENDBRANCH   5   6
ENDBRANCH   4   5
ENDBRANCH   1   3
BRANCH   1  16
ATOM     16  O   UNL     1       2.445   9.927  17.159  0.00  0.00    +0.000 OA
ATOM     17  H   UNL     1       1.652  10.135  16.632  0.00  0.00    +0.000 HD
ENDBRANCH   1  16
BRANCH   1  18
ATOM     18  C   UNL     1       0.485   9.310  18.468  0.00  0.00    +0.000 C 
BRANCH  18  19
ATOM     19  C   UNL     1       0.048  10.261  19.577  0.00  0.00    +0.000 A 
ATOM     20  C   UNL     1      -0.366  11.576  19.307  0.00  0.00    +0.000 A 
ATOM     21  C   UNL     1      -0.748  12.466  20.334  0.00  0.00    +0.000 A 
ATOM     22 CL   UNL     1      -1.169  14.093  19.892  0.00  0.00    +0.000 Cl
ATOM     23  C   UNL     1      -0.773  12.045  21.676  0.00  0.00    +0.000 A 
ATOM     24  C   UNL     1      -1.126  12.995  22.788  0.00  0.00    +0.000 C 
ATOM     25  C   UNL     1      -0.482  10.688  21.941  0.00  0.00    +0.000 A 
ATOM     26  C   UNL     1      -0.065   9.820  20.905  0.00  0.00    +0.000 A 
BRANCH  20  27
ATOM     27  O   UNL     1      -0.474  12.026  18.019  0.00  0.00    +0.000 OA
ATOM     28  H   UNL     1       0.429  12.026  17.634  0.00  0.00    +0.000 HD
ENDBRANCH  20  27
BRANCH  25  29
ATOM     29  C   UNL     1      -0.649  10.149  23.315  0.00  0.00    +0.000 C 
ATOM     30  O   UNL     1       0.298   9.660  23.925  0.00  0.00    +0.000 OA
ENDBRANCH  25  29
BRANCH  26  31
ATOM     31  O   UNL     1       0.219   8.497  21.155  0.00  0.00    +0.000 OA
ATOM     32  H   UNL     1      -0.028   7.961  20.367  0.00  0.00    +0.000 HD
ENDBRANCH  26  31
ENDBRANCH  18  19
ENDBRANCH   1  18
TORSDOF 9
ENDMDL
