MODEL 1
REMARK VINA RESULT:      -8.3      0.000      0.000
REMARK  Name = 
REMARK  4 active torsions:
REMARK  status: ('A' for Active; 'I' for Inactive)
REMARK    1  A    between atoms: C_1  and  S_2
REMARK    2  A    between atoms: S_2  and  C_5
REMARK    3  A    between atoms: C_7  and  C_8
REMARK    4  A    between atoms: C_16  and  C_17
REMARK                            x       y       z     vdW  Elec       q    Type
REMARK                         _______ _______ _______ _____ _____    ______ ____
ROOT
ATOM      1  C   UNL     1       5.404   4.985  18.007  0.00  0.00    +0.000 A 
ATOM      2  N   UNL     1       4.700   6.112  18.215  0.00  0.00    +0.000 NA
ATOM      3  C   UNL     1       3.383   5.938  18.458  0.00  0.00    +0.000 A 
ATOM      4  C   UNL     1       2.804   4.674  18.462  0.00  0.00    +0.000 A 
ATOM      5  C   UNL     1       3.621   3.574  18.238  0.00  0.00    +0.000 A 
ATOM      6  N   UNL     1       4.947   3.719  18.008  0.00  0.00    +0.000 NA
ENDROOT
BRANCH   3   7
ATOM      7  C   UNL     1       2.603   7.166  18.732  0.00  0.00    +0.000 A 
ATOM      8  C   UNL     1       2.058   7.410  20.008  0.00  0.00    +0.000 A 
ATOM      9  C   UNL     1       1.316   8.567  20.274  0.00  0.00    +0.000 A 
ATOM     10  C   UNL     1       1.110   9.496  19.264  0.00  0.00    +0.000 A 
ATOM     11  F   UNL     1       0.398  10.602  19.516  0.00  0.00    +0.000 F 
ATOM     12  C   UNL     1       1.628   9.290  17.995  0.00  0.00    +0.000 A 
ATOM     13  C   UNL     1       2.366   8.132  17.731  0.00  0.00    +0.000 A 
ENDBRANCH   3   7
BRANCH   1  15
ATOM     14  C   UNL     1       7.397   6.908  17.487  0.00  0.00    +0.000 C 
ATOM     15  S   UNL     1       7.157   5.168  17.709  0.00  0.00    +0.000 S 
ATOM     16  O   UNL     1       7.465   4.536  16.437  0.00  0.00    +0.000 OA
ATOM     17  O   UNL     1       7.864   4.797  18.924  0.00  0.00    +0.000 OA
ENDBRANCH   1  15
BRANCH   5  18
ATOM     18  C   UNL     1       3.024   2.173  18.268  0.00  0.00    +0.000 C 
ATOM     19  F   UNL     1       3.975   1.192  18.263  0.00  0.00    +0.000 F 
ATOM     20  F   UNL     1       2.267   1.939  19.374  0.00  0.00    +0.000 F 
ATOM     21  F   UNL     1       2.231   1.912  17.192  0.00  0.00    +0.000 F 
ENDBRANCH   5  18
TORSDOF 3
ENDMDL
MODEL 2
REMARK VINA RESULT:      -8.2      0.588      1.051
REMARK  Name = 
REMARK  4 active torsions:
REMARK  status: ('A' for Active; 'I' for Inactive)
REMARK    1  A    between atoms: C_1  and  S_2
REMARK    2  A    between atoms: S_2  and  C_5
REMARK    3  A    between atoms: C_7  and  C_8
REMARK    4  A    between atoms: C_16  and  C_17
REMARK                            x       y       z     vdW  Elec       q    Type
REMARK                         _______ _______ _______ _____ _____    ______ ____
ROOT
ATOM      1  C   UNL     1       5.336   5.093  18.679  0.00  0.00    +0.000 A 
ATOM      2  N   UNL     1       4.611   6.222  18.764  0.00  0.00    +0.000 NA
ATOM      3  C   UNL     1       3.270   6.054  18.757  0.00  0.00    +0.000 A 
ATOM      4  C   UNL     1       2.696   4.794  18.641  0.00  0.00    +0.000 A 
ATOM      5  C   UNL     1       3.536   3.691  18.561  0.00  0.00    +0.000 A 
ATOM      6  N   UNL     1       4.881   3.830  18.583  0.00  0.00    +0.000 NA
ENDROOT
BRANCH   3   7
ATOM      7  C   UNL     1       2.458   7.284  18.895  0.00  0.00    +0.000 A 
ATOM      8  C   UNL     1       1.915   7.660  20.139  0.00  0.00    +0.000 A 
ATOM      9  C   UNL     1       1.143   8.820  20.276  0.00  0.00    +0.000 A 
ATOM     10  C   UNL     1       0.904   9.619  19.167  0.00  0.00    +0.000 A 
ATOM     11  F   UNL     1       0.163  10.727  19.296  0.00  0.00    +0.000 F 
ATOM     12  C   UNL     1       1.419   9.280  17.926  0.00  0.00    +0.000 A 
ATOM     13  C   UNL     1       2.187   8.120  17.791  0.00  0.00    +0.000 A 
ENDBRANCH   3   7
BRANCH   1  15
ATOM     14  C   UNL     1       7.426   6.844  17.968  0.00  0.00    +0.000 C 
ATOM     15  S   UNL     1       7.115   5.268  18.713  0.00  0.00    +0.000 S 
ATOM     16  O   UNL     1       7.682   4.265  17.828  0.00  0.00    +0.000 OA
ATOM     17  O   UNL     1       7.533   5.369  20.102  0.00  0.00    +0.000 OA
ENDBRANCH   1  15
BRANCH   5  18
ATOM     18  C   UNL     1       2.937   2.293  18.466  0.00  0.00    +0.000 C 
ATOM     19  F   UNL     1       1.928   2.087  19.366  0.00  0.00    +0.000 F 
ATOM     20  F   UNL     1       2.395   2.027  17.246  0.00  0.00    +0.000 F 
ATOM     21  F   UNL     1       3.845   1.309  18.711  0.00  0.00    +0.000 F 
ENDBRANCH   5  18
TORSDOF 3
ENDMDL
MODEL 3
REMARK VINA RESULT:      -8.2      0.959      1.344
REMARK  Name = 
REMARK  4 active torsions:
REMARK  status: ('A' for Active; 'I' for Inactive)
REMARK    1  A    between atoms: C_1  and  S_2
REMARK    2  A    between atoms: S_2  and  C_5
REMARK    3  A    between atoms: C_7  and  C_8
REMARK    4  A    between atoms: C_16  and  C_17
REMARK                            x       y       z     vdW  Elec       q    Type
REMARK                         _______ _______ _______ _____ _____    ______ ____
ROOT
ATOM      1  C   UNL     1       5.245   5.119  17.389  0.00  0.00    +0.000 A 
ATOM      2  N   UNL     1       4.562   6.235  17.699  0.00  0.00    +0.000 NA
ATOM      3  C   UNL     1       3.326   6.036  18.208  0.00  0.00    +0.000 A 
ATOM      4  C   UNL     1       2.801   4.760  18.368  0.00  0.00    +0.000 A 
ATOM      5  C   UNL     1       3.592   3.673  18.018  0.00  0.00    +0.000 A 
ATOM      6  N   UNL     1       4.839   3.843  17.521  0.00  0.00    +0.000 NA
ENDROOT
BRANCH   3   7
ATOM      7  C   UNL     1       2.578   7.253  18.597  0.00  0.00    +0.000 A 
ATOM      8  C   UNL     1       2.077   7.412  19.903  0.00  0.00    +0.000 A 
ATOM      9  C   UNL     1       1.365   8.558  20.277  0.00  0.00    +0.000 A 
ATOM     10  C   UNL     1       1.145   9.562  19.344  0.00  0.00    +0.000 A 
ATOM     11  F   UNL     1       0.463  10.659  19.698  0.00  0.00    +0.000 F 
ATOM     12  C   UNL     1       1.620   9.441  18.048  0.00  0.00    +0.000 A 
ATOM     13  C   UNL     1       2.328   8.294  17.676  0.00  0.00    +0.000 A 
ENDBRANCH   3   7
BRANCH   1  15
ATOM     14  C   UNL     1       6.822   4.682  15.094  0.00  0.00    +0.000 C 
ATOM     15  S   UNL     1       6.896   5.336  16.738  0.00  0.00    +0.000 S 
ATOM     16  O   UNL     1       7.794   4.476  17.491  0.00  0.00    +0.000 OA
ATOM     17  O   UNL     1       7.149   6.763  16.613  0.00  0.00    +0.000 OA
ENDBRANCH   1  15
BRANCH   5  18
ATOM     18  C   UNL     1       3.058   2.259  18.211  0.00  0.00    +0.000 C 
ATOM     19  F   UNL     1       2.288   1.837  17.163  0.00  0.00    +0.000 F 
ATOM     20  F   UNL     1       4.043   1.329  18.337  0.00  0.00    +0.000 F 
ATOM     21  F   UNL     1       2.267   2.138  19.312  0.00  0.00    +0.000 F 
ENDBRANCH   5  18
TORSDOF 3
ENDMDL
MODEL 4
REMARK VINA RESULT:      -8.2      0.985      1.739
REMARK  Name = 
REMARK  4 active torsions:
REMARK  status: ('A' for Active; 'I' for Inactive)
REMARK    1  A    between atoms: C_1  and  S_2
REMARK    2  A    between atoms: S_2  and  C_5
REMARK    3  A    between atoms: C_7  and  C_8
REMARK    4  A    between atoms: C_16  and  C_17
REMARK                            x       y       z     vdW  Elec       q    Type
REMARK                         _______ _______ _______ _____ _____    ______ ____
ROOT
ATOM      1  C   UNL     1       5.192   5.111  17.283  0.00  0.00    +0.000 A 
ATOM      2  N   UNL     1       4.514   6.224  17.612  0.00  0.00    +0.000 NA
ATOM      3  C   UNL     1       3.304   6.022  18.178  0.00  0.00    +0.000 A 
ATOM      4  C   UNL     1       2.797   4.742  18.374  0.00  0.00    +0.000 A 
ATOM      5  C   UNL     1       3.581   3.658  18.000  0.00  0.00    +0.000 A 
ATOM      6  N   UNL     1       4.803   3.833  17.447  0.00  0.00    +0.000 NA
ENDROOT
BRANCH   3   7
ATOM      7  C   UNL     1       2.564   7.237  18.586  0.00  0.00    +0.000 A 
ATOM      8  C   UNL     1       2.347   8.294  17.681  0.00  0.00    +0.000 A 
ATOM      9  C   UNL     1       1.652   9.448  18.062  0.00  0.00    +0.000 A 
ATOM     10  C   UNL     1       1.163   9.558  19.356  0.00  0.00    +0.000 A 
ATOM     11  F   UNL     1       0.500  10.662  19.723  0.00  0.00    +0.000 F 
ATOM     12  C   UNL     1       1.359   8.540  20.276  0.00  0.00    +0.000 A 
ATOM     13  C   UNL     1       2.057   7.390  19.895  0.00  0.00    +0.000 A 
ENDBRANCH   3   7
BRANCH   1  15
ATOM     14  C   UNL     1       6.654   4.711  14.907  0.00  0.00    +0.000 C 
ATOM     15  S   UNL     1       6.811   5.334  16.557  0.00  0.00    +0.000 S 
ATOM     16  O   UNL     1       7.740   4.456  17.250  0.00  0.00    +0.000 OA
ATOM     17  O   UNL     1       7.065   6.761  16.447  0.00  0.00    +0.000 OA
ENDBRANCH   1  15
BRANCH   5  18
ATOM     18  C   UNL     1       3.068   2.243  18.231  0.00  0.00    +0.000 C 
ATOM     19  F   UNL     1       2.274   1.795  17.212  0.00  0.00    +0.000 F 
ATOM     20  F   UNL     1       4.066   1.325  18.344  0.00  0.00    +0.000 F 
ATOM     21  F   UNL     1       2.308   2.131  19.356  0.00  0.00    +0.000 F 
ENDBRANCH   5  18
TORSDOF 3
ENDMDL
MODEL 5
REMARK VINA RESULT:      -8.2      1.072      1.618
REMARK  Name = 
REMARK  4 active torsions:
REMARK  status: ('A' for Active; 'I' for Inactive)
REMARK    1  A    between atoms: C_1  and  S_2
REMARK    2  A    between atoms: S_2  and  C_5
REMARK    3  A    between atoms: C_7  and  C_8
REMARK    4  A    between atoms: C_16  and  C_17
REMARK                            x       y       z     vdW  Elec       q    Type
REMARK                         _______ _______ _______ _____ _____    ______ ____
ROOT
ATOM      1  C   UNL     1       5.437   5.135  17.501  0.00  0.00    +0.000 A 
ATOM      2  N   UNL     1       4.677   6.224  17.717  0.00  0.00    +0.000 NA
ATOM      3  C   UNL     1       3.531   6.006  18.398  0.00  0.00    +0.000 A 
ATOM      4  C   UNL     1       3.163   4.733  18.817  0.00  0.00    +0.000 A 
ATOM      5  C   UNL     1       4.022   3.676  18.544  0.00  0.00    +0.000 A 
ATOM      6  N   UNL     1       5.183   3.869  17.878  0.00  0.00    +0.000 NA
ENDROOT
BRANCH   3   7
ATOM      7  C   UNL     1       2.705   7.201  18.683  0.00  0.00    +0.000 A 
ATOM      8  C   UNL     1       2.503   8.195  17.705  0.00  0.00    +0.000 A 
ATOM      9  C   UNL     1       1.727   9.329  17.968  0.00  0.00    +0.000 A 
ATOM     10  C   UNL     1       1.142   9.485  19.217  0.00  0.00    +0.000 A 
ATOM     11  F   UNL     1       0.401  10.571  19.472  0.00  0.00    +0.000 F 
ATOM     12  C   UNL     1       1.321   8.531  20.206  0.00  0.00    +0.000 A 
ATOM     13  C   UNL     1       2.098   7.400  19.942  0.00  0.00    +0.000 A 
ENDBRANCH   3   7
BRANCH   1  15
ATOM     14  C   UNL     1       6.625   4.916  14.955  0.00  0.00    +0.000 C 
ATOM     15  S   UNL     1       6.977   5.383  16.626  0.00  0.00    +0.000 S 
ATOM     16  O   UNL     1       7.943   4.425  17.136  0.00  0.00    +0.000 OA
ATOM     17  O   UNL     1       7.265   6.809  16.614  0.00  0.00    +0.000 OA
ENDBRANCH   1  15
BRANCH   5  18
ATOM     18  C   UNL     1       3.663   2.273  19.018  0.00  0.00    +0.000 C 
ATOM     19  F   UNL     1       4.524   1.800  19.969  0.00  0.00    +0.000 F 
ATOM     20  F   UNL     1       2.426   2.199  19.579  0.00  0.00    +0.000 F 
ATOM     21  F   UNL     1       3.691   1.352  18.016  0.00  0.00    +0.000 F 
ENDBRANCH   5  18
TORSDOF 3
ENDMDL
MODEL 6
REMARK VINA RESULT:      -8.2      0.669      1.570
REMARK  Name = 
REMARK  4 active torsions:
REMARK  status: ('A' for Active; 'I' for Inactive)
REMARK    1  A    between atoms: C_1  and  S_2
REMARK    2  A    between atoms: S_2  and  C_5
REMARK    3  A    between atoms: C_7  and  C_8
REMARK    4  A    between atoms: C_16  and  C_17
REMARK                            x       y       z     vdW  Elec       q    Type
REMARK                         _______ _______ _______ _____ _____    ______ ____
ROOT
ATOM      1  C   UNL     1       5.205   5.294  17.352  0.00  0.00    +0.000 A 
ATOM      2  N   UNL     1       4.493   6.387  17.679  0.00  0.00    +0.000 NA
ATOM      3  C   UNL     1       3.278   6.148  18.220  0.00  0.00    +0.000 A 
ATOM      4  C   UNL     1       2.800   4.855  18.393  0.00  0.00    +0.000 A 
ATOM      5  C   UNL     1       3.617   3.795  18.023  0.00  0.00    +0.000 A 
ATOM      6  N   UNL     1       4.844   4.005  17.495  0.00  0.00    +0.000 NA
ENDROOT
BRANCH   3   7
ATOM      7  C   UNL     1       2.501   7.340  18.627  0.00  0.00    +0.000 A 
ATOM      8  C   UNL     1       2.221   8.373  17.710  0.00  0.00    +0.000 A 
ATOM      9  C   UNL     1       1.490   9.505  18.089  0.00  0.00    +0.000 A 
ATOM     10  C   UNL     1       1.029   9.618  19.393  0.00  0.00    +0.000 A 
ATOM     11  F   UNL     1       0.331  10.702  19.758  0.00  0.00    +0.000 F 
ATOM     12  C   UNL     1       1.287   8.625  20.324  0.00  0.00    +0.000 A 
ATOM     13  C   UNL     1       2.019   7.496  19.945  0.00  0.00    +0.000 A 
ENDBRANCH   3   7
BRANCH   1  15
ATOM     14  C   UNL     1       7.414   7.041  17.441  0.00  0.00    +0.000 C 
ATOM     15  S   UNL     1       6.831   5.564  16.659  0.00  0.00    +0.000 S 
ATOM     16  O   UNL     1       6.673   5.870  15.247  0.00  0.00    +0.000 OA
ATOM     17  O   UNL     1       7.697   4.483  17.102  0.00  0.00    +0.000 OA
ENDBRANCH   1  15
BRANCH   5  18
ATOM     18  C   UNL     1       3.135   2.364  18.230  0.00  0.00    +0.000 C 
ATOM     19  F   UNL     1       1.869   2.159  17.755  0.00  0.00    +0.000 F 
ATOM     20  F   UNL     1       3.913   1.442  17.601  0.00  0.00    +0.000 F 
ATOM     21  F   UNL     1       3.090   2.005  19.543  0.00  0.00    +0.000 F 
ENDBRANCH   5  18
TORSDOF 3
ENDMDL
MODEL 7
REMARK VINA RESULT:      -8.2      1.043      1.179
REMARK  Name = 
REMARK  4 active torsions:
REMARK  status: ('A' for Active; 'I' for Inactive)
REMARK    1  A    between atoms: C_1  and  S_2
REMARK    2  A    between atoms: S_2  and  C_5
REMARK    3  A    between atoms: C_7  and  C_8
REMARK    4  A    between atoms: C_16  and  C_17
REMARK                            x       y       z     vdW  Elec       q    Type
REMARK                         _______ _______ _______ _____ _____    ______ ____
ROOT
ATOM      1  C   UNL     1       5.352   5.168  17.507  0.00  0.00    +0.000 A 
ATOM      2  N   UNL     1       4.608   6.262  17.746  0.00  0.00    +0.000 NA
ATOM      3  C   UNL     1       3.442   6.041  18.392  0.00  0.00    +0.000 A 
ATOM      4  C   UNL     1       3.041   4.760  18.753  0.00  0.00    +0.000 A 
ATOM      5  C   UNL     1       3.887   3.698  18.460  0.00  0.00    +0.000 A 
ATOM      6  N   UNL     1       5.067   3.893  17.829  0.00  0.00    +0.000 NA
ENDROOT
BRANCH   3   7
ATOM      7  C   UNL     1       2.632   7.240  18.702  0.00  0.00    +0.000 A 
ATOM      8  C   UNL     1       2.073   7.428  19.981  0.00  0.00    +0.000 A 
ATOM      9  C   UNL     1       1.302   8.558  20.281  0.00  0.00    +0.000 A 
ATOM     10  C   UNL     1       1.080   9.516  19.301  0.00  0.00    +0.000 A 
ATOM     11  F   UNL     1       0.341  10.596  19.585  0.00  0.00    +0.000 F 
ATOM     12  C   UNL     1       1.611   9.364  18.030  0.00  0.00    +0.000 A 
ATOM     13  C   UNL     1       2.378   8.234  17.732  0.00  0.00    +0.000 A 
ENDBRANCH   3   7
BRANCH   1  15
ATOM     14  C   UNL     1       6.639   4.875  15.016  0.00  0.00    +0.000 C 
ATOM     15  S   UNL     1       6.917   5.419  16.678  0.00  0.00    +0.000 S 
ATOM     16  O   UNL     1       7.886   4.507  17.262  0.00  0.00    +0.000 OA
ATOM     17  O   UNL     1       7.172   6.849  16.617  0.00  0.00    +0.000 OA
ENDBRANCH   1  15
BRANCH   5  18
ATOM     18  C   UNL     1       3.491   2.285  18.872  0.00  0.00    +0.000 C 
ATOM     19  F   UNL     1       4.384   1.717  19.738  0.00  0.00    +0.000 F 
ATOM     20  F   UNL     1       2.287   2.231  19.504  0.00  0.00    +0.000 F 
ATOM     21  F   UNL     1       3.416   1.427  17.817  0.00  0.00    +0.000 F 
ENDBRANCH   5  18
TORSDOF 3
ENDMDL
MODEL 8
REMARK VINA RESULT:      -8.1      0.763      1.358
REMARK  Name = 
REMARK  4 active torsions:
REMARK  status: ('A' for Active; 'I' for Inactive)
REMARK    1  A    between atoms: C_1  and  S_2
REMARK    2  A    between atoms: S_2  and  C_5
REMARK    3  A    between atoms: C_7  and  C_8
REMARK    4  A    between atoms: C_16  and  C_17
REMARK                            x       y       z     vdW  Elec       q    Type
REMARK                         _______ _______ _______ _____ _____    ______ ____
ROOT
ATOM      1  C   UNL     1       5.408   5.324  17.874  0.00  0.00    +0.000 A 
ATOM      2  N   UNL     1       4.651   6.409  18.116  0.00  0.00    +0.000 NA
ATOM      3  C   UNL     1       3.356   6.160  18.405  0.00  0.00    +0.000 A 
ATOM      4  C   UNL     1       2.849   4.866  18.421  0.00  0.00    +0.000 A 
ATOM      5  C   UNL     1       3.717   3.814  18.159  0.00  0.00    +0.000 A 
ATOM      6  N   UNL     1       5.023   4.035  17.882  0.00  0.00    +0.000 NA
ENDROOT
BRANCH   3   7
ATOM      7  C   UNL     1       2.520   7.341  18.718  0.00  0.00    +0.000 A 
ATOM      8  C   UNL     1       2.236   8.310  17.736  0.00  0.00    +0.000 A 
ATOM      9  C   UNL     1       1.449   9.432  18.025  0.00  0.00    +0.000 A 
ATOM     10  C   UNL     1       0.936   9.597  19.304  0.00  0.00    +0.000 A 
ATOM     11  F   UNL     1       0.185  10.670  19.584  0.00  0.00    +0.000 F 
ATOM     12  C   UNL     1       1.196   8.666  20.298  0.00  0.00    +0.000 A 
ATOM     13  C   UNL     1       1.984   7.549  20.007  0.00  0.00    +0.000 A 
ENDBRANCH   3   7
BRANCH   1  15
ATOM     14  C   UNL     1       7.874   5.953  19.086  0.00  0.00    +0.000 C 
ATOM     15  S   UNL     1       7.137   5.606  17.514  0.00  0.00    +0.000 S 
ATOM     16  O   UNL     1       7.239   6.823  16.725  0.00  0.00    +0.000 OA
ATOM     17  O   UNL     1       7.712   4.355  17.045  0.00  0.00    +0.000 OA
ENDBRANCH   1  15
BRANCH   5  18
ATOM     18  C   UNL     1       3.199   2.382  18.199  0.00  0.00    +0.000 C 
ATOM     19  F   UNL     1       4.026   1.502  17.558  0.00  0.00    +0.000 F 
ATOM     20  F   UNL     1       3.066   1.899  19.464  0.00  0.00    +0.000 F 
ATOM     21  F   UNL     1       1.986   2.240  17.599  0.00  0.00    +0.000 F 
ENDBRANCH   5  18
TORSDOF 3
ENDMDL
MODEL 9
REMARK VINA RESULT:      -8.1      0.719      1.162
REMARK  Name = 
REMARK  4 active torsions:
REMARK  status: ('A' for Active; 'I' for Inactive)
REMARK    1  A    between atoms: C_1  and  S_2
REMARK    2  A    between atoms: S_2  and  C_5
REMARK    3  A    between atoms: C_7  and  C_8
REMARK    4  A    between atoms: C_16  and  C_17
REMARK                            x       y       z     vdW  Elec       q    Type
REMARK                         _______ _______ _______ _____ _____    ______ ____
ROOT
ATOM      1  C   UNL     1       5.349   5.339  17.783  0.00  0.00    +0.000 A 
ATOM      2  N   UNL     1       4.606   6.429  18.043  0.00  0.00    +0.000 NA
ATOM      3  C   UNL     1       3.316   6.189  18.362  0.00  0.00    +0.000 A 
ATOM      4  C   UNL     1       2.800   4.899  18.388  0.00  0.00    +0.000 A 
ATOM      5  C   UNL     1       3.654   3.842  18.105  0.00  0.00    +0.000 A 
ATOM      6  N   UNL     1       4.954   4.052  17.798  0.00  0.00    +0.000 NA
ENDROOT
BRANCH   3   7
ATOM      7  C   UNL     1       2.496   7.376  18.695  0.00  0.00    +0.000 A 
ATOM      8  C   UNL     1       1.991   7.568  19.996  0.00  0.00    +0.000 A 
ATOM      9  C   UNL     1       1.212   8.686  20.317  0.00  0.00    +0.000 A 
ATOM     10  C   UNL     1       0.927   9.627  19.338  0.00  0.00    +0.000 A 
ATOM     11  F   UNL     1       0.179  10.696  19.643  0.00  0.00    +0.000 F 
ATOM     12  C   UNL     1       1.403   9.471  18.046  0.00  0.00    +0.000 A 
ATOM     13  C   UNL     1       2.179   8.353  17.727  0.00  0.00    +0.000 A 
ENDBRANCH   3   7
BRANCH   1  15
ATOM     14  C   UNL     1       7.856   5.898  18.943  0.00  0.00    +0.000 C 
ATOM     15  S   UNL     1       7.071   5.609  17.383  0.00  0.00    +0.000 S 
ATOM     16  O   UNL     1       7.168   6.847  16.628  0.00  0.00    +0.000 OA
ATOM     17  O   UNL     1       7.615   4.365  16.861  0.00  0.00    +0.000 OA
ENDBRANCH   1  15
BRANCH   5  18
ATOM     18  C   UNL     1       3.127   2.413  18.156  0.00  0.00    +0.000 C 
ATOM     19  F   UNL     1       2.493   2.125  19.333  0.00  0.00    +0.000 F 
ATOM     20  F   UNL     1       2.219   2.144  17.179  0.00  0.00    +0.000 F 
ATOM     21  F   UNL     1       4.111   1.480  18.039  0.00  0.00    +0.000 F 
ENDBRANCH   5  18
TORSDOF 3
ENDMDL
