MODEL 1
REMARK VINA RESULT:      -7.4      0.000      0.000
REMARK  Name = 
REMARK  8 active torsions:
REMARK  status: ('A' for Active; 'I' for Inactive)
REMARK    1  A    between atoms: C_1  and  N_2
REMARK    2  A    between atoms: N_2  and  C_3
REMARK    3  A    between atoms: N_6  and  C_7
REMARK    4  A    between atoms: C_9  and  N_10
REMARK    5  A    between atoms: N_13  and  C_14
REMARK    6  A    between atoms: C_14  and  C_15
REMARK    7  A    between atoms: C_15  and  C_16
REMARK    8  A    between atoms: C_15  and  C_17
REMARK                            x       y       z     vdW  Elec       q    Type
REMARK                         _______ _______ _______ _____ _____    ______ ____
ROOT
ATOM      1  C   UNL     1       4.291   3.832  18.137  0.00  0.00    +0.000 A 
ATOM      2  C   UNL     1       5.481   4.196  18.758  0.00  0.00    +0.000 A 
ATOM      3  C   UNL     1       6.569   4.623  18.003  0.00  0.00    +0.000 A 
ATOM      4  N   UNL     1       6.559   4.678  16.664  0.00  0.00    +0.000 NA
ATOM      5  C   UNL     1       5.433   4.303  16.032  0.00  0.00    +0.000 A 
ATOM      6  N   UNL     1       5.332   4.424  14.628  0.00  0.00    +0.000 N 
ATOM      7  C   UNL     1       4.300   3.887  16.735  0.00  0.00    +0.000 A 
ATOM      8  H   UNL     1       4.656   3.763  14.264  0.00  0.00    +0.000 HD
ENDROOT
BRANCH   1  12
ATOM      9  C   UNL     1       0.966   3.612  19.803  0.00  0.00    +0.000 C 
ATOM     10  C   UNL     1       0.966   2.632  18.629  0.00  0.00    +0.000 C 
ATOM     11  C   UNL     1       2.428   2.212  18.502  0.00  0.00    +0.000 C 
ATOM     12  N   UNL     1       3.177   3.422  18.849  0.00  0.00    +0.000 N 
ATOM     13  C   UNL     1       2.299   4.370  19.554  0.00  0.00    +0.000 C 
BRANCH   9  15
ATOM     14  C   UNL     1       1.964   3.054  21.963  0.00  0.00    +0.000 C 
ATOM     15  N   UNL     1       0.842   2.847  21.058  0.00  0.00    +0.000 NA
ATOM     16  H   UNL     1      -0.011   3.144  21.535  0.00  0.00    +0.000 HD
ENDBRANCH   9  15
ENDBRANCH   1  12
BRANCH   3  17
ATOM     17  N   UNL     1       7.728   5.066  18.640  0.00  0.00    +0.000 N 
ATOM     18  H   UNL     1       7.949   6.022  18.389  0.00  0.00    +0.000 HD
ATOM     19  H   UNL     1       7.568   4.958  19.641  0.00  0.00    +0.000 HD
ENDBRANCH   3  17
BRANCH   6  20
ATOM     20  C   UNL     1       6.616   4.322  13.937  0.00  0.00    +0.000 C 
BRANCH  20  21
ATOM     21  C   UNL     1       6.440   3.551  12.616  0.00  0.00    +0.000 C 
ATOM     22  C   UNL     1       4.966   3.431  12.222  0.00  0.00    +0.000 C 
ATOM     23  C   UNL     1       7.225   4.238  11.498  0.00  0.00    +0.000 C 
ENDBRANCH  20  21
ENDBRANCH   6  20
TORSDOF 5
ENDMDL
MODEL 2
REMARK VINA RESULT:      -7.2      1.183      1.818
REMARK  Name = 
REMARK  8 active torsions:
REMARK  status: ('A' for Active; 'I' for Inactive)
REMARK    1  A    between atoms: C_1  and  N_2
REMARK    2  A    between atoms: N_2  and  C_3
REMARK    3  A    between atoms: N_6  and  C_7
REMARK    4  A    between atoms: C_9  and  N_10
REMARK    5  A    between atoms: N_13  and  C_14
REMARK    6  A    between atoms: C_14  and  C_15
REMARK    7  A    between atoms: C_15  and  C_16
REMARK    8  A    between atoms: C_15  and  C_17
REMARK                            x       y       z     vdW  Elec       q    Type
REMARK                         _______ _______ _______ _____ _____    ______ ____
ROOT
ATOM      1  C   UNL     1       4.507   4.466  17.635  0.00  0.00    +0.000 A 
ATOM      2  C   UNL     1       5.804   4.402  18.135  0.00  0.00    +0.000 A 
ATOM      3  C   UNL     1       6.889   4.306  17.269  0.00  0.00    +0.000 A 
ATOM      4  N   UNL     1       6.763   4.237  15.937  0.00  0.00    +0.000 NA
ATOM      5  C   UNL     1       5.521   4.265  15.424  0.00  0.00    +0.000 A 
ATOM      6  N   UNL     1       5.329   4.283  14.024  0.00  0.00    +0.000 N 
ATOM      7  C   UNL     1       4.392   4.382  16.240  0.00  0.00    +0.000 A 
ATOM      8  H   UNL     1       4.421   3.901  13.786  0.00  0.00    +0.000 HD
ENDROOT
BRANCH   1  12
ATOM      9  C   UNL     1       2.192   4.658  20.548  0.00  0.00    +0.000 C 
ATOM     10  C   UNL     1       2.257   6.046  19.910  0.00  0.00    +0.000 C 
ATOM     11  C   UNL     1       2.529   5.760  18.436  0.00  0.00    +0.000 C 
ATOM     12  N   UNL     1       3.399   4.582  18.457  0.00  0.00    +0.000 N 
ATOM     13  C   UNL     1       3.320   3.924  19.772  0.00  0.00    +0.000 C 
BRANCH   9  15
ATOM     14  C   UNL     1       0.774   2.799  19.834  0.00  0.00    +0.000 C 
ATOM     15  N   UNL     1       0.820   4.137  20.409  0.00  0.00    +0.000 NA
ATOM     16  H   UNL     1       0.392   4.100  21.335  0.00  0.00    +0.000 HD
ENDBRANCH   9  15
ENDBRANCH   1  12
BRANCH   3  17
ATOM     17  N   UNL     1       8.188   4.329  17.776  0.00  0.00    +0.000 N 
ATOM     18  H   UNL     1       8.249   4.889  18.618  0.00  0.00    +0.000 HD
ATOM     19  H   UNL     1       8.453   3.359  17.938  0.00  0.00    +0.000 HD
ENDBRANCH   3  17
BRANCH   6  20
ATOM     20  C   UNL     1       6.404   3.634  13.277  0.00  0.00    +0.000 C 
BRANCH  20  21
ATOM     21  C   UNL     1       5.908   3.257  11.868  0.00  0.00    +0.000 C 
ATOM     22  C   UNL     1       6.319   1.834  11.485  0.00  0.00    +0.000 C 
ATOM     23  C   UNL     1       4.388   3.402  11.790  0.00  0.00    +0.000 C 
ENDBRANCH  20  21
ENDBRANCH   6  20
TORSDOF 5
ENDMDL
MODEL 3
REMARK VINA RESULT:      -7.2      1.319      1.602
REMARK  Name = 
REMARK  8 active torsions:
REMARK  status: ('A' for Active; 'I' for Inactive)
REMARK    1  A    between atoms: C_1  and  N_2
REMARK    2  A    between atoms: N_2  and  C_3
REMARK    3  A    between atoms: N_6  and  C_7
REMARK    4  A    between atoms: C_9  and  N_10
REMARK    5  A    between atoms: N_13  and  C_14
REMARK    6  A    between atoms: C_14  and  C_15
REMARK    7  A    between atoms: C_15  and  C_16
REMARK    8  A    between atoms: C_15  and  C_17
REMARK                            x       y       z     vdW  Elec       q    Type
REMARK                         _______ _______ _______ _____ _____    ______ ____
ROOT
ATOM      1  C   UNL     1       4.783   4.751  17.621  0.00  0.00    +0.000 A 
ATOM      2  C   UNL     1       5.810   5.674  17.790  0.00  0.00    +0.000 A 
ATOM      3  C   UNL     1       6.640   6.008  16.724  0.00  0.00    +0.000 A 
ATOM      4  N   UNL     1       6.533   5.455  15.508  0.00  0.00    +0.000 NA
ATOM      5  C   UNL     1       5.570   4.537  15.321  0.00  0.00    +0.000 A 
ATOM      6  N   UNL     1       5.353   3.985  14.039  0.00  0.00    +0.000 N 
ATOM      7  C   UNL     1       4.691   4.175  16.345  0.00  0.00    +0.000 A 
ATOM      8  H   UNL     1       4.924   3.070  14.115  0.00  0.00    +0.000 HD
ENDROOT
BRANCH   1  12
ATOM      9  C   UNL     1       2.207   4.758  20.314  0.00  0.00    +0.000 C 
ATOM     10  C   UNL     1       1.670   3.918  19.154  0.00  0.00    +0.000 C 
ATOM     11  C   UNL     1       2.925   3.340  18.507  0.00  0.00    +0.000 C 
ATOM     12  N   UNL     1       3.920   4.405  18.647  0.00  0.00    +0.000 N 
ATOM     13  C   UNL     1       3.480   5.371  19.667  0.00  0.00    +0.000 C 
BRANCH   9  15
ATOM     14  C   UNL     1       1.376   2.844  21.586  0.00  0.00    +0.000 C 
ATOM     15  N   UNL     1       2.393   3.882  21.485  0.00  0.00    +0.000 NA
ATOM     16  H   UNL     1       3.305   3.429  21.409  0.00  0.00    +0.000 HD
ENDBRANCH   9  15
ENDBRANCH   1  12
BRANCH   3  17
ATOM     17  N   UNL     1       7.611   6.997  16.881  0.00  0.00    +0.000 N 
ATOM     18  H   UNL     1       7.542   7.705  16.160  0.00  0.00    +0.000 HD
ATOM     19  H   UNL     1       7.483   7.384  17.814  0.00  0.00    +0.000 HD
ENDBRANCH   3  17
BRANCH   6  20
ATOM     20  C   UNL     1       6.551   3.954  13.203  0.00  0.00    +0.000 C 
BRANCH  20  21
ATOM     21  C   UNL     1       6.194   3.443  11.795  0.00  0.00    +0.000 C 
ATOM     22  C   UNL     1       6.944   2.154  11.453  0.00  0.00    +0.000 C 
ATOM     23  C   UNL     1       4.686   3.214  11.685  0.00  0.00    +0.000 C 
ENDBRANCH  20  21
ENDBRANCH   6  20
TORSDOF 5
ENDMDL
MODEL 4
REMARK VINA RESULT:      -7.0      0.764      1.441
REMARK  Name = 
REMARK  8 active torsions:
REMARK  status: ('A' for Active; 'I' for Inactive)
REMARK    1  A    between atoms: C_1  and  N_2
REMARK    2  A    between atoms: N_2  and  C_3
REMARK    3  A    between atoms: N_6  and  C_7
REMARK    4  A    between atoms: C_9  and  N_10
REMARK    5  A    between atoms: N_13  and  C_14
REMARK    6  A    between atoms: C_14  and  C_15
REMARK    7  A    between atoms: C_15  and  C_16
REMARK    8  A    between atoms: C_15  and  C_17
REMARK                            x       y       z     vdW  Elec       q    Type
REMARK                         _______ _______ _______ _____ _____    ______ ____
ROOT
ATOM      1  C   UNL     1       4.404   4.420  18.222  0.00  0.00    +0.000 A 
ATOM      2  C   UNL     1       5.643   4.562  18.839  0.00  0.00    +0.000 A 
ATOM      3  C   UNL     1       6.791   4.756  18.078  0.00  0.00    +0.000 A 
ATOM      4  N   UNL     1       6.790   4.785  16.738  0.00  0.00    +0.000 NA
ATOM      5  C   UNL     1       5.612   4.620  16.111  0.00  0.00    +0.000 A 
ATOM      6  N   UNL     1       5.535   4.729  14.705  0.00  0.00    +0.000 N 
ATOM      7  C   UNL     1       4.421   4.443  16.820  0.00  0.00    +0.000 A 
ATOM      8  H   UNL     1       4.743   4.203  14.352  0.00  0.00    +0.000 HD
ENDROOT
BRANCH   1  12
ATOM      9  C   UNL     1       1.858   3.545  20.798  0.00  0.00    +0.000 C 
ATOM     10  C   UNL     1       1.978   5.069  20.758  0.00  0.00    +0.000 C 
ATOM     11  C   UNL     1       2.370   5.369  19.314  0.00  0.00    +0.000 C 
ATOM     12  N   UNL     1       3.233   4.246  18.939  0.00  0.00    +0.000 N 
ATOM     13  C   UNL     1       3.045   3.133  19.883  0.00  0.00    +0.000 C 
BRANCH   9  15
ATOM     14  C   UNL     1       0.497   2.330  19.171  0.00  0.00    +0.000 C 
ATOM     15  N   UNL     1       0.500   3.166  20.364  0.00  0.00    +0.000 NA
ATOM     16  H   UNL     1       0.053   2.645  21.120  0.00  0.00    +0.000 HD
ENDBRANCH   9  15
ENDBRANCH   1  12
BRANCH   3  17
ATOM     17  N   UNL     1       8.015   4.982  18.709  0.00  0.00    +0.000 N 
ATOM     18  H   UNL     1       8.103   5.943  19.016  0.00  0.00    +0.000 HD
ATOM     19  H   UNL     1       8.066   4.324  19.485  0.00  0.00    +0.000 HD
ENDBRANCH   3  17
BRANCH   6  20
ATOM     20  C   UNL     1       6.774   4.370  14.019  0.00  0.00    +0.000 C 
BRANCH  20  21
ATOM     21  C   UNL     1       6.452   3.592  12.729  0.00  0.00    +0.000 C 
ATOM     22  C   UNL     1       4.952   3.589  12.429  0.00  0.00    +0.000 C 
ATOM     23  C   UNL     1       7.220   4.189  11.550  0.00  0.00    +0.000 C 
ENDBRANCH  20  21
ENDBRANCH   6  20
TORSDOF 5
ENDMDL
MODEL 5
REMARK VINA RESULT:      -6.8      1.012      1.051
REMARK  Name = 
REMARK  8 active torsions:
REMARK  status: ('A' for Active; 'I' for Inactive)
REMARK    1  A    between atoms: C_1  and  N_2
REMARK    2  A    between atoms: N_2  and  C_3
REMARK    3  A    between atoms: N_6  and  C_7
REMARK    4  A    between atoms: C_9  and  N_10
REMARK    5  A    between atoms: N_13  and  C_14
REMARK    6  A    between atoms: C_14  and  C_15
REMARK    7  A    between atoms: C_15  and  C_16
REMARK    8  A    between atoms: C_15  and  C_17
REMARK                            x       y       z     vdW  Elec       q    Type
REMARK                         _______ _______ _______ _____ _____    ______ ____
ROOT
ATOM      1  C   UNL     1       4.501   3.972  17.818  0.00  0.00    +0.000 A 
ATOM      2  C   UNL     1       5.794   4.127  18.306  0.00  0.00    +0.000 A 
ATOM      3  C   UNL     1       6.856   4.348  17.434  0.00  0.00    +0.000 A 
ATOM      4  N   UNL     1       6.715   4.393  16.102  0.00  0.00    +0.000 NA
ATOM      5  C   UNL     1       5.482   4.216  15.597  0.00  0.00    +0.000 A 
ATOM      6  N   UNL     1       5.258   4.340  14.207  0.00  0.00    +0.000 N 
ATOM      7  C   UNL     1       4.373   4.012  16.422  0.00  0.00    +0.000 A 
ATOM      8  H   UNL     1       4.443   3.805  13.931  0.00  0.00    +0.000 HD
ENDROOT
BRANCH   1  12
ATOM      9  C   UNL     1       1.085   3.455  19.213  0.00  0.00    +0.000 C 
ATOM     10  C   UNL     1       1.870   2.156  19.403  0.00  0.00    +0.000 C 
ATOM     11  C   UNL     1       3.316   2.619  19.548  0.00  0.00    +0.000 C 
ATOM     12  N   UNL     1       3.413   3.771  18.649  0.00  0.00    +0.000 N 
ATOM     13  C   UNL     1       2.065   4.261  18.317  0.00  0.00    +0.000 C 
BRANCH   9  15
ATOM     14  C   UNL     1       1.334   5.331  20.759  0.00  0.00    +0.000 C 
ATOM     15  N   UNL     1       0.761   4.010  20.540  0.00  0.00    +0.000 NA
ATOM     16  H   UNL     1      -0.254   4.086  20.619  0.00  0.00    +0.000 HD
ENDBRANCH   9  15
ENDBRANCH   1  12
BRANCH   3  17
ATOM     17  N   UNL     1       8.134   4.587  17.939  0.00  0.00    +0.000 N 
ATOM     18  H   UNL     1       8.777   4.865  17.208  0.00  0.00    +0.000 HD
ATOM     19  H   UNL     1       8.033   5.302  18.656  0.00  0.00    +0.000 HD
ENDBRANCH   3  17
BRANCH   6  20
ATOM     20  C   UNL     1       6.426   4.007  13.393  0.00  0.00    +0.000 C 
BRANCH  20  21
ATOM     21  C   UNL     1       6.053   2.930  12.358  0.00  0.00    +0.000 C 
ATOM     22  C   UNL     1       4.747   3.266  11.636  0.00  0.00    +0.000 C 
ATOM     23  C   UNL     1       7.184   2.763  11.343  0.00  0.00    +0.000 C 
ENDBRANCH  20  21
ENDBRANCH   6  20
TORSDOF 5
ENDMDL
MODEL 6
REMARK VINA RESULT:      -6.8      1.502      2.166
REMARK  Name = 
REMARK  8 active torsions:
REMARK  status: ('A' for Active; 'I' for Inactive)
REMARK    1  A    between atoms: C_1  and  N_2
REMARK    2  A    between atoms: N_2  and  C_3
REMARK    3  A    between atoms: N_6  and  C_7
REMARK    4  A    between atoms: C_9  and  N_10
REMARK    5  A    between atoms: N_13  and  C_14
REMARK    6  A    between atoms: C_14  and  C_15
REMARK    7  A    between atoms: C_15  and  C_16
REMARK    8  A    between atoms: C_15  and  C_17
REMARK                            x       y       z     vdW  Elec       q    Type
REMARK                         _______ _______ _______ _____ _____    ______ ____
ROOT
ATOM      1  C   UNL     1       4.464   5.256  17.400  0.00  0.00    +0.000 A 
ATOM      2  C   UNL     1       5.611   6.016  17.608  0.00  0.00    +0.000 A 
ATOM      3  C   UNL     1       6.581   6.114  16.616  0.00  0.00    +0.000 A 
ATOM      4  N   UNL     1       6.497   5.477  15.440  0.00  0.00    +0.000 NA
ATOM      5  C   UNL     1       5.415   4.710  15.220  0.00  0.00    +0.000 A 
ATOM      6  N   UNL     1       5.229   4.084  13.967  0.00  0.00    +0.000 N 
ATOM      7  C   UNL     1       4.397   4.588  16.169  0.00  0.00    +0.000 A 
ATOM      8  H   UNL     1       4.648   3.260  14.066  0.00  0.00    +0.000 HD
ENDROOT
BRANCH   1  12
ATOM      9  C   UNL     1       2.516   4.692  20.526  0.00  0.00    +0.000 C 
ATOM     10  C   UNL     1       2.511   6.194  20.237  0.00  0.00    +0.000 C 
ATOM     11  C   UNL     1       2.604   6.275  18.716  0.00  0.00    +0.000 C 
ATOM     12  N   UNL     1       3.464   5.147  18.351  0.00  0.00    +0.000 N 
ATOM     13  C   UNL     1       3.539   4.192  19.469  0.00  0.00    +0.000 C 
BRANCH   9  15
ATOM     14  C   UNL     1       1.050   2.881  19.790  0.00  0.00    +0.000 C 
ATOM     15  N   UNL     1       1.134   4.188  20.428  0.00  0.00    +0.000 NA
ATOM     16  H   UNL     1       0.752   4.107  21.371  0.00  0.00    +0.000 HD
ENDBRANCH   9  15
ENDBRANCH   1  12
BRANCH   3  17
ATOM     17  N   UNL     1       7.685   6.946  16.801  0.00  0.00    +0.000 N 
ATOM     18  H   UNL     1       8.553   6.425  16.771  0.00  0.00    +0.000 HD
ATOM     19  H   UNL     1       7.638   7.657  16.074  0.00  0.00    +0.000 HD
ENDBRANCH   3  17
BRANCH   6  20
ATOM     20  C   UNL     1       6.478   3.787  13.269  0.00  0.00    +0.000 C 
BRANCH  20  21
ATOM     21  C   UNL     1       6.180   3.384  11.812  0.00  0.00    +0.000 C 
ATOM     22  C   UNL     1       6.940   2.118  11.409  0.00  0.00    +0.000 C 
ATOM     23  C   UNL     1       4.678   3.175  11.622  0.00  0.00    +0.000 C 
ENDBRANCH  20  21
ENDBRANCH   6  20
TORSDOF 5
ENDMDL
MODEL 7
REMARK VINA RESULT:      -6.7      1.357      1.881
REMARK  Name = 
REMARK  8 active torsions:
REMARK  status: ('A' for Active; 'I' for Inactive)
REMARK    1  A    between atoms: C_1  and  N_2
REMARK    2  A    between atoms: N_2  and  C_3
REMARK    3  A    between atoms: N_6  and  C_7
REMARK    4  A    between atoms: C_9  and  N_10
REMARK    5  A    between atoms: N_13  and  C_14
REMARK    6  A    between atoms: C_14  and  C_15
REMARK    7  A    between atoms: C_15  and  C_16
REMARK    8  A    between atoms: C_15  and  C_17
REMARK                            x       y       z     vdW  Elec       q    Type
REMARK                         _______ _______ _______ _____ _____    ______ ____
ROOT
ATOM      1  C   UNL     1       4.155   5.168  17.750  0.00  0.00    +0.000 A 
ATOM      2  C   UNL     1       5.066   6.194  17.979  0.00  0.00    +0.000 A 
ATOM      3  C   UNL     1       6.047   6.489  17.037  0.00  0.00    +0.000 A 
ATOM      4  N   UNL     1       6.199   5.806  15.894  0.00  0.00    +0.000 NA
ATOM      5  C   UNL     1       5.354   4.788  15.658  0.00  0.00    +0.000 A 
ATOM      6  N   UNL     1       5.409   4.088  14.432  0.00  0.00    +0.000 N 
ATOM      7  C   UNL     1       4.334   4.456  16.554  0.00  0.00    +0.000 A 
ATOM      8  H   UNL     1       5.041   3.150  14.543  0.00  0.00    +0.000 HD
ENDROOT
BRANCH   1  12
ATOM      9  C   UNL     1       2.185   3.889  20.642  0.00  0.00    +0.000 C 
ATOM     10  C   UNL     1       2.233   5.414  20.747  0.00  0.00    +0.000 C 
ATOM     11  C   UNL     1       2.330   5.879  19.297  0.00  0.00    +0.000 C 
ATOM     12  N   UNL     1       3.151   4.853  18.648  0.00  0.00    +0.000 N 
ATOM     13  C   UNL     1       3.191   3.642  19.484  0.00  0.00    +0.000 C 
BRANCH   9  15
ATOM     14  C   UNL     1       0.629   2.562  19.304  0.00  0.00    +0.000 C 
ATOM     15  N   UNL     1       0.787   3.474  20.429  0.00  0.00    +0.000 NA
ATOM     16  H   UNL     1       0.458   3.000  21.272  0.00  0.00    +0.000 HD
ENDBRANCH   9  15
ENDBRANCH   1  12
BRANCH   3  17
ATOM     17  N   UNL     1       6.901   7.574  17.238  0.00  0.00    +0.000 N 
ATOM     18  H   UNL     1       7.868   7.280  17.299  0.00  0.00    +0.000 HD
ATOM     19  H   UNL     1       6.742   8.215  16.462  0.00  0.00    +0.000 HD
ENDBRANCH   3  17
BRANCH   6  20
ATOM     20  C   UNL     1       6.736   4.080  13.820  0.00  0.00    +0.000 C 
BRANCH  20  21
ATOM     21  C   UNL     1       6.640   3.577  12.368  0.00  0.00    +0.000 C 
ATOM     22  C   UNL     1       5.192   3.301  11.958  0.00  0.00    +0.000 C 
ATOM     23  C   UNL     1       7.268   4.597  11.416  0.00  0.00    +0.000 C 
ENDBRANCH  20  21
ENDBRANCH   6  20
TORSDOF 5
ENDMDL
MODEL 8
REMARK VINA RESULT:      -6.7      0.637      1.032
REMARK  Name = 
REMARK  8 active torsions:
REMARK  status: ('A' for Active; 'I' for Inactive)
REMARK    1  A    between atoms: C_1  and  N_2
REMARK    2  A    between atoms: N_2  and  C_3
REMARK    3  A    between atoms: N_6  and  C_7
REMARK    4  A    between atoms: C_9  and  N_10
REMARK    5  A    between atoms: N_13  and  C_14
REMARK    6  A    between atoms: C_14  and  C_15
REMARK    7  A    between atoms: C_15  and  C_16
REMARK    8  A    between atoms: C_15  and  C_17
REMARK                            x       y       z     vdW  Elec       q    Type
REMARK                         _______ _______ _______ _____ _____    ______ ____
ROOT
ATOM      1  C   UNL     1       4.370   4.025  18.339  0.00  0.00    +0.000 A 
ATOM      2  C   UNL     1       5.490   4.438  19.053  0.00  0.00    +0.000 A 
ATOM      3  C   UNL     1       6.619   4.904  18.386  0.00  0.00    +0.000 A 
ATOM      4  N   UNL     1       6.716   4.954  17.051  0.00  0.00    +0.000 NA
ATOM      5  C   UNL     1       5.662   4.532  16.331  0.00  0.00    +0.000 A 
ATOM      6  N   UNL     1       5.672   4.643  14.923  0.00  0.00    +0.000 N 
ATOM      7  C   UNL     1       4.492   4.074  16.942  0.00  0.00    +0.000 A 
ATOM      8  H   UNL     1       5.054   3.954  14.509  0.00  0.00    +0.000 HD
ENDROOT
BRANCH   1  12
ATOM      9  C   UNL     1       0.984   3.731  19.866  0.00  0.00    +0.000 C 
ATOM     10  C   UNL     1       0.990   2.906  18.578  0.00  0.00    +0.000 C 
ATOM     11  C   UNL     1       2.438   2.447  18.442  0.00  0.00    +0.000 C 
ATOM     12  N   UNL     1       3.219   3.574  18.960  0.00  0.00    +0.000 N 
ATOM     13  C   UNL     1       2.352   4.460  19.754  0.00  0.00    +0.000 C 
BRANCH   9  15
ATOM     14  C   UNL     1       1.876   2.885  21.979  0.00  0.00    +0.000 C 
ATOM     15  N   UNL     1       0.790   2.820  21.010  0.00  0.00    +0.000 NA
ATOM     16  H   UNL     1      -0.076   3.077  21.484  0.00  0.00    +0.000 HD
ENDBRANCH   9  15
ENDBRANCH   1  12
BRANCH   3  17
ATOM     17  N   UNL     1       7.703   5.396  19.113  0.00  0.00    +0.000 N 
ATOM     18  H   UNL     1       8.573   5.281  18.607  0.00  0.00    +0.000 HD
ATOM     19  H   UNL     1       7.499   6.374  19.312  0.00  0.00    +0.000 HD
ENDBRANCH   3  17
BRANCH   6  20
ATOM     20  C   UNL     1       7.010   4.590  14.340  0.00  0.00    +0.000 C 
BRANCH  20  21
ATOM     21  C   UNL     1       6.933   4.853  12.824  0.00  0.00    +0.000 C 
ATOM     22  C   UNL     1       8.167   5.599  12.315  0.00  0.00    +0.000 C 
ATOM     23  C   UNL     1       6.771   3.533  12.070  0.00  0.00    +0.000 C 
ENDBRANCH  20  21
ENDBRANCH   6  20
TORSDOF 5
ENDMDL
MODEL 9
REMARK VINA RESULT:      -6.5      1.457      6.859
REMARK  Name = 
REMARK  8 active torsions:
REMARK  status: ('A' for Active; 'I' for Inactive)
REMARK    1  A    between atoms: C_1  and  N_2
REMARK    2  A    between atoms: N_2  and  C_3
REMARK    3  A    between atoms: N_6  and  C_7
REMARK    4  A    between atoms: C_9  and  N_10
REMARK    5  A    between atoms: N_13  and  C_14
REMARK    6  A    between atoms: C_14  and  C_15
REMARK    7  A    between atoms: C_15  and  C_16
REMARK    8  A    between atoms: C_15  and  C_17
REMARK                            x       y       z     vdW  Elec       q    Type
REMARK                         _______ _______ _______ _____ _____    ______ ____
ROOT
ATOM      1  C   UNL     1       6.213   4.328  16.585  0.00  0.00    +0.000 A 
ATOM      2  C   UNL     1       7.180   4.883  17.416  0.00  0.00    +0.000 A 
ATOM      3  C   UNL     1       6.906   5.115  18.760  0.00  0.00    +0.000 A 
ATOM      4  N   UNL     1       5.718   4.859  19.323  0.00  0.00    +0.000 NA
ATOM      5  C   UNL     1       4.751   4.351  18.539  0.00  0.00    +0.000 A 
ATOM      6  N   UNL     1       3.507   3.979  19.095  0.00  0.00    +0.000 N 
ATOM      7  C   UNL     1       4.971   4.075  17.187  0.00  0.00    +0.000 A 
ATOM      8  H   UNL     1       2.780   4.011  18.389  0.00  0.00    +0.000 HD
ENDROOT
BRANCH   1  12
ATOM      9  C   UNL     1       5.929   3.925  12.891  0.00  0.00    +0.000 C 
ATOM     10  C   UNL     1       6.919   5.058  13.164  0.00  0.00    +0.000 C 
ATOM     11  C   UNL     1       7.545   4.685  14.504  0.00  0.00    +0.000 C 
ATOM     12  N   UNL     1       6.448   4.060  15.247  0.00  0.00    +0.000 N 
ATOM     13  C   UNL     1       5.372   3.672  14.320  0.00  0.00    +0.000 C 
BRANCH   9  15
ATOM     14  C   UNL     1       5.767   1.946  11.466  0.00  0.00    +0.000 C 
ATOM     15  N   UNL     1       6.647   2.818  12.234  0.00  0.00    +0.000 NA
ATOM     16  H   UNL     1       7.338   3.214  11.596  0.00  0.00    +0.000 HD
ENDBRANCH   9  15
ENDBRANCH   1  12
BRANCH   3  17
ATOM     17  N   UNL     1       7.910   5.592  19.603  0.00  0.00    +0.000 N 
ATOM     18  H   UNL     1       7.894   5.126  20.502  0.00  0.00    +0.000 HD
ATOM     19  H   UNL     1       8.792   5.452  19.112  0.00  0.00    +0.000 HD
ENDBRANCH   3  17
BRANCH   6  20
ATOM     20  C   UNL     1       3.142   4.748  20.283  0.00  0.00    +0.000 C 
BRANCH  20  21
ATOM     21  C   UNL     1       1.913   4.114  20.961  0.00  0.00    +0.000 C 
ATOM     22  C   UNL     1       0.827   3.756  19.944  0.00  0.00    +0.000 C 
ATOM     23  C   UNL     1       2.329   2.867  21.742  0.00  0.00    +0.000 C 
ENDBRANCH  20  21
ENDBRANCH   6  20
TORSDOF 5
ENDMDL
