MODEL 1
REMARK VINA RESULT:      -7.6      0.000      0.000
REMARK  Name = 
REMARK  6 active torsions:
REMARK  status: ('A' for Active; 'I' for Inactive)
REMARK    1  A    between atoms: C_1  and  C_2
REMARK    2  A    between atoms: C_6  and  C_7
REMARK    3  A    between atoms: C_8  and  N_9
REMARK    4  A    between atoms: N_9  and  C_10
REMARK    5  A    between atoms: C_10  and  N_12
REMARK    6  A    between atoms: N_12  and  C_13
REMARK                            x       y       z     vdW  Elec       q    Type
REMARK                         _______ _______ _______ _____ _____    ______ ____
ROOT
ATOM      1  N   UNL     1       4.471   5.355  18.011  0.00  0.00    +0.000 N 
ATOM      2  H   UNL     1       4.803   5.189  18.962  0.00  0.00    +0.000 HD
ENDROOT
BRANCH   1   3
ATOM      3  C   UNL     1       3.994   6.618  17.712  0.00  0.00    +0.000 C 
ATOM      4  C   UNL     1       3.115   7.263  18.485  0.00  0.00    +0.000 C 
ATOM      5  C   UNL     1       2.352   8.468  18.065  0.00  0.00    +0.000 C 
ATOM      6  O   UNL     1       2.405   9.059  17.008  0.00  0.00    +0.000 OA
ATOM      7  C   UNL     1       1.447   8.758  19.188  0.00  0.00    +0.000 A 
ATOM      8  C   UNL     1       0.488   9.751  19.285  0.00  0.00    +0.000 A 
ATOM      9  C   UNL     1      -0.250   9.824  20.473  0.00  0.00    +0.000 A 
ATOM     10  C   UNL     1      -0.020   8.917  21.527  0.00  0.00    +0.000 A 
ATOM     11  C   UNL     1       0.940   7.908  21.406  0.00  0.00    +0.000 A 
ATOM     12  C   UNL     1       1.653   7.845  20.222  0.00  0.00    +0.000 A 
ATOM     13  C   UNL     1       2.672   6.861  19.841  0.00  0.00    +0.000 C 
ATOM     14  O   UNL     1       3.059   5.921  20.503  0.00  0.00    +0.000 OA
ENDBRANCH   1   3
BRANCH   1  15
ATOM     15  C   UNL     1       4.490   4.256  17.184  0.00  0.00    +0.000 C 
ATOM     16  S   UNL     1       5.458   4.077  15.831  0.00  0.00    +0.000 S 
BRANCH  15  17
ATOM     17  N   UNL     1       3.719   3.195  17.586  0.00  0.00    +0.000 N 
ATOM     18  H   UNL     1       3.492   2.558  16.832  0.00  0.00    +0.000 HD
BRANCH  17  26
ATOM     19  C   UNL     1       1.028   4.281  17.445  0.00  0.00    +0.000 C 
ATOM     20  C   UNL     1       1.589   3.619  18.677  0.00  0.00    +0.000 A 
ATOM     21  C   UNL     1       0.722   3.512  19.786  0.00  0.00    +0.000 A 
ATOM     22  C   UNL     1       1.142   2.913  20.963  0.00  0.00    +0.000 A 
ATOM     23  C   UNL     1       2.437   2.430  21.056  0.00  0.00    +0.000 A 
ATOM     24  C   UNL     1       3.335   2.515  19.971  0.00  0.00    +0.000 A 
ATOM     25  C   UNL     1       4.752   2.123  20.283  0.00  0.00    +0.000 C 
ATOM     26  C   UNL     1       2.891   3.057  18.741  0.00  0.00    +0.000 A 
ENDBRANCH  17  26
ENDBRANCH  15  17
ENDBRANCH   1  15
TORSDOF 4
ENDMDL
MODEL 2
REMARK VINA RESULT:      -7.4      0.135      1.790
REMARK  Name = 
REMARK  6 active torsions:
REMARK  status: ('A' for Active; 'I' for Inactive)
REMARK    1  A    between atoms: C_1  and  C_2
REMARK    2  A    between atoms: C_6  and  C_7
REMARK    3  A    between atoms: C_8  and  N_9
REMARK    4  A    between atoms: N_9  and  C_10
REMARK    5  A    between atoms: C_10  and  N_12
REMARK    6  A    between atoms: N_12  and  C_13
REMARK                            x       y       z     vdW  Elec       q    Type
REMARK                         _______ _______ _______ _____ _____    ______ ____
ROOT
ATOM      1  N   UNL     1       4.574   5.524  18.026  0.00  0.00    +0.000 N 
ATOM      2  H   UNL     1       4.987   5.408  18.952  0.00  0.00    +0.000 HD
ENDROOT
BRANCH   1   3
ATOM      3  C   UNL     1       4.031   6.758  17.720  0.00  0.00    +0.000 C 
ATOM      4  C   UNL     1       3.125   7.365  18.492  0.00  0.00    +0.000 C 
ATOM      5  C   UNL     1       2.300   8.526  18.066  0.00  0.00    +0.000 C 
ATOM      6  O   UNL     1       2.318   9.109  17.004  0.00  0.00    +0.000 OA
ATOM      7  C   UNL     1       1.387   8.779  19.192  0.00  0.00    +0.000 A 
ATOM      8  C   UNL     1       0.379   9.723  19.286  0.00  0.00    +0.000 A 
ATOM      9  C   UNL     1      -0.355   9.769  20.477  0.00  0.00    +0.000 A 
ATOM     10  C   UNL     1      -0.074   8.885  21.537  0.00  0.00    +0.000 A 
ATOM     11  C   UNL     1       0.935   7.924  21.420  0.00  0.00    +0.000 A 
ATOM     12  C   UNL     1       1.645   7.887  20.232  0.00  0.00    +0.000 A 
ATOM     13  C   UNL     1       2.710   6.953  19.854  0.00  0.00    +0.000 C 
ATOM     14  O   UNL     1       3.147   6.040  20.522  0.00  0.00    +0.000 OA
ENDBRANCH   1   3
BRANCH   1  15
ATOM     15  C   UNL     1       4.562   4.392  17.244  0.00  0.00    +0.000 C 
ATOM     16  S   UNL     1       5.378   4.207  15.795  0.00  0.00    +0.000 S 
BRANCH  15  17
ATOM     17  N   UNL     1       3.904   3.311  17.772  0.00  0.00    +0.000 N 
ATOM     18  H   UNL     1       3.869   2.518  17.141  0.00  0.00    +0.000 HD
BRANCH  17  26
ATOM     19  C   UNL     1       4.750   2.018  20.232  0.00  0.00    +0.000 C 
ATOM     20  C   UNL     1       3.370   2.587  20.029  0.00  0.00    +0.000 A 
ATOM     21  C   UNL     1       2.483   2.497  21.124  0.00  0.00    +0.000 A 
ATOM     22  C   UNL     1       1.195   2.999  21.040  0.00  0.00    +0.000 A 
ATOM     23  C   UNL     1       0.767   3.580  19.857  0.00  0.00    +0.000 A 
ATOM     24  C   UNL     1       1.621   3.692  18.740  0.00  0.00    +0.000 A 
ATOM     25  C   UNL     1       0.960   4.170  17.477  0.00  0.00    +0.000 C 
ATOM     26  C   UNL     1       2.962   3.250  18.842  0.00  0.00    +0.000 A 
ENDBRANCH  17  26
ENDBRANCH  15  17
ENDBRANCH   1  15
TORSDOF 4
ENDMDL
MODEL 3
REMARK VINA RESULT:      -7.0      2.583      4.636
REMARK  Name = 
REMARK  6 active torsions:
REMARK  status: ('A' for Active; 'I' for Inactive)
REMARK    1  A    between atoms: C_1  and  C_2
REMARK    2  A    between atoms: C_6  and  C_7
REMARK    3  A    between atoms: C_8  and  N_9
REMARK    4  A    between atoms: N_9  and  C_10
REMARK    5  A    between atoms: C_10  and  N_12
REMARK    6  A    between atoms: N_12  and  C_13
REMARK                            x       y       z     vdW  Elec       q    Type
REMARK                         _______ _______ _______ _____ _____    ______ ____
ROOT
ATOM      1  N   UNL     1       2.086   7.305  20.426  0.00  0.00    +0.000 N 
ATOM      2  H   UNL     1       2.682   7.953  19.909  0.00  0.00    +0.000 HD
ENDROOT
BRANCH   1   3
ATOM      3  C   UNL     1       1.360   7.813  21.487  0.00  0.00    +0.000 C 
ATOM      4  C   UNL     1       0.658   8.948  21.409  0.00  0.00    +0.000 C 
ATOM      5  C   UNL     1       0.119   9.684  22.582  0.00  0.00    +0.000 C 
ATOM      6  O   UNL     1       0.199   9.390  23.755  0.00  0.00    +0.000 OA
ATOM      7  C   UNL     1      -0.479  10.907  22.023  0.00  0.00    +0.000 A 
ATOM      8  C   UNL     1      -1.075  11.959  22.697  0.00  0.00    +0.000 A 
ATOM      9  C   UNL     1      -1.578  13.017  21.931  0.00  0.00    +0.000 A 
ATOM     10  C   UNL     1      -1.478  13.006  20.526  0.00  0.00    +0.000 A 
ATOM     11  C   UNL     1      -0.856  11.946  19.860  0.00  0.00    +0.000 A 
ATOM     12  C   UNL     1      -0.357  10.913  20.634  0.00  0.00    +0.000 A 
ATOM     13  C   UNL     1       0.368   9.722  20.179  0.00  0.00    +0.000 C 
ATOM     14  O   UNL     1       0.664   9.444  19.036  0.00  0.00    +0.000 OA
ENDBRANCH   1   3
BRANCH   1  15
ATOM     15  C   UNL     1       2.156   5.993  20.017  0.00  0.00    +0.000 C 
ATOM     16  S   UNL     1       2.096   4.659  21.026  0.00  0.00    +0.000 S 
BRANCH  15  17
ATOM     17  N   UNL     1       2.170   5.793  18.661  0.00  0.00    +0.000 N 
ATOM     18  H   UNL     1       1.263   5.540  18.285  0.00  0.00    +0.000 HD
BRANCH  17  26
ATOM     19  C   UNL     1       3.580   8.040  17.478  0.00  0.00    +0.000 C 
ATOM     20  C   UNL     1       3.928   6.603  17.192  0.00  0.00    +0.000 A 
ATOM     21  C   UNL     1       5.022   6.379  16.328  0.00  0.00    +0.000 A 
ATOM     22  C   UNL     1       5.426   5.092  16.010  0.00  0.00    +0.000 A 
ATOM     23  C   UNL     1       4.734   4.013  16.534  0.00  0.00    +0.000 A 
ATOM     24  C   UNL     1       3.638   4.192  17.404  0.00  0.00    +0.000 A 
ATOM     25  C   UNL     1       2.876   2.939  17.737  0.00  0.00    +0.000 C 
ATOM     26  C   UNL     1       3.266   5.501  17.794  0.00  0.00    +0.000 A 
ENDBRANCH  17  26
ENDBRANCH  15  17
ENDBRANCH   1  15
TORSDOF 4
ENDMDL
MODEL 4
REMARK VINA RESULT:      -6.9      2.810      6.581
REMARK  Name = 
REMARK  6 active torsions:
REMARK  status: ('A' for Active; 'I' for Inactive)
REMARK    1  A    between atoms: C_1  and  C_2
REMARK    2  A    between atoms: C_6  and  C_7
REMARK    3  A    between atoms: C_8  and  N_9
REMARK    4  A    between atoms: N_9  and  C_10
REMARK    5  A    between atoms: C_10  and  N_12
REMARK    6  A    between atoms: N_12  and  C_13
REMARK                            x       y       z     vdW  Elec       q    Type
REMARK                         _______ _______ _______ _____ _____    ______ ____
ROOT
ATOM      1  N   UNL     1       3.935   4.887  19.695  0.00  0.00    +0.000 N 
ATOM      2  H   UNL     1       3.970   3.907  19.980  0.00  0.00    +0.000 HD
ENDROOT
BRANCH   1   3
ATOM      3  C   UNL     1       5.058   5.414  19.085  0.00  0.00    +0.000 C 
ATOM      4  C   UNL     1       5.362   5.187  17.803  0.00  0.00    +0.000 C 
ATOM      5  C   UNL     1       6.686   5.471  17.191  0.00  0.00    +0.000 C 
ATOM      6  O   UNL     1       7.668   5.953  17.714  0.00  0.00    +0.000 OA
ATOM      7  C   UNL     1       6.584   4.970  15.811  0.00  0.00    +0.000 A 
ATOM      8  C   UNL     1       7.561   4.946  14.830  0.00  0.00    +0.000 A 
ATOM      9  C   UNL     1       7.212   4.416  13.583  0.00  0.00    +0.000 A 
ATOM     10  C   UNL     1       5.914   3.925  13.340  0.00  0.00    +0.000 A 
ATOM     11  C   UNL     1       4.944   3.937  14.347  0.00  0.00    +0.000 A 
ATOM     12  C   UNL     1       5.309   4.457  15.577  0.00  0.00    +0.000 A 
ATOM     13  C   UNL     1       4.493   4.540  16.793  0.00  0.00    +0.000 C 
ATOM     14  O   UNL     1       3.351   4.155  16.929  0.00  0.00    +0.000 OA
ENDBRANCH   1   3
BRANCH   1  15
ATOM     15  C   UNL     1       2.780   5.554  20.031  0.00  0.00    +0.000 C 
ATOM     16  S   UNL     1       1.326   4.831  20.436  0.00  0.00    +0.000 S 
BRANCH  15  17
ATOM     17  N   UNL     1       2.889   6.917  20.136  0.00  0.00    +0.000 N 
ATOM     18  H   UNL     1       3.542   7.211  20.853  0.00  0.00    +0.000 HD
BRANCH  17  26
ATOM     19  C   UNL     1       3.044   7.758  17.359  0.00  0.00    +0.000 C 
ATOM     20  C   UNL     1       2.095   8.370  18.357  0.00  0.00    +0.000 A 
ATOM     21  C   UNL     1       1.231   9.376  17.871  0.00  0.00    +0.000 A 
ATOM     22  C   UNL     1       0.316   9.994  18.709  0.00  0.00    +0.000 A 
ATOM     23  C   UNL     1       0.263   9.630  20.045  0.00  0.00    +0.000 A 
ATOM     24  C   UNL     1       1.106   8.628  20.570  0.00  0.00    +0.000 A 
ATOM     25  C   UNL     1       1.065   8.479  22.065  0.00  0.00    +0.000 C 
ATOM     26  C   UNL     1       1.991   7.939  19.705  0.00  0.00    +0.000 A 
ENDBRANCH  17  26
ENDBRANCH  15  17
ENDBRANCH   1  15
TORSDOF 4
ENDMDL
MODEL 5
REMARK VINA RESULT:      -6.9      2.472      4.042
REMARK  Name = 
REMARK  6 active torsions:
REMARK  status: ('A' for Active; 'I' for Inactive)
REMARK    1  A    between atoms: C_1  and  C_2
REMARK    2  A    between atoms: C_6  and  C_7
REMARK    3  A    between atoms: C_8  and  N_9
REMARK    4  A    between atoms: N_9  and  C_10
REMARK    5  A    between atoms: C_10  and  N_12
REMARK    6  A    between atoms: N_12  and  C_13
REMARK                            x       y       z     vdW  Elec       q    Type
REMARK                         _______ _______ _______ _____ _____    ______ ____
ROOT
ATOM      1  N   UNL     1       2.225   7.254  20.289  0.00  0.00    +0.000 N 
ATOM      2  H   UNL     1       2.597   7.450  21.219  0.00  0.00    +0.000 HD
ENDROOT
BRANCH   1   3
ATOM      3  C   UNL     1       1.664   8.307  19.589  0.00  0.00    +0.000 C 
ATOM      4  C   UNL     1       0.893   9.233  20.168  0.00  0.00    +0.000 C 
ATOM      5  C   UNL     1       0.034  10.193  19.427  0.00  0.00    +0.000 C 
ATOM      6  O   UNL     1      -0.097  10.312  18.227  0.00  0.00    +0.000 OA
ATOM      7  C   UNL     1      -0.696  10.934  20.467  0.00  0.00    +0.000 A 
ATOM      8  C   UNL     1      -1.663  11.912  20.308  0.00  0.00    +0.000 A 
ATOM      9  C   UNL     1      -2.210  12.475  21.467  0.00  0.00    +0.000 A 
ATOM     10  C   UNL     1      -1.789  12.057  22.745  0.00  0.00    +0.000 A 
ATOM     11  C   UNL     1      -0.826  11.055  22.889  0.00  0.00    +0.000 A 
ATOM     12  C   UNL     1      -0.302  10.503  21.733  0.00  0.00    +0.000 A 
ATOM     13  C   UNL     1       0.679   9.419  21.622  0.00  0.00    +0.000 C 
ATOM     14  O   UNL     1       1.196   8.809  22.536  0.00  0.00    +0.000 OA
ENDBRANCH   1   3
BRANCH   1  15
ATOM     15  C   UNL     1       2.282   5.935  19.902  0.00  0.00    +0.000 C 
ATOM     16  S   UNL     1       2.191   4.618  20.931  0.00  0.00    +0.000 S 
BRANCH  15  17
ATOM     17  N   UNL     1       2.310   5.712  18.549  0.00  0.00    +0.000 N 
ATOM     18  H   UNL     1       1.388   5.675  18.131  0.00  0.00    +0.000 HD
BRANCH  17  26
ATOM     19  C   UNL     1       4.204   7.550  17.335  0.00  0.00    +0.000 C 
ATOM     20  C   UNL     1       4.245   6.060  17.121  0.00  0.00    +0.000 A 
ATOM     21  C   UNL     1       5.291   5.567  16.309  0.00  0.00    +0.000 A 
ATOM     22  C   UNL     1       5.419   4.211  16.059  0.00  0.00    +0.000 A 
ATOM     23  C   UNL     1       4.497   3.329  16.598  0.00  0.00    +0.000 A 
ATOM     24  C   UNL     1       3.439   3.778  17.416  0.00  0.00    +0.000 A 
ATOM     25  C   UNL     1       2.416   2.734  17.768  0.00  0.00    +0.000 C 
ATOM     26  C   UNL     1       3.344   5.154  17.738  0.00  0.00    +0.000 A 
ENDBRANCH  17  26
ENDBRANCH  15  17
ENDBRANCH   1  15
TORSDOF 4
ENDMDL
MODEL 6
REMARK VINA RESULT:      -6.9      2.163      3.227
REMARK  Name = 
REMARK  6 active torsions:
REMARK  status: ('A' for Active; 'I' for Inactive)
REMARK    1  A    between atoms: C_1  and  C_2
REMARK    2  A    between atoms: C_6  and  C_7
REMARK    3  A    between atoms: C_8  and  N_9
REMARK    4  A    between atoms: N_9  and  C_10
REMARK    5  A    between atoms: C_10  and  N_12
REMARK    6  A    between atoms: N_12  and  C_13
REMARK                            x       y       z     vdW  Elec       q    Type
REMARK                         _______ _______ _______ _____ _____    ______ ____
ROOT
ATOM      1  N   UNL     1       2.241   7.685  19.328  0.00  0.00    +0.000 N 
ATOM      2  H   UNL     1       1.986   7.277  20.228  0.00  0.00    +0.000 HD
ENDROOT
BRANCH   1   3
ATOM      3  C   UNL     1       1.639   8.879  18.975  0.00  0.00    +0.000 C 
ATOM      4  C   UNL     1       0.879   9.585  19.817  0.00  0.00    +0.000 C 
ATOM      5  C   UNL     1      -0.022  10.694  19.407  0.00  0.00    +0.000 C 
ATOM      6  O   UNL     1      -0.201  11.143  18.296  0.00  0.00    +0.000 OA
ATOM      7  C   UNL     1      -0.720  11.094  20.639  0.00  0.00    +0.000 A 
ATOM      8  C   UNL     1      -1.706  12.053  20.796  0.00  0.00    +0.000 A 
ATOM      9  C   UNL     1      -2.215  12.253  22.085  0.00  0.00    +0.000 A 
ATOM     10  C   UNL     1      -1.738  11.501  23.177  0.00  0.00    +0.000 A 
ATOM     11  C   UNL     1      -0.756  10.523  22.999  0.00  0.00    +0.000 A 
ATOM     12  C   UNL     1      -0.271  10.332  21.717  0.00  0.00    +0.000 A 
ATOM     13  C   UNL     1       0.720   9.347  21.271  0.00  0.00    +0.000 C 
ATOM     14  O   UNL     1       1.280   8.518  21.957  0.00  0.00    +0.000 OA
ENDBRANCH   1   3
BRANCH   1  15
ATOM     15  C   UNL     1       3.106   6.933  18.568  0.00  0.00    +0.000 C 
ATOM     16  S   UNL     1       3.889   7.458  17.185  0.00  0.00    +0.000 S 
BRANCH  15  17
ATOM     17  N   UNL     1       3.412   5.692  19.067  0.00  0.00    +0.000 N 
ATOM     18  H   UNL     1       4.358   5.628  19.424  0.00  0.00    +0.000 HD
BRANCH  17  26
ATOM     19  C   UNL     1       1.324   4.834  20.895  0.00  0.00    +0.000 C 
ATOM     20  C   UNL     1       1.798   4.002  19.732  0.00  0.00    +0.000 A 
ATOM     21  C   UNL     1       1.148   2.764  19.536  0.00  0.00    +0.000 A 
ATOM     22  C   UNL     1       1.506   1.930  18.489  0.00  0.00    +0.000 A 
ATOM     23  C   UNL     1       2.529   2.310  17.636  0.00  0.00    +0.000 A 
ATOM     24  C   UNL     1       3.204   3.539  17.795  0.00  0.00    +0.000 A 
ATOM     25  C   UNL     1       4.409   3.725  16.915  0.00  0.00    +0.000 C 
ATOM     26  C   UNL     1       2.793   4.431  18.816  0.00  0.00    +0.000 A 
ENDBRANCH  17  26
ENDBRANCH  15  17
ENDBRANCH   1  15
TORSDOF 4
ENDMDL
MODEL 7
REMARK VINA RESULT:      -6.8      2.037      3.119
REMARK  Name = 
REMARK  6 active torsions:
REMARK  status: ('A' for Active; 'I' for Inactive)
REMARK    1  A    between atoms: C_1  and  C_2
REMARK    2  A    between atoms: C_6  and  C_7
REMARK    3  A    between atoms: C_8  and  N_9
REMARK    4  A    between atoms: N_9  and  C_10
REMARK    5  A    between atoms: C_10  and  N_12
REMARK    6  A    between atoms: N_12  and  C_13
REMARK                            x       y       z     vdW  Elec       q    Type
REMARK                         _______ _______ _______ _____ _____    ______ ____
ROOT
ATOM      1  N   UNL     1       2.307   7.479  19.210  0.00  0.00    +0.000 N 
ATOM      2  H   UNL     1       1.946   6.998  20.035  0.00  0.00    +0.000 HD
ENDROOT
BRANCH   1   3
ATOM      3  C   UNL     1       1.751   8.704  18.891  0.00  0.00    +0.000 C 
ATOM      4  C   UNL     1       1.012   9.412  19.751  0.00  0.00    +0.000 C 
ATOM      5  C   UNL     1       0.155  10.565  19.372  0.00  0.00    +0.000 C 
ATOM      6  O   UNL     1      -0.002  11.054  18.274  0.00  0.00    +0.000 OA
ATOM      7  C   UNL     1      -0.536  10.952  20.612  0.00  0.00    +0.000 A 
ATOM      8  C   UNL     1      -1.486  11.941  20.794  0.00  0.00    +0.000 A 
ATOM      9  C   UNL     1      -1.995  12.120  22.086  0.00  0.00    +0.000 A 
ATOM     10  C   UNL     1      -1.552  11.319  23.157  0.00  0.00    +0.000 A 
ATOM     11  C   UNL     1      -0.606  10.311  22.953  0.00  0.00    +0.000 A 
ATOM     12  C   UNL     1      -0.121  10.142  21.668  0.00  0.00    +0.000 A 
ATOM     13  C   UNL     1       0.836   9.136  21.196  0.00  0.00    +0.000 C 
ATOM     14  O   UNL     1       1.362   8.266  21.859  0.00  0.00    +0.000 OA
ENDBRANCH   1   3
BRANCH   1  15
ATOM     15  C   UNL     1       3.258   6.786  18.498  0.00  0.00    +0.000 C 
ATOM     16  S   UNL     1       4.086   7.368  17.165  0.00  0.00    +0.000 S 
BRANCH  15  17
ATOM     17  N   UNL     1       3.609   5.562  19.008  0.00  0.00    +0.000 N 
ATOM     18  H   UNL     1       4.598   5.487  19.220  0.00  0.00    +0.000 HD
BRANCH  17  26
ATOM     19  C   UNL     1       4.374   3.772  16.852  0.00  0.00    +0.000 C 
ATOM     20  C   UNL     1       3.286   3.454  17.844  0.00  0.00    +0.000 A 
ATOM     21  C   UNL     1       2.652   2.200  17.705  0.00  0.00    +0.000 A 
ATOM     22  C   UNL     1       1.645   1.811  18.573  0.00  0.00    +0.000 A 
ATOM     23  C   UNL     1       1.243   2.675  19.579  0.00  0.00    +0.000 A 
ATOM     24  C   UNL     1       1.851   3.936  19.755  0.00  0.00    +0.000 A 
ATOM     25  C   UNL     1       1.184   4.831  20.761  0.00  0.00    +0.000 C 
ATOM     26  C   UNL     1       2.932   4.309  18.920  0.00  0.00    +0.000 A 
ENDBRANCH  17  26
ENDBRANCH  15  17
ENDBRANCH   1  15
TORSDOF 4
ENDMDL
MODEL 8
REMARK VINA RESULT:      -6.8      2.776      6.564
REMARK  Name = 
REMARK  6 active torsions:
REMARK  status: ('A' for Active; 'I' for Inactive)
REMARK    1  A    between atoms: C_1  and  C_2
REMARK    2  A    between atoms: C_6  and  C_7
REMARK    3  A    between atoms: C_8  and  N_9
REMARK    4  A    between atoms: N_9  and  C_10
REMARK    5  A    between atoms: C_10  and  N_12
REMARK    6  A    between atoms: N_12  and  C_13
REMARK                            x       y       z     vdW  Elec       q    Type
REMARK                         _______ _______ _______ _____ _____    ______ ____
ROOT
ATOM      1  N   UNL     1       3.750   5.156  19.889  0.00  0.00    +0.000 N 
ATOM      2  H   UNL     1       3.845   4.202  20.239  0.00  0.00    +0.000 HD
ENDROOT
BRANCH   1   3
ATOM      3  C   UNL     1       4.856   5.727  19.286  0.00  0.00    +0.000 C 
ATOM      4  C   UNL     1       5.220   5.453  18.030  0.00  0.00    +0.000 C 
ATOM      5  C   UNL     1       6.543   5.796  17.446  0.00  0.00    +0.000 C 
ATOM      6  O   UNL     1       7.470   6.373  17.972  0.00  0.00    +0.000 OA
ATOM      7  C   UNL     1       6.526   5.214  16.094  0.00  0.00    +0.000 A 
ATOM      8  C   UNL     1       7.536   5.206  15.148  0.00  0.00    +0.000 A 
ATOM      9  C   UNL     1       7.270   4.585  13.922  0.00  0.00    +0.000 A 
ATOM     10  C   UNL     1       6.018   3.992  13.666  0.00  0.00    +0.000 A 
ATOM     11  C   UNL     1       5.014   3.991  14.639  0.00  0.00    +0.000 A 
ATOM     12  C   UNL     1       5.298   4.601  15.849  0.00  0.00    +0.000 A 
ATOM     13  C   UNL     1       4.435   4.692  17.031  0.00  0.00    +0.000 C 
ATOM     14  O   UNL     1       3.317   4.235  17.152  0.00  0.00    +0.000 OA
ENDBRANCH   1   3
BRANCH   1  15
ATOM     15  C   UNL     1       2.537   5.754  20.139  0.00  0.00    +0.000 C 
ATOM     16  S   UNL     1       1.075   4.954  20.293  0.00  0.00    +0.000 S 
BRANCH  15  17
ATOM     17  N   UNL     1       2.577   7.104  20.380  0.00  0.00    +0.000 N 
ATOM     18  H   UNL     1       2.994   7.337  21.274  0.00  0.00    +0.000 HD
BRANCH  17  26
ATOM     19  C   UNL     1       0.546   8.357  22.036  0.00  0.00    +0.000 C 
ATOM     20  C   UNL     1       0.796   8.742  20.601  0.00  0.00    +0.000 A 
ATOM     21  C   UNL     1       0.005   9.790  20.082  0.00  0.00    +0.000 A 
ATOM     22  C   UNL     1       0.165  10.222  18.775  0.00  0.00    +0.000 A 
ATOM     23  C   UNL     1       1.101   9.603  17.964  0.00  0.00    +0.000 A 
ATOM     24  C   UNL     1       1.913   8.554  18.443  0.00  0.00    +0.000 A 
ATOM     25  C   UNL     1       2.742   7.860  17.398  0.00  0.00    +0.000 C 
ATOM     26  C   UNL     1       1.810   8.157  19.798  0.00  0.00    +0.000 A 
ENDBRANCH  17  26
ENDBRANCH  15  17
ENDBRANCH   1  15
TORSDOF 4
ENDMDL
MODEL 9
REMARK VINA RESULT:      -6.8      2.190      3.526
REMARK  Name = 
REMARK  6 active torsions:
REMARK  status: ('A' for Active; 'I' for Inactive)
REMARK    1  A    between atoms: C_1  and  C_2
REMARK    2  A    between atoms: C_6  and  C_7
REMARK    3  A    between atoms: C_8  and  N_9
REMARK    4  A    between atoms: N_9  and  C_10
REMARK    5  A    between atoms: C_10  and  N_12
REMARK    6  A    between atoms: N_12  and  C_13
REMARK                            x       y       z     vdW  Elec       q    Type
REMARK                         _______ _______ _______ _____ _____    ______ ____
ROOT
ATOM      1  N   UNL     1       2.848   6.209  20.305  0.00  0.00    +0.000 N 
ATOM      2  H   UNL     1       2.983   6.513  21.270  0.00  0.00    +0.000 HD
ENDROOT
BRANCH   1   3
ATOM      3  C   UNL     1       2.687   7.189  19.344  0.00  0.00    +0.000 C 
ATOM      4  C   UNL     1       1.888   8.247  19.514  0.00  0.00    +0.000 C 
ATOM      5  C   UNL     1       1.450   9.153  18.420  0.00  0.00    +0.000 C 
ATOM      6  O   UNL     1       1.741   9.106  17.244  0.00  0.00    +0.000 OA
ATOM      7  C   UNL     1       0.512  10.093  19.055  0.00  0.00    +0.000 A 
ATOM      8  C   UNL     1      -0.218  11.110  18.464  0.00  0.00    +0.000 A 
ATOM      9  C   UNL     1      -1.046  11.877  19.292  0.00  0.00    +0.000 A 
ATOM     10  C   UNL     1      -1.130  11.618  20.675  0.00  0.00    +0.000 A 
ATOM     11  C   UNL     1      -0.400  10.575  21.253  0.00  0.00    +0.000 A 
ATOM     12  C   UNL     1       0.406   9.821  20.418  0.00  0.00    +0.000 A 
ATOM     13  C   UNL     1       1.226   8.659  20.774  0.00  0.00    +0.000 C 
ATOM     14  O   UNL     1       1.330   8.151  21.871  0.00  0.00    +0.000 OA
ENDBRANCH   1   3
BRANCH   1  15
ATOM     15  C   UNL     1       2.780   4.847  20.124  0.00  0.00    +0.000 C 
ATOM     16  S   UNL     1       1.425   3.900  20.386  0.00  0.00    +0.000 S 
BRANCH  15  17
ATOM     17  N   UNL     1       3.898   4.262  19.586  0.00  0.00    +0.000 N 
ATOM     18  H   UNL     1       4.465   3.779  20.272  0.00  0.00    +0.000 HD
BRANCH  17  26
ATOM     19  C   UNL     1       2.704   3.255  17.136  0.00  0.00    +0.000 C 
ATOM     20  C   UNL     1       4.002   4.018  17.170  0.00  0.00    +0.000 A 
ATOM     21  C   UNL     1       4.621   4.264  15.926  0.00  0.00    +0.000 A 
ATOM     22  C   UNL     1       5.815   4.965  15.851  0.00  0.00    +0.000 A 
ATOM     23  C   UNL     1       6.415   5.413  17.016  0.00  0.00    +0.000 A 
ATOM     24  C   UNL     1       5.828   5.191  18.279  0.00  0.00    +0.000 A 
ATOM     25  C   UNL     1       6.685   5.567  19.456  0.00  0.00    +0.000 C 
ATOM     26  C   UNL     1       4.572   4.542  18.359  0.00  0.00    +0.000 A 
ENDBRANCH  17  26
ENDBRANCH  15  17
ENDBRANCH   1  15
TORSDOF 4
ENDMDL
