MODEL 1
REMARK VINA RESULT:      -7.1      0.000      0.000
REMARK  Name = 
REMARK  6 active torsions:
REMARK  status: ('A' for Active; 'I' for Inactive)
REMARK    1  A    between atoms: C_1  and  C_2
REMARK    2  A    between atoms: C_2  and  C_3
REMARK    3  A    between atoms: C_3  and  O_4
REMARK    4  A    between atoms: O_4  and  C_5
REMARK    5  A    between atoms: N_11  and  N_12
REMARK    6  A    between atoms: C_17  and  C_18
REMARK                            x       y       z     vdW  Elec       q    Type
REMARK                         _______ _______ _______ _____ _____    ______ ____
ROOT
ATOM      1  C   UNL     1       5.041   5.863  16.869  0.00  0.00    +0.000 C 
ATOM      2  C   UNL     1       6.257   5.129  17.421  0.00  0.00    +0.000 C 
ATOM      3  N   UNL     1       6.329   4.699  18.653  0.00  0.00    +0.000 NA
ENDROOT
BRANCH   3   4
ATOM      4  N   UNL     1       5.192   5.046  19.393  0.00  0.00    +0.000 NA
ATOM      5  C   UNL     1       4.322   4.123  19.559  0.00  0.00    +0.000 C 
ATOM      6  N   UNL     1       4.369   2.845  19.108  0.00  0.00    +0.000 N 
ATOM      7  C   UNL     1       3.213   2.117  19.147  0.00  0.00    +0.000 C 
ATOM      8  O   UNL     1       3.070   1.046  18.578  0.00  0.00    +0.000 OA
ATOM      9  C   UNL     1       2.126   2.821  19.952  0.00  0.00    +0.000 C 
ATOM     10  C   UNL     1       0.846   3.053  19.167  0.00  0.00    +0.000 C 
ATOM     11  S   UNL     1       2.844   4.425  20.426  0.00  0.00    +0.000 S 
ATOM     12  H   UNL     1       5.175   2.537  18.587  0.00  0.00    +0.000 HD
ENDBRANCH   3   4
BRANCH   2  13
ATOM     13  C   UNL     1       7.431   4.867  16.474  0.00  0.00    +0.000 C 
BRANCH  13  14
ATOM     14  O   UNL     1       7.351   5.680  15.308  0.00  0.00    +0.000 OA
BRANCH  14  15
ATOM     15  C   UNL     1       7.119   5.020  14.128  0.00  0.00    +0.000 A 
ATOM     16  C   UNL     1       6.104   4.059  14.167  0.00  0.00    +0.000 A 
ATOM     17  C   UNL     1       5.798   3.293  13.038  0.00  0.00    +0.000 A 
ATOM     18  C   UNL     1       6.493   3.503  11.849  0.00  0.00    +0.000 A 
ATOM     19  C   UNL     1       7.498   4.467  11.794  0.00  0.00    +0.000 A 
ATOM     20  C   UNL     1       7.813   5.225  12.930  0.00  0.00    +0.000 A 
ENDBRANCH  14  15
ENDBRANCH  13  14
ENDBRANCH   2  13
TORSDOF 4
ENDMDL
MODEL 2
REMARK VINA RESULT:      -7.0      4.088      6.718
REMARK  Name = 
REMARK  6 active torsions:
REMARK  status: ('A' for Active; 'I' for Inactive)
REMARK    1  A    between atoms: C_1  and  C_2
REMARK    2  A    between atoms: C_2  and  C_3
REMARK    3  A    between atoms: C_3  and  O_4
REMARK    4  A    between atoms: O_4  and  C_5
REMARK    5  A    between atoms: N_11  and  N_12
REMARK    6  A    between atoms: C_17  and  C_18
REMARK                            x       y       z     vdW  Elec       q    Type
REMARK                         _______ _______ _______ _____ _____    ______ ____
ROOT
ATOM      1  C   UNL     1       4.873   6.395  16.410  0.00  0.00    +0.000 C 
ATOM      2  C   UNL     1       4.280   5.741  17.651  0.00  0.00    +0.000 C 
ATOM      3  N   UNL     1       3.295   6.266  18.331  0.00  0.00    +0.000 NA
ENDROOT
BRANCH   3   4
ATOM      4  N   UNL     1       2.908   7.507  17.809  0.00  0.00    +0.000 NA
ATOM      5  C   UNL     1       2.262   8.277  18.602  0.00  0.00    +0.000 C 
ATOM      6  N   UNL     1       1.909   8.037  19.888  0.00  0.00    +0.000 N 
ATOM      7  C   UNL     1       0.978   8.863  20.453  0.00  0.00    +0.000 C 
ATOM      8  O   UNL     1       0.420   8.627  21.514  0.00  0.00    +0.000 OA
ATOM      9  C   UNL     1       0.701  10.085  19.583  0.00  0.00    +0.000 C 
ATOM     10  C   UNL     1      -0.763  10.241  19.208  0.00  0.00    +0.000 C 
ATOM     11  S   UNL     1       1.688   9.833  18.075  0.00  0.00    +0.000 S 
ATOM     12  H   UNL     1       2.180   7.168  20.320  0.00  0.00    +0.000 HD
ENDBRANCH   3   4
BRANCH   2  13
ATOM     13  C   UNL     1       4.855   4.395  18.100  0.00  0.00    +0.000 C 
BRANCH  13  14
ATOM     14  O   UNL     1       3.920   3.339  17.909  0.00  0.00    +0.000 OA
BRANCH  14  15
ATOM     15  C   UNL     1       2.985   3.175  18.899  0.00  0.00    +0.000 A 
ATOM     16  C   UNL     1       3.499   2.992  20.186  0.00  0.00    +0.000 A 
ATOM     17  C   UNL     1       2.649   2.776  21.274  0.00  0.00    +0.000 A 
ATOM     18  C   UNL     1       1.269   2.767  21.085  0.00  0.00    +0.000 A 
ATOM     19  C   UNL     1       0.744   2.962  19.808  0.00  0.00    +0.000 A 
ATOM     20  C   UNL     1       1.597   3.165  18.716  0.00  0.00    +0.000 A 
ENDBRANCH  14  15
ENDBRANCH  13  14
ENDBRANCH   2  13
TORSDOF 4
ENDMDL
MODEL 3
REMARK VINA RESULT:      -7.0      0.245      1.124
REMARK  Name = 
REMARK  6 active torsions:
REMARK  status: ('A' for Active; 'I' for Inactive)
REMARK    1  A    between atoms: C_1  and  C_2
REMARK    2  A    between atoms: C_2  and  C_3
REMARK    3  A    between atoms: C_3  and  O_4
REMARK    4  A    between atoms: O_4  and  C_5
REMARK    5  A    between atoms: N_11  and  N_12
REMARK    6  A    between atoms: C_17  and  C_18
REMARK                            x       y       z     vdW  Elec       q    Type
REMARK                         _______ _______ _______ _____ _____    ______ ____
ROOT
ATOM      1  C   UNL     1       4.922   5.484  16.752  0.00  0.00    +0.000 C 
ATOM      2  C   UNL     1       6.213   4.999  17.399  0.00  0.00    +0.000 C 
ATOM      3  N   UNL     1       6.316   4.741  18.675  0.00  0.00    +0.000 NA
ENDROOT
BRANCH   3   4
ATOM      4  N   UNL     1       5.126   5.018  19.359  0.00  0.00    +0.000 NA
ATOM      5  C   UNL     1       4.315   4.038  19.504  0.00  0.00    +0.000 C 
ATOM      6  N   UNL     1       4.470   2.762  19.078  0.00  0.00    +0.000 N 
ATOM      7  C   UNL     1       3.366   1.955  19.079  0.00  0.00    +0.000 C 
ATOM      8  O   UNL     1       3.323   0.869  18.523  0.00  0.00    +0.000 OA
ATOM      9  C   UNL     1       2.199   2.593  19.825  0.00  0.00    +0.000 C 
ATOM     10  C   UNL     1       0.942   2.724  18.981  0.00  0.00    +0.000 C 
ATOM     11  S   UNL     1       2.783   4.250  20.301  0.00  0.00    +0.000 S 
ATOM     12  H   UNL     1       5.317   2.502  18.598  0.00  0.00    +0.000 HD
ENDBRANCH   3   4
BRANCH   2  13
ATOM     13  C   UNL     1       7.433   4.784  16.498  0.00  0.00    +0.000 C 
BRANCH  13  14
ATOM     14  O   UNL     1       7.352   5.571  15.315  0.00  0.00    +0.000 OA
BRANCH  14  15
ATOM     15  C   UNL     1       7.099   4.889  14.153  0.00  0.00    +0.000 A 
ATOM     16  C   UNL     1       7.807   5.331  13.031  0.00  0.00    +0.000 A 
ATOM     17  C   UNL     1       7.608   4.741  11.779  0.00  0.00    +0.000 A 
ATOM     18  C   UNL     1       6.713   3.683  11.646  0.00  0.00    +0.000 A 
ATOM     19  C   UNL     1       6.011   3.225  12.760  0.00  0.00    +0.000 A 
ATOM     20  C   UNL     1       6.201   3.825  14.011  0.00  0.00    +0.000 A 
ENDBRANCH  14  15
ENDBRANCH  13  14
ENDBRANCH   2  13
TORSDOF 4
ENDMDL
MODEL 4
REMARK VINA RESULT:      -7.0      5.357      6.890
REMARK  Name = 
REMARK  6 active torsions:
REMARK  status: ('A' for Active; 'I' for Inactive)
REMARK    1  A    between atoms: C_1  and  C_2
REMARK    2  A    between atoms: C_2  and  C_3
REMARK    3  A    between atoms: C_3  and  O_4
REMARK    4  A    between atoms: O_4  and  C_5
REMARK    5  A    between atoms: N_11  and  N_12
REMARK    6  A    between atoms: C_17  and  C_18
REMARK                            x       y       z     vdW  Elec       q    Type
REMARK                         _______ _______ _______ _____ _____    ______ ____
ROOT
ATOM      1  C   UNL     1       8.113   6.693  18.666  0.00  0.00    +0.000 C 
ATOM      2  C   UNL     1       7.635   7.781  17.712  0.00  0.00    +0.000 C 
ATOM      3  N   UNL     1       6.801   7.553  16.733  0.00  0.00    +0.000 NA
ENDROOT
BRANCH   3   4
ATOM      4  N   UNL     1       6.459   6.197  16.646  0.00  0.00    +0.000 NA
ATOM      5  C   UNL     1       5.256   5.896  16.962  0.00  0.00    +0.000 C 
ATOM      6  N   UNL     1       4.269   6.732  17.366  0.00  0.00    +0.000 N 
ATOM      7  C   UNL     1       3.156   6.171  17.928  0.00  0.00    +0.000 C 
ATOM      8  O   UNL     1       2.304   6.812  18.524  0.00  0.00    +0.000 OA
ATOM      9  C   UNL     1       3.132   4.657  17.749  0.00  0.00    +0.000 C 
ATOM     10  C   UNL     1       3.026   3.894  19.059  0.00  0.00    +0.000 C 
ATOM     11  S   UNL     1       4.706   4.245  16.935  0.00  0.00    +0.000 S 
ATOM     12  H   UNL     1       4.454   7.720  17.427  0.00  0.00    +0.000 HD
ENDBRANCH   3   4
BRANCH   2  13
ATOM     13  C   UNL     1       8.143   9.208  17.936  0.00  0.00    +0.000 C 
BRANCH  13  14
ATOM     14  O   UNL     1       8.983   9.288  19.082  0.00  0.00    +0.000 OA
BRANCH  14  15
ATOM     15  C   UNL     1       9.573  10.505  19.314  0.00  0.00    +0.000 A 
ATOM     16  C   UNL     1       9.500  10.965  20.633  0.00  0.00    +0.000 A 
ATOM     17  C   UNL     1      10.030  12.209  20.988  0.00  0.00    +0.000 A 
ATOM     18  C   UNL     1      10.663  12.993  20.027  0.00  0.00    +0.000 A 
ATOM     19  C   UNL     1      10.754  12.538  18.712  0.00  0.00    +0.000 A 
ATOM     20  C   UNL     1      10.211  11.298  18.354  0.00  0.00    +0.000 A 
ENDBRANCH  14  15
ENDBRANCH  13  14
ENDBRANCH   2  13
TORSDOF 4
ENDMDL
MODEL 5
REMARK VINA RESULT:      -7.0      4.004      6.727
REMARK  Name = 
REMARK  6 active torsions:
REMARK  status: ('A' for Active; 'I' for Inactive)
REMARK    1  A    between atoms: C_1  and  C_2
REMARK    2  A    between atoms: C_2  and  C_3
REMARK    3  A    between atoms: C_3  and  O_4
REMARK    4  A    between atoms: O_4  and  C_5
REMARK    5  A    between atoms: N_11  and  N_12
REMARK    6  A    between atoms: C_17  and  C_18
REMARK                            x       y       z     vdW  Elec       q    Type
REMARK                         _______ _______ _______ _____ _____    ______ ____
ROOT
ATOM      1  C   UNL     1       4.847   6.036  16.312  0.00  0.00    +0.000 C 
ATOM      2  C   UNL     1       4.363   5.533  17.666  0.00  0.00    +0.000 C 
ATOM      3  N   UNL     1       3.502   6.184  18.401  0.00  0.00    +0.000 NA
ENDROOT
BRANCH   3   4
ATOM      4  N   UNL     1       3.137   7.403  17.817  0.00  0.00    +0.000 NA
ATOM      5  C   UNL     1       2.434   8.190  18.542  0.00  0.00    +0.000 C 
ATOM      6  N   UNL     1       2.003   7.987  19.811  0.00  0.00    +0.000 N 
ATOM      7  C   UNL     1       1.030   8.820  20.289  0.00  0.00    +0.000 C 
ATOM      8  O   UNL     1       0.409   8.611  21.320  0.00  0.00    +0.000 OA
ATOM      9  C   UNL     1       0.797  10.010  19.364  0.00  0.00    +0.000 C 
ATOM     10  C   UNL     1      -0.642  10.137  18.893  0.00  0.00    +0.000 C 
ATOM     11  S   UNL     1       1.880   9.721  17.930  0.00  0.00    +0.000 S 
ATOM     12  H   UNL     1       2.254   7.135  20.286  0.00  0.00    +0.000 HD
ENDBRANCH   3   4
BRANCH   2  13
ATOM     13  C   UNL     1       4.899   4.189  18.167  0.00  0.00    +0.000 C 
BRANCH  13  14
ATOM     14  O   UNL     1       3.916   3.165  18.065  0.00  0.00    +0.000 OA
BRANCH  14  15
ATOM     15  C   UNL     1       3.092   3.009  19.150  0.00  0.00    +0.000 A 
ATOM     16  C   UNL     1       1.725   3.144  18.890  0.00  0.00    +0.000 A 
ATOM     17  C   UNL     1       0.785   3.044  19.920  0.00  0.00    +0.000 A 
ATOM     18  C   UNL     1       1.208   2.782  21.221  0.00  0.00    +0.000 A 
ATOM     19  C   UNL     1       2.568   2.632  21.491  0.00  0.00    +0.000 A 
ATOM     20  C   UNL     1       3.510   2.745  20.459  0.00  0.00    +0.000 A 
ENDBRANCH  14  15
ENDBRANCH  13  14
ENDBRANCH   2  13
TORSDOF 4
ENDMDL
MODEL 6
REMARK VINA RESULT:      -7.0      5.091      7.799
REMARK  Name = 
REMARK  6 active torsions:
REMARK  status: ('A' for Active; 'I' for Inactive)
REMARK    1  A    between atoms: C_1  and  C_2
REMARK    2  A    between atoms: C_2  and  C_3
REMARK    3  A    between atoms: C_3  and  O_4
REMARK    4  A    between atoms: O_4  and  C_5
REMARK    5  A    between atoms: N_11  and  N_12
REMARK    6  A    between atoms: C_17  and  C_18
REMARK                            x       y       z     vdW  Elec       q    Type
REMARK                         _______ _______ _______ _____ _____    ______ ____
ROOT
ATOM      1  C   UNL     1       7.750   6.112  18.742  0.00  0.00    +0.000 C 
ATOM      2  C   UNL     1       7.264   6.956  17.569  0.00  0.00    +0.000 C 
ATOM      3  N   UNL     1       7.659   8.184  17.365  0.00  0.00    +0.000 NA
ENDROOT
BRANCH   3   4
ATOM      4  N   UNL     1       8.521   8.628  18.375  0.00  0.00    +0.000 NA
ATOM      5  C   UNL     1       8.662   9.895  18.483  0.00  0.00    +0.000 C 
ATOM      6  N   UNL     1       8.074  10.863  17.738  0.00  0.00    +0.000 N 
ATOM      7  C   UNL     1       8.583  12.128  17.828  0.00  0.00    +0.000 C 
ATOM      8  O   UNL     1       8.291  13.030  17.057  0.00  0.00    +0.000 OA
ATOM      9  C   UNL     1       9.578  12.259  18.976  0.00  0.00    +0.000 C 
ATOM     10  C   UNL     1      10.947  12.751  18.538  0.00  0.00    +0.000 C 
ATOM     11  S   UNL     1       9.731  10.584  19.671  0.00  0.00    +0.000 S 
ATOM     12  H   UNL     1       7.428  10.600  17.010  0.00  0.00    +0.000 HD
ENDBRANCH   3   4
BRANCH   2  13
ATOM     13  C   UNL     1       6.289   6.315  16.577  0.00  0.00    +0.000 C 
BRANCH  13  14
ATOM     14  O   UNL     1       5.864   5.031  17.020  0.00  0.00    +0.000 OA
BRANCH  14  15
ATOM     15  C   UNL     1       4.532   4.908  17.325  0.00  0.00    +0.000 A 
ATOM     16  C   UNL     1       3.970   3.655  17.063  0.00  0.00    +0.000 A 
ATOM     17  C   UNL     1       2.612   3.416  17.296  0.00  0.00    +0.000 A 
ATOM     18  C   UNL     1       1.809   4.427  17.818  0.00  0.00    +0.000 A 
ATOM     19  C   UNL     1       2.361   5.676  18.095  0.00  0.00    +0.000 A 
ATOM     20  C   UNL     1       3.719   5.920  17.849  0.00  0.00    +0.000 A 
ENDBRANCH  14  15
ENDBRANCH  13  14
ENDBRANCH   2  13
TORSDOF 4
ENDMDL
MODEL 7
REMARK VINA RESULT:      -6.9      1.415      1.894
REMARK  Name = 
REMARK  6 active torsions:
REMARK  status: ('A' for Active; 'I' for Inactive)
REMARK    1  A    between atoms: C_1  and  C_2
REMARK    2  A    between atoms: C_2  and  C_3
REMARK    3  A    between atoms: C_3  and  O_4
REMARK    4  A    between atoms: O_4  and  C_5
REMARK    5  A    between atoms: N_11  and  N_12
REMARK    6  A    between atoms: C_17  and  C_18
REMARK                            x       y       z     vdW  Elec       q    Type
REMARK                         _______ _______ _______ _____ _____    ______ ____
ROOT
ATOM      1  C   UNL     1       6.424   5.780  19.133  0.00  0.00    +0.000 C 
ATOM      2  C   UNL     1       6.466   4.963  17.847  0.00  0.00    +0.000 C 
ATOM      3  N   UNL     1       5.888   3.798  17.725  0.00  0.00    +0.000 NA
ENDROOT
BRANCH   3   4
ATOM      4  N   UNL     1       5.289   3.387  18.922  0.00  0.00    +0.000 NA
ATOM      5  C   UNL     1       4.015   3.261  18.904  0.00  0.00    +0.000 C 
ATOM      6  N   UNL     1       3.175   3.474  17.862  0.00  0.00    +0.000 N 
ATOM      7  C   UNL     1       1.838   3.564  18.136  0.00  0.00    +0.000 C 
ATOM      8  O   UNL     1       1.010   3.966  17.334  0.00  0.00    +0.000 OA
ATOM      9  C   UNL     1       1.522   3.138  19.566  0.00  0.00    +0.000 C 
ATOM     10  C   UNL     1       0.801   4.206  20.370  0.00  0.00    +0.000 C 
ATOM     11  S   UNL     1       3.137   2.793  20.331  0.00  0.00    +0.000 S 
ATOM     12  H   UNL     1       3.554   3.752  16.971  0.00  0.00    +0.000 HD
ENDBRANCH   3   4
BRANCH   2  13
ATOM     13  C   UNL     1       7.201   5.556  16.642  0.00  0.00    +0.000 C 
BRANCH  13  14
ATOM     14  O   UNL     1       6.301   5.871  15.585  0.00  0.00    +0.000 OA
BRANCH  14  15
ATOM     15  C   UNL     1       6.410   5.106  14.452  0.00  0.00    +0.000 A 
ATOM     16  C   UNL     1       7.478   5.430  13.609  0.00  0.00    +0.000 A 
ATOM     17  C   UNL     1       7.674   4.748  12.405  0.00  0.00    +0.000 A 
ATOM     18  C   UNL     1       6.812   3.715  12.045  0.00  0.00    +0.000 A 
ATOM     19  C   UNL     1       5.751   3.373  12.883  0.00  0.00    +0.000 A 
ATOM     20  C   UNL     1       5.548   4.067  14.084  0.00  0.00    +0.000 A 
ENDBRANCH  14  15
ENDBRANCH  13  14
ENDBRANCH   2  13
TORSDOF 4
ENDMDL
MODEL 8
REMARK VINA RESULT:      -6.9      1.739      2.059
REMARK  Name = 
REMARK  6 active torsions:
REMARK  status: ('A' for Active; 'I' for Inactive)
REMARK    1  A    between atoms: C_1  and  C_2
REMARK    2  A    between atoms: C_2  and  C_3
REMARK    3  A    between atoms: C_3  and  O_4
REMARK    4  A    between atoms: O_4  and  C_5
REMARK    5  A    between atoms: N_11  and  N_12
REMARK    6  A    between atoms: C_17  and  C_18
REMARK                            x       y       z     vdW  Elec       q    Type
REMARK                         _______ _______ _______ _____ _____    ______ ____
ROOT
ATOM      1  C   UNL     1       5.391   6.341  15.753  0.00  0.00    +0.000 C 
ATOM      2  C   UNL     1       5.751   4.868  15.603  0.00  0.00    +0.000 C 
ATOM      3  N   UNL     1       5.049   3.906  16.139  0.00  0.00    +0.000 NA
ENDROOT
BRANCH   3   4
ATOM      4  N   UNL     1       3.982   4.401  16.897  0.00  0.00    +0.000 NA
ATOM      5  C   UNL     1       3.914   3.997  18.110  0.00  0.00    +0.000 C 
ATOM      6  N   UNL     1       4.754   3.149  18.751  0.00  0.00    +0.000 N 
ATOM      7  C   UNL     1       4.337   2.628  19.944  0.00  0.00    +0.000 C 
ATOM      8  O   UNL     1       4.895   1.698  20.506  0.00  0.00    +0.000 OA
ATOM      9  C   UNL     1       3.081   3.322  20.459  0.00  0.00    +0.000 C 
ATOM     10  C   UNL     1       1.924   2.371  20.712  0.00  0.00    +0.000 C 
ATOM     11  S   UNL     1       2.618   4.504  19.155  0.00  0.00    +0.000 S 
ATOM     12  H   UNL     1       5.551   2.779  18.259  0.00  0.00    +0.000 HD
ENDBRANCH   3   4
BRANCH   2  13
ATOM     13  C   UNL     1       6.981   4.511  14.763  0.00  0.00    +0.000 C 
BRANCH  13  14
ATOM     14  O   UNL     1       6.781   4.822  13.388  0.00  0.00    +0.000 OA
BRANCH  14  15
ATOM     15  C   UNL     1       6.549   3.757  12.556  0.00  0.00    +0.000 A 
ATOM     16  C   UNL     1       5.203   3.446  12.340  0.00  0.00    +0.000 A 
ATOM     17  C   UNL     1       4.837   2.359  11.541  0.00  0.00    +0.000 A 
ATOM     18  C   UNL     1       5.821   1.587  10.928  0.00  0.00    +0.000 A 
ATOM     19  C   UNL     1       7.167   1.896  11.124  0.00  0.00    +0.000 A 
ATOM     20  C   UNL     1       7.532   2.978  11.937  0.00  0.00    +0.000 A 
ENDBRANCH  14  15
ENDBRANCH  13  14
ENDBRANCH   2  13
TORSDOF 4
ENDMDL
MODEL 9
REMARK VINA RESULT:      -6.8      5.240      8.776
REMARK  Name = 
REMARK  6 active torsions:
REMARK  status: ('A' for Active; 'I' for Inactive)
REMARK    1  A    between atoms: C_1  and  C_2
REMARK    2  A    between atoms: C_2  and  C_3
REMARK    3  A    between atoms: C_3  and  O_4
REMARK    4  A    between atoms: O_4  and  C_5
REMARK    5  A    between atoms: N_11  and  N_12
REMARK    6  A    between atoms: C_17  and  C_18
REMARK                            x       y       z     vdW  Elec       q    Type
REMARK                         _______ _______ _______ _____ _____    ______ ____
ROOT
ATOM      1  C   UNL     1       1.939   5.336  20.554  0.00  0.00    +0.000 C 
ATOM      2  C   UNL     1       2.176   6.637  19.798  0.00  0.00    +0.000 C 
ATOM      3  N   UNL     1       2.643   6.676  18.579  0.00  0.00    +0.000 NA
ENDROOT
BRANCH   3   4
ATOM      4  N   UNL     1       2.941   5.397  18.095  0.00  0.00    +0.000 NA
ATOM      5  C   UNL     1       4.115   5.234  17.612  0.00  0.00    +0.000 C 
ATOM      6  N   UNL     1       5.108   6.151  17.516  0.00  0.00    +0.000 N 
ATOM      7  C   UNL     1       6.171   5.851  16.710  0.00  0.00    +0.000 C 
ATOM      8  O   UNL     1       7.012   6.668  16.369  0.00  0.00    +0.000 OA
ATOM      9  C   UNL     1       6.152   4.392  16.266  0.00  0.00    +0.000 C 
ATOM     10  C   UNL     1       6.163   4.218  14.757  0.00  0.00    +0.000 C 
ATOM     11  S   UNL     1       4.608   3.705  16.943  0.00  0.00    +0.000 S 
ATOM     12  H   UNL     1       4.954   7.083  17.868  0.00  0.00    +0.000 HD
ENDBRANCH   3   4
BRANCH   2  13
ATOM     13  C   UNL     1       1.825   7.951  20.501  0.00  0.00    +0.000 C 
BRANCH  13  14
ATOM     14  O   UNL     1       0.628   7.832  21.262  0.00  0.00    +0.000 OA
BRANCH  14  15
ATOM     15  C   UNL     1       0.012   9.008  21.607  0.00  0.00    +0.000 A 
ATOM     16  C   UNL     1      -0.206   9.902  20.553  0.00  0.00    +0.000 A 
ATOM     17  C   UNL     1      -0.792  11.150  20.782  0.00  0.00    +0.000 A 
ATOM     18  C   UNL     1      -1.190  11.504  22.069  0.00  0.00    +0.000 A 
ATOM     19  C   UNL     1      -0.990  10.616  23.125  0.00  0.00    +0.000 A 
ATOM     20  C   UNL     1      -0.390   9.370  22.897  0.00  0.00    +0.000 A 
ENDBRANCH  14  15
ENDBRANCH  13  14
ENDBRANCH   2  13
TORSDOF 4
ENDMDL
