MODEL 1
REMARK VINA RESULT:      -8.2      0.000      0.000
REMARK  Name = 
REMARK  4 active torsions:
REMARK  status: ('A' for Active; 'I' for Inactive)
REMARK    1  A    between atoms: C_2  and  C_13
REMARK    2  A    between atoms: N_3  and  C_4
REMARK    3  A    between atoms: C_4  and  C_5
REMARK    4  A    between atoms: C_5  and  C_6
REMARK                            x       y       z     vdW  Elec       q    Type
REMARK                         _______ _______ _______ _____ _____    ______ ____
ROOT
ATOM      1  O   UNL     1       6.368   4.320  18.658  0.00  0.00    +0.000 OA
ATOM      2  C   UNL     1       5.647   4.767  17.766  0.00  0.00    +0.000 C 
ATOM      3  N   UNL     1       4.475   5.441  18.028  0.00  0.00    +0.000 N 
ATOM      4  H   UNL     1       3.950   5.779  17.227  0.00  0.00    +0.000 HD
ENDROOT
BRANCH   2   5
ATOM      5  C   UNL     1       5.980   4.598  16.344  0.00  0.00    +0.000 A 
ATOM      6  C   UNL     1       7.054   5.252  15.690  0.00  0.00    +0.000 A 
ATOM      7  C   UNL     1       6.999   4.846  14.378  0.00  0.00    +0.000 A 
ATOM      8  N   UNL     1       5.942   3.998  14.306  0.00  0.00    +0.000 N 
ATOM      9  N   UNL     1       5.304   3.803  15.483  0.00  0.00    +0.000 NA
ATOM     10  C   UNL     1       5.481   3.354  13.100  0.00  0.00    +0.000 C 
ATOM     11  C   UNL     1       6.290   3.668  11.837  0.00  0.00    +0.000 C 
ATOM     12  C   UNL     1       7.518   4.576  11.936  0.00  0.00    +0.000 C 
ATOM     13  C   UNL     1       7.833   5.207  13.273  0.00  0.00    +0.000 C 
ATOM     14  O   UNL     1       8.778   5.985  13.376  0.00  0.00    +0.000 OA
ENDBRANCH   2   5
BRANCH   3  15
ATOM     15  C   UNL     1       4.016   5.642  19.384  0.00  0.00    +0.000 C 
BRANCH  15  16
ATOM     16  C   UNL     1       2.488   5.722  19.496  0.00  0.00    +0.000 C 
BRANCH  16  17
ATOM     17  C   UNL     1       1.766   4.388  19.226  0.00  0.00    +0.000 C 
ATOM     18  C   UNL     1       2.719   3.188  19.113  0.00  0.00    +0.000 C 
ATOM     19  C   UNL     1       2.685   2.453  20.455  0.00  0.00    +0.000 C 
ATOM     20  C   UNL     1       1.725   3.234  21.328  0.00  0.00    +0.000 C 
ATOM     21  F   UNL     1       1.025   2.424  22.145  0.00  0.00    +0.000 F 
ATOM     22  F   UNL     1       2.408   4.102  22.107  0.00  0.00    +0.000 F 
ATOM     23  C   UNL     1       0.825   3.984  20.368  0.00  0.00    +0.000 C 
ENDBRANCH  16  17
ENDBRANCH  15  16
ENDBRANCH   3  15
TORSDOF 4
ENDMDL
MODEL 2
REMARK VINA RESULT:      -8.1      1.441      1.694
REMARK  Name = 
REMARK  4 active torsions:
REMARK  status: ('A' for Active; 'I' for Inactive)
REMARK    1  A    between atoms: C_2  and  C_13
REMARK    2  A    between atoms: N_3  and  C_4
REMARK    3  A    between atoms: C_4  and  C_5
REMARK    4  A    between atoms: C_5  and  C_6
REMARK                            x       y       z     vdW  Elec       q    Type
REMARK                         _______ _______ _______ _____ _____    ______ ____
ROOT
ATOM      1  O   UNL     1       6.123   4.938  18.710  0.00  0.00    +0.000 OA
ATOM      2  C   UNL     1       5.395   5.223  17.760  0.00  0.00    +0.000 C 
ATOM      3  N   UNL     1       4.172   5.836  17.920  0.00  0.00    +0.000 N 
ATOM      4  H   UNL     1       3.646   6.038  17.075  0.00  0.00    +0.000 HD
ENDROOT
BRANCH   2   5
ATOM      5  C   UNL     1       5.775   4.913  16.373  0.00  0.00    +0.000 A 
ATOM      6  C   UNL     1       6.892   5.473  15.705  0.00  0.00    +0.000 A 
ATOM      7  C   UNL     1       6.874   4.948  14.435  0.00  0.00    +0.000 A 
ATOM      8  N   UNL     1       5.794   4.127  14.400  0.00  0.00    +0.000 N 
ATOM      9  N   UNL     1       5.107   4.060  15.564  0.00  0.00    +0.000 NA
ATOM     10  C   UNL     1       5.358   3.386  13.241  0.00  0.00    +0.000 C 
ATOM     11  C   UNL     1       6.223   3.558  11.988  0.00  0.00    +0.000 C 
ATOM     12  C   UNL     1       7.474   4.437  12.051  0.00  0.00    +0.000 C 
ATOM     13  C   UNL     1       7.759   5.181  13.335  0.00  0.00    +0.000 C 
ATOM     14  O   UNL     1       8.723   5.940  13.404  0.00  0.00    +0.000 OA
ENDBRANCH   2   5
BRANCH   3  15
ATOM     15  C   UNL     1       3.666   6.160  19.234  0.00  0.00    +0.000 C 
BRANCH  15  16
ATOM     16  C   UNL     1       2.233   5.663  19.466  0.00  0.00    +0.000 C 
BRANCH  16  17
ATOM     17  C   UNL     1       2.139   4.405  20.350  0.00  0.00    +0.000 C 
ATOM     18  C   UNL     1       0.792   3.675  20.232  0.00  0.00    +0.000 C 
ATOM     19  C   UNL     1       0.999   2.487  19.289  0.00  0.00    +0.000 C 
ATOM     20  C   UNL     1       2.453   2.546  18.867  0.00  0.00    +0.000 C 
ATOM     21  F   UNL     1       2.976   1.315  18.713  0.00  0.00    +0.000 F 
ATOM     22  F   UNL     1       2.566   3.184  17.681  0.00  0.00    +0.000 F 
ATOM     23  C   UNL     1       3.158   3.328  19.955  0.00  0.00    +0.000 C 
ENDBRANCH  16  17
ENDBRANCH  15  16
ENDBRANCH   3  15
TORSDOF 4
ENDMDL
MODEL 3
REMARK VINA RESULT:      -8.0      4.818      8.389
REMARK  Name = 
REMARK  4 active torsions:
REMARK  status: ('A' for Active; 'I' for Inactive)
REMARK    1  A    between atoms: C_2  and  C_13
REMARK    2  A    between atoms: N_3  and  C_4
REMARK    3  A    between atoms: C_4  and  C_5
REMARK    4  A    between atoms: C_5  and  C_6
REMARK                            x       y       z     vdW  Elec       q    Type
REMARK                         _______ _______ _______ _____ _____    ______ ____
ROOT
ATOM      1  O   UNL     1       2.152   8.486  17.553  0.00  0.00    +0.000 OA
ATOM      2  C   UNL     1       1.938   8.181  18.725  0.00  0.00    +0.000 C 
ATOM      3  N   UNL     1       2.398   7.008  19.282  0.00  0.00    +0.000 N 
ATOM      4  H   UNL     1       2.176   6.845  20.259  0.00  0.00    +0.000 HD
ENDROOT
BRANCH   2   5
ATOM      5  C   UNL     1       1.155   9.046  19.620  0.00  0.00    +0.000 A 
ATOM      6  C   UNL     1       1.121   8.916  21.031  0.00  0.00    +0.000 A 
ATOM      7  C   UNL     1       0.260   9.889  21.478  0.00  0.00    +0.000 A 
ATOM      8  N   UNL     1      -0.164  10.537  20.363  0.00  0.00    +0.000 N 
ATOM      9  N   UNL     1       0.371  10.069  19.211  0.00  0.00    +0.000 NA
ATOM     10  C   UNL     1      -1.118  11.618  20.349  0.00  0.00    +0.000 C 
ATOM     11  C   UNL     1      -1.649  12.044  21.722  0.00  0.00    +0.000 C 
ATOM     12  C   UNL     1      -1.121  11.352  22.981  0.00  0.00    +0.000 C 
ATOM     13  C   UNL     1      -0.156  10.202  22.811  0.00  0.00    +0.000 C 
ATOM     14  O   UNL     1       0.245   9.586  23.797  0.00  0.00    +0.000 OA
ENDBRANCH   2   5
BRANCH   3  15
ATOM     15  C   UNL     1       3.148   6.053  18.498  0.00  0.00    +0.000 C 
BRANCH  15  16
ATOM     16  C   UNL     1       2.270   4.955  17.884  0.00  0.00    +0.000 C 
BRANCH  16  17
ATOM     17  C   UNL     1       2.517   3.551  18.468  0.00  0.00    +0.000 C 
ATOM     18  C   UNL     1       3.549   3.535  19.607  0.00  0.00    +0.000 C 
ATOM     19  C   UNL     1       2.771   3.488  20.924  0.00  0.00    +0.000 C 
ATOM     20  C   UNL     1       1.307   3.486  20.538  0.00  0.00    +0.000 C 
ATOM     21  F   UNL     1       0.572   2.735  21.380  0.00  0.00    +0.000 F 
ATOM     22  F   UNL     1       0.814   4.744  20.582  0.00  0.00    +0.000 F 
ATOM     23  C   UNL     1       1.263   2.954  19.121  0.00  0.00    +0.000 C 
ENDBRANCH  16  17
ENDBRANCH  15  16
ENDBRANCH   3  15
TORSDOF 4
ENDMDL
MODEL 4
REMARK VINA RESULT:      -8.0      5.143      8.656
REMARK  Name = 
REMARK  4 active torsions:
REMARK  status: ('A' for Active; 'I' for Inactive)
REMARK    1  A    between atoms: C_2  and  C_13
REMARK    2  A    between atoms: N_3  and  C_4
REMARK    3  A    between atoms: C_4  and  C_5
REMARK    4  A    between atoms: C_5  and  C_6
REMARK                            x       y       z     vdW  Elec       q    Type
REMARK                         _______ _______ _______ _____ _____    ______ ____
ROOT
ATOM      1  O   UNL     1       2.145   9.235  17.434  0.00  0.00    +0.000 OA
ATOM      2  C   UNL     1       1.804   8.758  18.516  0.00  0.00    +0.000 C 
ATOM      3  N   UNL     1       2.148   7.483  18.906  0.00  0.00    +0.000 N 
ATOM      4  H   UNL     1       1.826   7.180  19.820  0.00  0.00    +0.000 HD
ENDROOT
BRANCH   2   5
ATOM      5  C   UNL     1       0.984   9.517  19.472  0.00  0.00    +0.000 A 
ATOM      6  C   UNL     1       0.997   9.315  20.874  0.00  0.00    +0.000 A 
ATOM      7  C   UNL     1       0.079  10.198  21.391  0.00  0.00    +0.000 A 
ATOM      8  N   UNL     1      -0.420  10.867  20.320  0.00  0.00    +0.000 N 
ATOM      9  N   UNL     1       0.117  10.498  19.134  0.00  0.00    +0.000 NA
ATOM     10  C   UNL     1      -1.451  11.874  20.384  0.00  0.00    +0.000 C 
ATOM     11  C   UNL     1      -1.975  12.190  21.788  0.00  0.00    +0.000 C 
ATOM     12  C   UNL     1      -1.366  11.477  22.998  0.00  0.00    +0.000 C 
ATOM     13  C   UNL     1      -0.324  10.411  22.747  0.00  0.00    +0.000 C 
ATOM     14  O   UNL     1       0.147   9.779  23.690  0.00  0.00    +0.000 OA
ENDBRANCH   2   5
BRANCH   3  15
ATOM     15  C   UNL     1       2.921   6.620  18.042  0.00  0.00    +0.000 C 
BRANCH  15  16
ATOM     16  C   UNL     1       3.604   5.470  18.793  0.00  0.00    +0.000 C 
BRANCH  16  17
ATOM     17  C   UNL     1       3.462   4.098  18.108  0.00  0.00    +0.000 C 
ATOM     18  C   UNL     1       3.775   2.915  19.038  0.00  0.00    +0.000 C 
ATOM     19  C   UNL     1       2.436   2.347  19.515  0.00  0.00    +0.000 C 
ATOM     20  C   UNL     1       1.370   3.205  18.868  0.00  0.00    +0.000 C 
ATOM     21  F   UNL     1       0.279   2.485  18.546  0.00  0.00    +0.000 F 
ATOM     22  F   UNL     1       0.975   4.177  19.722  0.00  0.00    +0.000 F 
ATOM     23  C   UNL     1       2.027   3.813  17.647  0.00  0.00    +0.000 C 
ENDBRANCH  16  17
ENDBRANCH  15  16
ENDBRANCH   3  15
TORSDOF 4
ENDMDL
MODEL 5
REMARK VINA RESULT:      -8.0      1.356      1.624
REMARK  Name = 
REMARK  4 active torsions:
REMARK  status: ('A' for Active; 'I' for Inactive)
REMARK    1  A    between atoms: C_2  and  C_13
REMARK    2  A    between atoms: N_3  and  C_4
REMARK    3  A    between atoms: C_4  and  C_5
REMARK    4  A    between atoms: C_5  and  C_6
REMARK                            x       y       z     vdW  Elec       q    Type
REMARK                         _______ _______ _______ _____ _____    ______ ____
ROOT
ATOM      1  O   UNL     1       6.713   4.281  18.684  0.00  0.00    +0.000 OA
ATOM      2  C   UNL     1       5.959   4.753  17.834  0.00  0.00    +0.000 C 
ATOM      3  N   UNL     1       4.828   5.468  18.161  0.00  0.00    +0.000 N 
ATOM      4  H   UNL     1       4.270   5.824  17.390  0.00  0.00    +0.000 HD
ENDROOT
BRANCH   2   5
ATOM      5  C   UNL     1       6.204   4.573  16.395  0.00  0.00    +0.000 A 
ATOM      6  C   UNL     1       7.215   5.246  15.666  0.00  0.00    +0.000 A 
ATOM      7  C   UNL     1       7.088   4.819  14.365  0.00  0.00    +0.000 A 
ATOM      8  N   UNL     1       6.052   3.942  14.373  0.00  0.00    +0.000 N 
ATOM      9  N   UNL     1       5.497   3.747  15.591  0.00  0.00    +0.000 NA
ATOM     10  C   UNL     1       5.533   3.269  13.207  0.00  0.00    +0.000 C 
ATOM     11  C   UNL     1       6.251   3.586  11.891  0.00  0.00    +0.000 C 
ATOM     12  C   UNL     1       7.456   4.528  11.899  0.00  0.00    +0.000 C 
ATOM     13  C   UNL     1       7.839   5.186  13.204  0.00  0.00    +0.000 C 
ATOM     14  O   UNL     1       8.767   5.991  13.236  0.00  0.00    +0.000 OA
ENDBRANCH   2   5
BRANCH   3  15
ATOM     15  C   UNL     1       4.453   5.685  19.540  0.00  0.00    +0.000 C 
BRANCH  15  16
ATOM     16  C   UNL     1       3.463   4.638  20.066  0.00  0.00    +0.000 C 
BRANCH  16  17
ATOM     17  C   UNL     1       1.996   4.910  19.683  0.00  0.00    +0.000 C 
ATOM     18  C   UNL     1       1.792   5.159  18.180  0.00  0.00    +0.000 C 
ATOM     19  C   UNL     1       1.272   3.855  17.570  0.00  0.00    +0.000 C 
ATOM     20  C   UNL     1       1.188   2.869  18.717  0.00  0.00    +0.000 C 
ATOM     21  F   UNL     1       0.140   2.035  18.580  0.00  0.00    +0.000 F 
ATOM     22  F   UNL     1       2.306   2.109  18.758  0.00  0.00    +0.000 F 
ATOM     23  C   UNL     1       1.079   3.713  19.969  0.00  0.00    +0.000 C 
ENDBRANCH  16  17
ENDBRANCH  15  16
ENDBRANCH   3  15
TORSDOF 4
ENDMDL
MODEL 6
REMARK VINA RESULT:      -7.9      1.817      2.288
REMARK  Name = 
REMARK  4 active torsions:
REMARK  status: ('A' for Active; 'I' for Inactive)
REMARK    1  A    between atoms: C_2  and  C_13
REMARK    2  A    between atoms: N_3  and  C_4
REMARK    3  A    between atoms: C_4  and  C_5
REMARK    4  A    between atoms: C_5  and  C_6
REMARK                            x       y       z     vdW  Elec       q    Type
REMARK                         _______ _______ _______ _____ _____    ______ ____
ROOT
ATOM      1  O   UNL     1       6.790   4.867  18.613  0.00  0.00    +0.000 OA
ATOM      2  C   UNL     1       6.098   4.206  17.839  0.00  0.00    +0.000 C 
ATOM      3  N   UNL     1       5.064   3.404  18.269  0.00  0.00    +0.000 N 
ATOM      4  H   UNL     1       4.545   2.902  17.555  0.00  0.00    +0.000 HD
ENDROOT
BRANCH   2   5
ATOM      5  C   UNL     1       6.337   4.214  16.388  0.00  0.00    +0.000 A 
ATOM      6  C   UNL     1       7.328   4.995  15.744  0.00  0.00    +0.000 A 
ATOM      7  C   UNL     1       7.200   4.733  14.400  0.00  0.00    +0.000 A 
ATOM      8  N   UNL     1       6.183   3.839  14.302  0.00  0.00    +0.000 N 
ATOM      9  N   UNL     1       5.641   3.480  15.489  0.00  0.00    +0.000 NA
ATOM     10  C   UNL     1       5.669   3.307  13.064  0.00  0.00    +0.000 C 
ATOM     11  C   UNL     1       6.370   3.802  11.795  0.00  0.00    +0.000 C 
ATOM     12  C   UNL     1       7.556   4.762  11.915  0.00  0.00    +0.000 C 
ATOM     13  C   UNL     1       7.934   5.260  13.291  0.00  0.00    +0.000 C 
ATOM     14  O   UNL     1       8.845   6.075  13.420  0.00  0.00    +0.000 OA
ENDBRANCH   2   5
BRANCH   3  15
ATOM     15  C   UNL     1       4.750   3.280  19.674  0.00  0.00    +0.000 C 
BRANCH  15  16
ATOM     16  C   UNL     1       3.348   2.713  19.930  0.00  0.00    +0.000 C 
BRANCH  16  17
ATOM     17  C   UNL     1       2.251   3.785  20.068  0.00  0.00    +0.000 C 
ATOM     18  C   UNL     1       2.751   5.212  19.790  0.00  0.00    +0.000 C 
ATOM     19  C   UNL     1       2.335   5.569  18.361  0.00  0.00    +0.000 C 
ATOM     20  C   UNL     1       1.610   4.351  17.827  0.00  0.00    +0.000 C 
ATOM     21  F   UNL     1       0.600   4.695  17.006  0.00  0.00    +0.000 F 
ATOM     22  F   UNL     1       2.463   3.578  17.117  0.00  0.00    +0.000 F 
ATOM     23  C   UNL     1       1.117   3.605  19.049  0.00  0.00    +0.000 C 
ENDBRANCH  16  17
ENDBRANCH  15  16
ENDBRANCH   3  15
TORSDOF 4
ENDMDL
MODEL 7
REMARK VINA RESULT:      -7.8      5.361      8.876
REMARK  Name = 
REMARK  4 active torsions:
REMARK  status: ('A' for Active; 'I' for Inactive)
REMARK    1  A    between atoms: C_2  and  C_13
REMARK    2  A    between atoms: N_3  and  C_4
REMARK    3  A    between atoms: C_4  and  C_5
REMARK    4  A    between atoms: C_5  and  C_6
REMARK                            x       y       z     vdW  Elec       q    Type
REMARK                         _______ _______ _______ _____ _____    ______ ____
ROOT
ATOM      1  O   UNL     1       1.548   9.250  17.341  0.00  0.00    +0.000 OA
ATOM      2  C   UNL     1       1.533   8.963  18.538  0.00  0.00    +0.000 C 
ATOM      3  N   UNL     1       2.256   7.911  19.057  0.00  0.00    +0.000 N 
ATOM      4  H   UNL     1       2.185   7.755  20.058  0.00  0.00    +0.000 HD
ENDROOT
BRANCH   2   5
ATOM      5  C   UNL     1       0.725   9.719  19.506  0.00  0.00    +0.000 A 
ATOM      6  C   UNL     1       0.753   9.511  20.907  0.00  0.00    +0.000 A 
ATOM      7  C   UNL     1      -0.158  10.393  21.437  0.00  0.00    +0.000 A 
ATOM      8  N   UNL     1      -0.668  11.067  20.374  0.00  0.00    +0.000 N 
ATOM      9  N   UNL     1      -0.145  10.702  19.181  0.00  0.00    +0.000 NA
ATOM     10  C   UNL     1      -1.697  12.075  20.453  0.00  0.00    +0.000 C 
ATOM     11  C   UNL     1      -2.205  12.386  21.865  0.00  0.00    +0.000 C 
ATOM     12  C   UNL     1      -1.583  11.668  23.064  0.00  0.00    +0.000 C 
ATOM     13  C   UNL     1      -0.545  10.602  22.798  0.00  0.00    +0.000 C 
ATOM     14  O   UNL     1      -0.065   9.966  23.734  0.00  0.00    +0.000 OA
ENDBRANCH   2   5
BRANCH   3  15
ATOM     15  C   UNL     1       3.062   7.065  18.205  0.00  0.00    +0.000 C 
BRANCH  15  16
ATOM     16  C   UNL     1       2.559   5.617  18.145  0.00  0.00    +0.000 C 
BRANCH  16  17
ATOM     17  C   UNL     1       2.947   4.765  19.368  0.00  0.00    +0.000 C 
ATOM     18  C   UNL     1       1.934   4.852  20.521  0.00  0.00    +0.000 C 
ATOM     19  C   UNL     1       1.056   3.600  20.450  0.00  0.00    +0.000 C 
ATOM     20  C   UNL     1       1.561   2.809  19.262  0.00  0.00    +0.000 C 
ATOM     21  F   UNL     1       1.482   1.483  19.477  0.00  0.00    +0.000 F 
ATOM     22  F   UNL     1       0.815   3.087  18.169  0.00  0.00    +0.000 F 
ATOM     23  C   UNL     1       2.990   3.264  19.052  0.00  0.00    +0.000 C 
ENDBRANCH  16  17
ENDBRANCH  15  16
ENDBRANCH   3  15
TORSDOF 4
ENDMDL
MODEL 8
REMARK VINA RESULT:      -7.8      5.188      8.678
REMARK  Name = 
REMARK  4 active torsions:
REMARK  status: ('A' for Active; 'I' for Inactive)
REMARK    1  A    between atoms: C_2  and  C_13
REMARK    2  A    between atoms: N_3  and  C_4
REMARK    3  A    between atoms: C_4  and  C_5
REMARK    4  A    between atoms: C_5  and  C_6
REMARK                            x       y       z     vdW  Elec       q    Type
REMARK                         _______ _______ _______ _____ _____    ______ ____
ROOT
ATOM      1  O   UNL     1       1.953   8.891  17.392  0.00  0.00    +0.000 OA
ATOM      2  C   UNL     1       1.811   8.597  18.579  0.00  0.00    +0.000 C 
ATOM      3  N   UNL     1       2.380   7.473  19.137  0.00  0.00    +0.000 N 
ATOM      4  H   UNL     1       2.212   7.317  20.127  0.00  0.00    +0.000 HD
ENDROOT
BRANCH   2   5
ATOM      5  C   UNL     1       1.005   9.423  19.490  0.00  0.00    +0.000 A 
ATOM      6  C   UNL     1       0.964   9.255  20.896  0.00  0.00    +0.000 A 
ATOM      7  C   UNL     1       0.080  10.200  21.362  0.00  0.00    +0.000 A 
ATOM      8  N   UNL     1      -0.349  10.867  20.261  0.00  0.00    +0.000 N 
ATOM      9  N   UNL     1       0.203  10.440  19.101  0.00  0.00    +0.000 NA
ATOM     10  C   UNL     1      -1.325  11.929  20.267  0.00  0.00    +0.000 C 
ATOM     11  C   UNL     1      -1.874  12.308  21.647  0.00  0.00    +0.000 C 
ATOM     12  C   UNL     1      -1.342  11.594  22.891  0.00  0.00    +0.000 C 
ATOM     13  C   UNL     1      -0.352  10.469  22.699  0.00  0.00    +0.000 C 
ATOM     14  O   UNL     1       0.054   9.836  23.672  0.00  0.00    +0.000 OA
ENDBRANCH   2   5
BRANCH   3  15
ATOM     15  C   UNL     1       3.165   6.558  18.340  0.00  0.00    +0.000 C 
BRANCH  15  16
ATOM     16  C   UNL     1       2.363   5.347  17.849  0.00  0.00    +0.000 C 
BRANCH  16  17
ATOM     17  C   UNL     1       2.018   4.330  18.953  0.00  0.00    +0.000 C 
ATOM     18  C   UNL     1       1.521   2.981  18.409  0.00  0.00    +0.000 C 
ATOM     19  C   UNL     1       2.701   2.008  18.461  0.00  0.00    +0.000 C 
ATOM     20  C   UNL     1       3.863   2.798  19.024  0.00  0.00    +0.000 C 
ATOM     21  F   UNL     1       4.653   2.036  19.803  0.00  0.00    +0.000 F 
ATOM     22  F   UNL     1       4.629   3.278  18.018  0.00  0.00    +0.000 F 
ATOM     23  C   UNL     1       3.238   3.940  19.799  0.00  0.00    +0.000 C 
ENDBRANCH  16  17
ENDBRANCH  15  16
ENDBRANCH   3  15
TORSDOF 4
ENDMDL
MODEL 9
REMARK VINA RESULT:      -7.7      1.941      2.398
REMARK  Name = 
REMARK  4 active torsions:
REMARK  status: ('A' for Active; 'I' for Inactive)
REMARK    1  A    between atoms: C_2  and  C_13
REMARK    2  A    between atoms: N_3  and  C_4
REMARK    3  A    between atoms: C_4  and  C_5
REMARK    4  A    between atoms: C_5  and  C_6
REMARK                            x       y       z     vdW  Elec       q    Type
REMARK                         _______ _______ _______ _____ _____    ______ ____
ROOT
ATOM      1  O   UNL     1       6.256   4.082  18.568  0.00  0.00    +0.000 OA
ATOM      2  C   UNL     1       5.714   4.794  17.722  0.00  0.00    +0.000 C 
ATOM      3  N   UNL     1       4.686   5.658  18.029  0.00  0.00    +0.000 N 
ATOM      4  H   UNL     1       4.306   6.209  17.266  0.00  0.00    +0.000 HD
ENDROOT
BRANCH   2   5
ATOM      5  C   UNL     1       6.118   4.762  16.309  0.00  0.00    +0.000 A 
ATOM      6  C   UNL     1       5.542   3.913  15.331  0.00  0.00    +0.000 A 
ATOM      7  C   UNL     1       6.216   4.175  14.162  0.00  0.00    +0.000 A 
ATOM      8  N   UNL     1       7.125   5.132  14.476  0.00  0.00    +0.000 N 
ATOM      9  N   UNL     1       7.088   5.533  15.767  0.00  0.00    +0.000 NA
ATOM     10  C   UNL     1       8.087   5.690  13.556  0.00  0.00    +0.000 C 
ATOM     11  C   UNL     1       8.023   5.142  12.127  0.00  0.00    +0.000 C 
ATOM     12  C   UNL     1       6.956   4.107  11.763  0.00  0.00    +0.000 C 
ATOM     13  C   UNL     1       6.056   3.594  12.864  0.00  0.00    +0.000 C 
ATOM     14  O   UNL     1       5.225   2.722  12.621  0.00  0.00    +0.000 OA
ENDBRANCH   2   5
BRANCH   3  15
ATOM     15  C   UNL     1       4.170   5.757  19.376  0.00  0.00    +0.000 C 
BRANCH  15  16
ATOM     16  C   UNL     1       2.664   5.482  19.465  0.00  0.00    +0.000 C 
BRANCH  16  17
ATOM     17  C   UNL     1       2.300   4.229  20.284  0.00  0.00    +0.000 C 
ATOM     18  C   UNL     1       0.911   3.663  19.950  0.00  0.00    +0.000 C 
ATOM     19  C   UNL     1       1.119   2.474  19.009  0.00  0.00    +0.000 C 
ATOM     20  C   UNL     1       2.616   2.370  18.802  0.00  0.00    +0.000 C 
ATOM     21  F   UNL     1       3.013   1.089  18.685  0.00  0.00    +0.000 F 
ATOM     22  F   UNL     1       2.972   3.010  17.666  0.00  0.00    +0.000 F 
ATOM     23  C   UNL     1       3.238   3.048  20.005  0.00  0.00    +0.000 C 
ENDBRANCH  16  17
ENDBRANCH  15  16
ENDBRANCH   3  15
TORSDOF 4
ENDMDL
