MODEL 1
REMARK VINA RESULT:      -9.0      0.000      0.000
REMARK  Name = 
REMARK  12 active torsions:
REMARK  status: ('A' for Active; 'I' for Inactive)
REMARK    1  A    between atoms: C_1  and  C_2
REMARK    2  A    between atoms: C_2  and  O_3
REMARK    3  A    between atoms: O_3  and  C_4
REMARK    4  A    between atoms: C_7  and  O_8
REMARK    5  A    between atoms: O_8  and  C_9
REMARK    6  A    between atoms: C_12  and  N_13
REMARK    7  A    between atoms: C_19  and  C_20
REMARK    8  A    between atoms: C_20  and  C_21
REMARK    9  A    between atoms: C_20  and  C_22
REMARK   10  A    between atoms: C_20  and  C_23
REMARK   11  A    between atoms: C_34  and  O_35
REMARK   12  A    between atoms: O_35  and  C_36
REMARK                            x       y       z     vdW  Elec       q    Type
REMARK                         _______ _______ _______ _____ _____    ______ ____
ROOT
ATOM      1  C   UNL     1       2.135   7.514  19.638  0.00  0.00    +0.000 A 
ATOM      2  C   UNL     1       2.306   8.114  18.389  0.00  0.00    +0.000 A 
ATOM      3  C   UNL     1       1.899   9.427  18.170  0.00  0.00    +0.000 A 
ATOM      4  C   UNL     1       1.226  10.136  19.164  0.00  0.00    +0.000 A 
ATOM      5  C   UNL     1       1.056   9.551  20.422  0.00  0.00    +0.000 A 
ATOM      6  C   UNL     1       1.504   8.242  20.647  0.00  0.00    +0.000 A 
ATOM      7  F   UNL     1       1.309   7.695  21.856  0.00  0.00    +0.000 F 
ENDROOT
BRANCH   4   8
ATOM      8  N   UNL     1       0.681  11.403  18.919  0.00  0.00    +0.000 N 
ATOM      9  C   UNL     1      -0.637  11.671  18.609  0.00  0.00    +0.000 C 
ATOM     10  O   UNL     1      -1.534  10.839  18.467  0.00  0.00    +0.000 OA
ATOM     11  N   UNL     1      -0.991  12.984  18.527  0.00  0.00    +0.000 N 
ATOM     12  C   UNL     1      -0.172  14.081  18.581  0.00  0.00    +0.000 A 
ATOM     13  C   UNL     1      -0.629  15.412  18.633  0.00  0.00    +0.000 A 
ATOM     14  C   UNL     1       0.520  16.167  18.678  0.00  0.00    +0.000 A 
ATOM     15  O   UNL     1       1.594  15.334  18.648  0.00  0.00    +0.000 OA
ATOM     16  N   UNL     1       1.162  14.031  18.606  0.00  0.00    +0.000 NA
ATOM     17  H   UNL     1       1.247  12.217  19.147  0.00  0.00    +0.000 HD
ATOM     18  H   UNL     1      -1.986  13.129  18.414  0.00  0.00    +0.000 HD
BRANCH  14  19
ATOM     19  C   UNL     1       0.793  17.639  18.764  0.00  0.00    +0.000 C 
ATOM     20  C   UNL     1       1.993  17.868  19.698  0.00  0.00    +0.000 C 
ATOM     21  C   UNL     1       1.119  18.234  17.382  0.00  0.00    +0.000 C 
ATOM     22  C   UNL     1      -0.451  18.347  19.328  0.00  0.00    +0.000 C 
ENDBRANCH  14  19
ENDBRANCH   4   8
BRANCH   1  23
ATOM     23  O   UNL     1       2.566   6.224  19.905  0.00  0.00    +0.000 OA
BRANCH  23  27
ATOM     24  C   UNL     1       6.302   5.882  17.683  0.00  0.00    +0.000 A 
ATOM     25  C   UNL     1       5.097   6.054  18.406  0.00  0.00    +0.000 A 
ATOM     26  C   UNL     1       3.938   5.275  18.134  0.00  0.00    +0.000 A 
ATOM     27  C   UNL     1       2.701   5.365  18.821  0.00  0.00    +0.000 A 
ATOM     28  C   UNL     1       1.614   4.582  18.416  0.00  0.00    +0.000 A 
ATOM     29  C   UNL     1       1.825   3.640  17.439  0.00  0.00    +0.000 A 
ATOM     30  N   UNL     1       2.991   3.499  16.788  0.00  0.00    +0.000 NA
ATOM     31  C   UNL     1       4.008   4.319  17.112  0.00  0.00    +0.000 A 
ATOM     32  C   UNL     1       5.176   4.182  16.392  0.00  0.00    +0.000 A 
ATOM     33  C   UNL     1       6.326   4.945  16.642  0.00  0.00    +0.000 A 
BRANCH  33  34
ATOM     34  O   UNL     1       7.333   4.599  15.785  0.00  0.00    +0.000 OA
ATOM     35  C   UNL     1       7.186   4.752  14.387  0.00  0.00    +0.000 C 
ENDBRANCH  33  34
BRANCH  24  36
ATOM     36  O   UNL     1       7.436   6.602  17.946  0.00  0.00    +0.000 OA
BRANCH  36  38
ATOM     37  C   UNL     1       8.398   8.783  18.236  0.00  0.00    +0.000 C 
ATOM     38  C   UNL     1       7.507   7.908  17.370  0.00  0.00    +0.000 C 
ENDBRANCH  36  38
ENDBRANCH  24  36
ENDBRANCH  23  27
ENDBRANCH   1  23
TORSDOF 7
ENDMDL
MODEL 2
REMARK VINA RESULT:      -8.8      2.876      3.316
REMARK  Name = 
REMARK  12 active torsions:
REMARK  status: ('A' for Active; 'I' for Inactive)
REMARK    1  A    between atoms: C_1  and  C_2
REMARK    2  A    between atoms: C_2  and  O_3
REMARK    3  A    between atoms: O_3  and  C_4
REMARK    4  A    between atoms: C_7  and  O_8
REMARK    5  A    between atoms: O_8  and  C_9
REMARK    6  A    between atoms: C_12  and  N_13
REMARK    7  A    between atoms: C_19  and  C_20
REMARK    8  A    between atoms: C_20  and  C_21
REMARK    9  A    between atoms: C_20  and  C_22
REMARK   10  A    between atoms: C_20  and  C_23
REMARK   11  A    between atoms: C_34  and  O_35
REMARK   12  A    between atoms: O_35  and  C_36
REMARK                            x       y       z     vdW  Elec       q    Type
REMARK                         _______ _______ _______ _____ _____    ______ ____
ROOT
ATOM      1  C   UNL     1       2.177   7.504  19.923  0.00  0.00    +0.000 A 
ATOM      2  C   UNL     1       1.295   7.615  21.000  0.00  0.00    +0.000 A 
ATOM      3  C   UNL     1       0.294   8.583  21.000  0.00  0.00    +0.000 A 
ATOM      4  C   UNL     1       0.213   9.520  19.971  0.00  0.00    +0.000 A 
ATOM      5  C   UNL     1       1.084   9.415  18.882  0.00  0.00    +0.000 A 
ATOM      6  C   UNL     1       2.064   8.413  18.871  0.00  0.00    +0.000 A 
ATOM      7  F   UNL     1       2.902   8.347  17.826  0.00  0.00    +0.000 F 
ENDROOT
BRANCH   4   8
ATOM      8  N   UNL     1      -0.693  10.588  20.022  0.00  0.00    +0.000 N 
ATOM      9  C   UNL     1      -1.482  11.029  18.980  0.00  0.00    +0.000 C 
ATOM     10  O   UNL     1      -1.495  10.576  17.834  0.00  0.00    +0.000 OA
ATOM     11  N   UNL     1      -2.385  12.008  19.268  0.00  0.00    +0.000 N 
ATOM     12  C   UNL     1      -2.520  12.710  20.437  0.00  0.00    +0.000 A 
ATOM     13  C   UNL     1      -3.570  13.607  20.710  0.00  0.00    +0.000 A 
ATOM     14  C   UNL     1      -3.305  14.071  21.977  0.00  0.00    +0.000 A 
ATOM     15  O   UNL     1      -2.163  13.488  22.428  0.00  0.00    +0.000 OA
ATOM     16  N   UNL     1      -1.682  12.625  21.474  0.00  0.00    +0.000 NA
ATOM     17  H   UNL     1      -0.922  10.975  20.934  0.00  0.00    +0.000 HD
ATOM     18  H   UNL     1      -3.018  12.214  18.506  0.00  0.00    +0.000 HD
BRANCH  14  19
ATOM     19  C   UNL     1      -4.003  15.024  22.902  0.00  0.00    +0.000 C 
ATOM     20  C   UNL     1      -3.999  16.424  22.266  0.00  0.00    +0.000 C 
ATOM     21  C   UNL     1      -5.460  14.598  23.154  0.00  0.00    +0.000 C 
ATOM     22  C   UNL     1      -3.256  15.057  24.245  0.00  0.00    +0.000 C 
ENDBRANCH  14  19
ENDBRANCH   4   8
BRANCH   1  23
ATOM     23  O   UNL     1       3.158   6.527  19.868  0.00  0.00    +0.000 OA
BRANCH  23  27
ATOM     24  C   UNL     1       6.261   5.714  16.916  0.00  0.00    +0.000 A 
ATOM     25  C   UNL     1       5.263   6.038  17.867  0.00  0.00    +0.000 A 
ATOM     26  C   UNL     1       4.053   5.297  17.970  0.00  0.00    +0.000 A 
ATOM     27  C   UNL     1       3.013   5.538  18.903  0.00  0.00    +0.000 A 
ATOM     28  C   UNL     1       1.842   4.774  18.861  0.00  0.00    +0.000 A 
ATOM     29  C   UNL     1       1.794   3.711  17.992  0.00  0.00    +0.000 A 
ATOM     30  N   UNL     1       2.772   3.428  17.117  0.00  0.00    +0.000 NA
ATOM     31  C   UNL     1       3.857   4.224  17.091  0.00  0.00    +0.000 A 
ATOM     32  C   UNL     1       4.821   3.937  16.148  0.00  0.00    +0.000 A 
ATOM     33  C   UNL     1       6.018   4.659  16.028  0.00  0.00    +0.000 A 
BRANCH  33  34
ATOM     34  O   UNL     1       6.787   4.158  15.016  0.00  0.00    +0.000 OA
ATOM     35  C   UNL     1       6.322   4.149  13.680  0.00  0.00    +0.000 C 
ENDBRANCH  33  34
BRANCH  24  36
ATOM     36  O   UNL     1       7.444   6.396  16.819  0.00  0.00    +0.000 OA
BRANCH  36  38
ATOM     37  C   UNL     1       7.879   8.600  17.669  0.00  0.00    +0.000 C 
ATOM     38  C   UNL     1       7.861   7.114  17.983  0.00  0.00    +0.000 C 
ENDBRANCH  36  38
ENDBRANCH  24  36
ENDBRANCH  23  27
ENDBRANCH   1  23
TORSDOF 7
ENDMDL
MODEL 3
REMARK VINA RESULT:      -8.8      2.898      3.236
REMARK  Name = 
REMARK  12 active torsions:
REMARK  status: ('A' for Active; 'I' for Inactive)
REMARK    1  A    between atoms: C_1  and  C_2
REMARK    2  A    between atoms: C_2  and  O_3
REMARK    3  A    between atoms: O_3  and  C_4
REMARK    4  A    between atoms: C_7  and  O_8
REMARK    5  A    between atoms: O_8  and  C_9
REMARK    6  A    between atoms: C_12  and  N_13
REMARK    7  A    between atoms: C_19  and  C_20
REMARK    8  A    between atoms: C_20  and  C_21
REMARK    9  A    between atoms: C_20  and  C_22
REMARK   10  A    between atoms: C_20  and  C_23
REMARK   11  A    between atoms: C_34  and  O_35
REMARK   12  A    between atoms: O_35  and  C_36
REMARK                            x       y       z     vdW  Elec       q    Type
REMARK                         _______ _______ _______ _____ _____    ______ ____
ROOT
ATOM      1  C   UNL     1       2.123   7.795  19.553  0.00  0.00    +0.000 A 
ATOM      2  C   UNL     1       1.884   8.563  18.411  0.00  0.00    +0.000 A 
ATOM      3  C   UNL     1       0.907   9.555  18.416  0.00  0.00    +0.000 A 
ATOM      4  C   UNL     1       0.084   9.736  19.525  0.00  0.00    +0.000 A 
ATOM      5  C   UNL     1       0.318   8.980  20.678  0.00  0.00    +0.000 A 
ATOM      6  C   UNL     1       1.329   8.009  20.680  0.00  0.00    +0.000 A 
ATOM      7  F   UNL     1       1.519   7.282  21.790  0.00  0.00    +0.000 F 
ENDROOT
BRANCH   4   8
ATOM      8  N   UNL     1      -0.997  10.627  19.500  0.00  0.00    +0.000 N 
ATOM      9  C   UNL     1      -1.940  10.727  18.497  0.00  0.00    +0.000 C 
ATOM     10  O   UNL     1      -1.964  10.073  17.454  0.00  0.00    +0.000 OA
ATOM     11  N   UNL     1      -2.981  11.577  18.720  0.00  0.00    +0.000 N 
ATOM     12  C   UNL     1      -3.145  12.452  19.762  0.00  0.00    +0.000 A 
ATOM     13  C   UNL     1      -4.318  13.195  19.999  0.00  0.00    +0.000 A 
ATOM     14  C   UNL     1      -4.037  13.925  21.131  0.00  0.00    +0.000 A 
ATOM     15  O   UNL     1      -2.773  13.637  21.538  0.00  0.00    +0.000 OA
ATOM     16  N   UNL     1      -2.222  12.704  20.694  0.00  0.00    +0.000 NA
ATOM     17  H   UNL     1      -1.216  11.133  20.354  0.00  0.00    +0.000 HD
ATOM     18  H   UNL     1      -3.703  11.528  18.013  0.00  0.00    +0.000 HD
BRANCH  14  19
ATOM     19  C   UNL     1      -4.820  14.902  21.957  0.00  0.00    +0.000 C 
ATOM     20  C   UNL     1      -6.272  14.408  22.066  0.00  0.00    +0.000 C 
ATOM     21  C   UNL     1      -4.235  15.039  23.373  0.00  0.00    +0.000 C 
ATOM     22  C   UNL     1      -4.786  16.278  21.271  0.00  0.00    +0.000 C 
ENDBRANCH  14  19
ENDBRANCH   4   8
BRANCH   1  23
ATOM     23  O   UNL     1       3.114   6.828  19.599  0.00  0.00    +0.000 OA
BRANCH  23  27
ATOM     24  C   UNL     1       6.342   5.945  16.804  0.00  0.00    +0.000 A 
ATOM     25  C   UNL     1       5.303   6.292  17.701  0.00  0.00    +0.000 A 
ATOM     26  C   UNL     1       4.107   5.527  17.800  0.00  0.00    +0.000 A 
ATOM     27  C   UNL     1       3.029   5.788  18.682  0.00  0.00    +0.000 A 
ATOM     28  C   UNL     1       1.878   4.994  18.639  0.00  0.00    +0.000 A 
ATOM     29  C   UNL     1       1.886   3.887  17.825  0.00  0.00    +0.000 A 
ATOM     30  N   UNL     1       2.901   3.585  17.000  0.00  0.00    +0.000 NA
ATOM     31  C   UNL     1       3.968   4.406  16.971  0.00  0.00    +0.000 A 
ATOM     32  C   UNL     1       4.973   4.096  16.078  0.00  0.00    +0.000 A 
ATOM     33  C   UNL     1       6.155   4.841  15.963  0.00  0.00    +0.000 A 
BRANCH  33  34
ATOM     34  O   UNL     1       6.973   4.308  15.007  0.00  0.00    +0.000 OA
ATOM     35  C   UNL     1       6.529   4.149  13.673  0.00  0.00    +0.000 C 
ENDBRANCH  33  34
BRANCH  24  36
ATOM     36  O   UNL     1       7.511   6.651  16.714  0.00  0.00    +0.000 OA
BRANCH  36  38
ATOM     37  C   UNL     1       8.014   8.790  17.683  0.00  0.00    +0.000 C 
ATOM     38  C   UNL     1       7.963   7.289  17.911  0.00  0.00    +0.000 C 
ENDBRANCH  36  38
ENDBRANCH  24  36
ENDBRANCH  23  27
ENDBRANCH   1  23
TORSDOF 7
ENDMDL
MODEL 4
REMARK VINA RESULT:      -8.8      3.148      3.673
REMARK  Name = 
REMARK  12 active torsions:
REMARK  status: ('A' for Active; 'I' for Inactive)
REMARK    1  A    between atoms: C_1  and  C_2
REMARK    2  A    between atoms: C_2  and  O_3
REMARK    3  A    between atoms: O_3  and  C_4
REMARK    4  A    between atoms: C_7  and  O_8
REMARK    5  A    between atoms: O_8  and  C_9
REMARK    6  A    between atoms: C_12  and  N_13
REMARK    7  A    between atoms: C_19  and  C_20
REMARK    8  A    between atoms: C_20  and  C_21
REMARK    9  A    between atoms: C_20  and  C_22
REMARK   10  A    between atoms: C_20  and  C_23
REMARK   11  A    between atoms: C_34  and  O_35
REMARK   12  A    between atoms: O_35  and  C_36
REMARK                            x       y       z     vdW  Elec       q    Type
REMARK                         _______ _______ _______ _____ _____    ______ ____
ROOT
ATOM      1  C   UNL     1       1.891   8.187  19.476  0.00  0.00    +0.000 A 
ATOM      2  C   UNL     1       1.559   8.860  18.298  0.00  0.00    +0.000 A 
ATOM      3  C   UNL     1       0.531   9.798  18.283  0.00  0.00    +0.000 A 
ATOM      4  C   UNL     1      -0.250  10.014  19.417  0.00  0.00    +0.000 A 
ATOM      5  C   UNL     1       0.077   9.354  20.606  0.00  0.00    +0.000 A 
ATOM      6  C   UNL     1       1.139   8.439  20.623  0.00  0.00    +0.000 A 
ATOM      7  F   UNL     1       1.419   7.803  21.770  0.00  0.00    +0.000 F 
ENDROOT
BRANCH   4   8
ATOM      8  N   UNL     1      -1.378  10.844  19.384  0.00  0.00    +0.000 N 
ATOM      9  C   UNL     1      -2.145  11.124  18.272  0.00  0.00    +0.000 C 
ATOM     10  O   UNL     1      -1.942  10.716  17.127  0.00  0.00    +0.000 OA
ATOM     11  N   UNL     1      -3.273  11.861  18.476  0.00  0.00    +0.000 N 
ATOM     12  C   UNL     1      -3.677  12.477  19.631  0.00  0.00    +0.000 A 
ATOM     13  C   UNL     1      -4.928  13.101  19.803  0.00  0.00    +0.000 A 
ATOM     14  C   UNL     1      -4.900  13.574  21.094  0.00  0.00    +0.000 A 
ATOM     15  O   UNL     1      -3.703  13.255  21.653  0.00  0.00    +0.000 OA
ATOM     16  N   UNL     1      -2.946  12.555  20.746  0.00  0.00    +0.000 NA
ATOM     17  H   UNL     1      -1.777  11.140  20.272  0.00  0.00    +0.000 HD
ATOM     18  H   UNL     1      -3.860  11.940  17.656  0.00  0.00    +0.000 HD
BRANCH  14  19
ATOM     19  C   UNL     1      -5.885  14.312  21.951  0.00  0.00    +0.000 C 
ATOM     20  C   UNL     1      -5.617  15.821  21.827  0.00  0.00    +0.000 C 
ATOM     21  C   UNL     1      -7.334  14.028  21.517  0.00  0.00    +0.000 C 
ATOM     22  C   UNL     1      -5.709  13.869  23.413  0.00  0.00    +0.000 C 
ENDBRANCH  14  19
ENDBRANCH   4   8
BRANCH   1  23
ATOM     23  O   UNL     1       2.936   7.279  19.539  0.00  0.00    +0.000 OA
BRANCH  23  27
ATOM     24  C   UNL     1       6.161   6.126  16.842  0.00  0.00    +0.000 A 
ATOM     25  C   UNL     1       5.123   6.559  17.701  0.00  0.00    +0.000 A 
ATOM     26  C   UNL     1       3.926   5.809  17.873  0.00  0.00    +0.000 A 
ATOM     27  C   UNL     1       2.848   6.156  18.726  0.00  0.00    +0.000 A 
ATOM     28  C   UNL     1       1.696   5.363  18.760  0.00  0.00    +0.000 A 
ATOM     29  C   UNL     1       1.703   4.183  18.056  0.00  0.00    +0.000 A 
ATOM     30  N   UNL     1       2.718   3.802  17.264  0.00  0.00    +0.000 NA
ATOM     31  C   UNL     1       3.786   4.614  17.156  0.00  0.00    +0.000 A 
ATOM     32  C   UNL     1       4.789   4.218  16.297  0.00  0.00    +0.000 A 
ATOM     33  C   UNL     1       5.973   4.947  16.111  0.00  0.00    +0.000 A 
BRANCH  33  34
ATOM     34  O   UNL     1       6.789   4.324  15.210  0.00  0.00    +0.000 OA
ATOM     35  C   UNL     1       6.353   4.058  13.891  0.00  0.00    +0.000 C 
ENDBRANCH  33  34
BRANCH  24  36
ATOM     36  O   UNL     1       7.331   6.819  16.684  0.00  0.00    +0.000 OA
BRANCH  36  38
ATOM     37  C   UNL     1       8.005   8.870  17.736  0.00  0.00    +0.000 C 
ATOM     38  C   UNL     1       7.916   7.359  17.871  0.00  0.00    +0.000 C 
ENDBRANCH  36  38
ENDBRANCH  24  36
ENDBRANCH  23  27
ENDBRANCH   1  23
TORSDOF 7
ENDMDL
MODEL 5
REMARK VINA RESULT:      -8.7      3.111      3.925
REMARK  Name = 
REMARK  12 active torsions:
REMARK  status: ('A' for Active; 'I' for Inactive)
REMARK    1  A    between atoms: C_1  and  C_2
REMARK    2  A    between atoms: C_2  and  O_3
REMARK    3  A    between atoms: O_3  and  C_4
REMARK    4  A    between atoms: C_7  and  O_8
REMARK    5  A    between atoms: O_8  and  C_9
REMARK    6  A    between atoms: C_12  and  N_13
REMARK    7  A    between atoms: C_19  and  C_20
REMARK    8  A    between atoms: C_20  and  C_21
REMARK    9  A    between atoms: C_20  and  C_22
REMARK   10  A    between atoms: C_20  and  C_23
REMARK   11  A    between atoms: C_34  and  O_35
REMARK   12  A    between atoms: O_35  and  C_36
REMARK                            x       y       z     vdW  Elec       q    Type
REMARK                         _______ _______ _______ _____ _____    ______ ____
ROOT
ATOM      1  C   UNL     1       1.922   7.882  20.019  0.00  0.00    +0.000 A 
ATOM      2  C   UNL     1       1.099   8.002  21.141  0.00  0.00    +0.000 A 
ATOM      3  C   UNL     1       0.047   8.913  21.155  0.00  0.00    +0.000 A 
ATOM      4  C   UNL     1      -0.148   9.789  20.089  0.00  0.00    +0.000 A 
ATOM      5  C   UNL     1       0.663   9.674  18.955  0.00  0.00    +0.000 A 
ATOM      6  C   UNL     1       1.696   8.727  18.933  0.00  0.00    +0.000 A 
ATOM      7  F   UNL     1       2.473   8.651  17.843  0.00  0.00    +0.000 F 
ENDROOT
BRANCH   4   8
ATOM      8  N   UNL     1      -1.108  10.808  20.142  0.00  0.00    +0.000 N 
ATOM      9  C   UNL     1      -1.509  11.598  19.084  0.00  0.00    +0.000 C 
ATOM     10  O   UNL     1      -1.067  11.554  17.935  0.00  0.00    +0.000 OA
ATOM     11  N   UNL     1      -2.544  12.453  19.317  0.00  0.00    +0.000 N 
ATOM     12  C   UNL     1      -3.155  12.728  20.513  0.00  0.00    +0.000 A 
ATOM     13  C   UNL     1      -4.313  13.516  20.650  0.00  0.00    +0.000 A 
ATOM     14  C   UNL     1      -4.566  13.521  22.003  0.00  0.00    +0.000 A 
ATOM     15  O   UNL     1      -3.611  12.784  22.630  0.00  0.00    +0.000 OA
ATOM     16  N   UNL     1      -2.741  12.274  21.699  0.00  0.00    +0.000 NA
ATOM     17  H   UNL     1      -1.685  10.875  20.977  0.00  0.00    +0.000 HD
ATOM     18  H   UNL     1      -2.877  12.922  18.486  0.00  0.00    +0.000 HD
BRANCH  14  19
ATOM     19  C   UNL     1      -5.636  14.133  22.857  0.00  0.00    +0.000 C 
ATOM     20  C   UNL     1      -6.079  13.103  23.909  0.00  0.00    +0.000 C 
ATOM     21  C   UNL     1      -5.128  15.393  23.579  0.00  0.00    +0.000 C 
ATOM     22  C   UNL     1      -6.830  14.518  21.967  0.00  0.00    +0.000 C 
ENDBRANCH  14  19
ENDBRANCH   4   8
BRANCH   1  23
ATOM     23  O   UNL     1       2.952   6.957  19.953  0.00  0.00    +0.000 OA
BRANCH  23  27
ATOM     24  C   UNL     1       5.892   5.691  16.993  0.00  0.00    +0.000 A 
ATOM     25  C   UNL     1       4.947   6.161  17.937  0.00  0.00    +0.000 A 
ATOM     26  C   UNL     1       3.740   5.458  18.206  0.00  0.00    +0.000 A 
ATOM     27  C   UNL     1       2.751   5.843  19.147  0.00  0.00    +0.000 A 
ATOM     28  C   UNL     1       1.575   5.097  19.275  0.00  0.00    +0.000 A 
ATOM     29  C   UNL     1       1.475   3.921  18.570  0.00  0.00    +0.000 A 
ATOM     30  N   UNL     1       2.404   3.504  17.695  0.00  0.00    +0.000 NA
ATOM     31  C   UNL     1       3.492   4.273  17.501  0.00  0.00    +0.000 A 
ATOM     32  C   UNL     1       4.404   3.843  16.561  0.00  0.00    +0.000 A 
ATOM     33  C   UNL     1       5.596   4.524  16.278  0.00  0.00    +0.000 A 
BRANCH  33  34
ATOM     34  O   UNL     1       6.309   3.873  15.311  0.00  0.00    +0.000 OA
ATOM     35  C   UNL     1       6.185   4.231  13.948  0.00  0.00    +0.000 C 
ENDBRANCH  33  34
BRANCH  24  36
ATOM     36  O   UNL     1       7.072   6.337  16.740  0.00  0.00    +0.000 OA
BRANCH  36  38
ATOM     37  C   UNL     1       7.815   8.441  17.628  0.00  0.00    +0.000 C 
ATOM     38  C   UNL     1       7.719   6.943  17.862  0.00  0.00    +0.000 C 
ENDBRANCH  36  38
ENDBRANCH  24  36
ENDBRANCH  23  27
ENDBRANCH   1  23
TORSDOF 7
ENDMDL
MODEL 6
REMARK VINA RESULT:      -8.5      0.981      1.482
REMARK  Name = 
REMARK  12 active torsions:
REMARK  status: ('A' for Active; 'I' for Inactive)
REMARK    1  A    between atoms: C_1  and  C_2
REMARK    2  A    between atoms: C_2  and  O_3
REMARK    3  A    between atoms: O_3  and  C_4
REMARK    4  A    between atoms: C_7  and  O_8
REMARK    5  A    between atoms: O_8  and  C_9
REMARK    6  A    between atoms: C_12  and  N_13
REMARK    7  A    between atoms: C_19  and  C_20
REMARK    8  A    between atoms: C_20  and  C_21
REMARK    9  A    between atoms: C_20  and  C_22
REMARK   10  A    between atoms: C_20  and  C_23
REMARK   11  A    between atoms: C_34  and  O_35
REMARK   12  A    between atoms: O_35  and  C_36
REMARK                            x       y       z     vdW  Elec       q    Type
REMARK                         _______ _______ _______ _____ _____    ______ ____
ROOT
ATOM      1  C   UNL     1       2.278   7.527  19.663  0.00  0.00    +0.000 A 
ATOM      2  C   UNL     1       1.504   8.134  20.655  0.00  0.00    +0.000 A 
ATOM      3  C   UNL     1       0.858   9.343  20.409  0.00  0.00    +0.000 A 
ATOM      4  C   UNL     1       1.048  10.017  19.204  0.00  0.00    +0.000 A 
ATOM      5  C   UNL     1       1.813   9.416  18.200  0.00  0.00    +0.000 A 
ATOM      6  C   UNL     1       2.429   8.181  18.440  0.00  0.00    +0.000 A 
ATOM      7  F   UNL     1       3.175   7.636  17.469  0.00  0.00    +0.000 F 
ENDROOT
BRANCH   4   8
ATOM      8  N   UNL     1       0.525  11.300  18.991  0.00  0.00    +0.000 N 
ATOM      9  C   UNL     1      -0.791  11.599  18.704  0.00  0.00    +0.000 C 
ATOM     10  O   UNL     1      -1.707  10.788  18.559  0.00  0.00    +0.000 OA
ATOM     11  N   UNL     1      -1.119  12.920  18.651  0.00  0.00    +0.000 N 
ATOM     12  C   UNL     1      -0.278  14.000  18.714  0.00  0.00    +0.000 A 
ATOM     13  C   UNL     1      -0.706  15.339  18.797  0.00  0.00    +0.000 A 
ATOM     14  C   UNL     1       0.458  16.070  18.839  0.00  0.00    +0.000 A 
ATOM     15  O   UNL     1       1.515  15.216  18.779  0.00  0.00    +0.000 OA
ATOM     16  N   UNL     1       1.056  13.923  18.719  0.00  0.00    +0.000 NA
ATOM     17  H   UNL     1       1.110  12.097  19.226  0.00  0.00    +0.000 HD
ATOM     18  H   UNL     1      -2.112  13.088  18.555  0.00  0.00    +0.000 HD
BRANCH  14  19
ATOM     19  C   UNL     1       0.762  17.534  18.948  0.00  0.00    +0.000 C 
ATOM     20  C   UNL     1       0.890  18.121  17.533  0.00  0.00    +0.000 C 
ATOM     21  C   UNL     1      -0.352  18.286  19.698  0.00  0.00    +0.000 C 
ATOM     22  C   UNL     1       2.084  17.717  19.712  0.00  0.00    +0.000 C 
ENDBRANCH  14  19
ENDBRANCH   4   8
BRANCH   1  23
ATOM     23  O   UNL     1       2.901   6.305  19.857  0.00  0.00    +0.000 OA
BRANCH  23  27
ATOM     24  C   UNL     1       6.067   5.210  17.066  0.00  0.00    +0.000 A 
ATOM     25  C   UNL     1       5.055   5.624  17.965  0.00  0.00    +0.000 A 
ATOM     26  C   UNL     1       3.776   5.002  17.998  0.00  0.00    +0.000 A 
ATOM     27  C   UNL     1       2.715   5.337  18.877  0.00  0.00    +0.000 A 
ATOM     28  C   UNL     1       1.481   4.689  18.767  0.00  0.00    +0.000 A 
ATOM     29  C   UNL     1       1.378   3.638  17.888  0.00  0.00    +0.000 A 
ATOM     30  N   UNL     1       2.370   3.267  17.062  0.00  0.00    +0.000 NA
ATOM     31  C   UNL     1       3.526   3.955  17.101  0.00  0.00    +0.000 A 
ATOM     32  C   UNL     1       4.508   3.581  16.207  0.00  0.00    +0.000 A 
ATOM     33  C   UNL     1       5.772   4.186  16.157  0.00  0.00    +0.000 A 
BRANCH  33  34
ATOM     34  O   UNL     1       6.543   3.618  15.183  0.00  0.00    +0.000 OA
ATOM     35  C   UNL     1       6.380   3.971  13.823  0.00  0.00    +0.000 C 
ENDBRANCH  33  34
BRANCH  24  36
ATOM     36  O   UNL     1       7.313   5.777  17.037  0.00  0.00    +0.000 OA
BRANCH  36  38
ATOM     37  C   UNL     1       8.242   7.470  18.464  0.00  0.00    +0.000 C 
ATOM     38  C   UNL     1       7.373   7.189  17.250  0.00  0.00    +0.000 C 
ENDBRANCH  36  38
ENDBRANCH  24  36
ENDBRANCH  23  27
ENDBRANCH   1  23
TORSDOF 7
ENDMDL
MODEL 7
REMARK VINA RESULT:      -8.4      2.818      3.000
REMARK  Name = 
REMARK  12 active torsions:
REMARK  status: ('A' for Active; 'I' for Inactive)
REMARK    1  A    between atoms: C_1  and  C_2
REMARK    2  A    between atoms: C_2  and  O_3
REMARK    3  A    between atoms: O_3  and  C_4
REMARK    4  A    between atoms: C_7  and  O_8
REMARK    5  A    between atoms: O_8  and  C_9
REMARK    6  A    between atoms: C_12  and  N_13
REMARK    7  A    between atoms: C_19  and  C_20
REMARK    8  A    between atoms: C_20  and  C_21
REMARK    9  A    between atoms: C_20  and  C_22
REMARK   10  A    between atoms: C_20  and  C_23
REMARK   11  A    between atoms: C_34  and  O_35
REMARK   12  A    between atoms: O_35  and  C_36
REMARK                            x       y       z     vdW  Elec       q    Type
REMARK                         _______ _______ _______ _____ _____    ______ ____
ROOT
ATOM      1  C   UNL     1       2.392   7.328  19.550  0.00  0.00    +0.000 A 
ATOM      2  C   UNL     1       2.297   8.196  18.460  0.00  0.00    +0.000 A 
ATOM      3  C   UNL     1       1.368   9.232  18.457  0.00  0.00    +0.000 A 
ATOM      4  C   UNL     1       0.450   9.365  19.497  0.00  0.00    +0.000 A 
ATOM      5  C   UNL     1       0.538   8.509  20.599  0.00  0.00    +0.000 A 
ATOM      6  C   UNL     1       1.503   7.491  20.612  0.00  0.00    +0.000 A 
ATOM      7  F   UNL     1       1.553   6.669  21.670  0.00  0.00    +0.000 F 
ENDROOT
BRANCH   4   8
ATOM      8  N   UNL     1      -0.585  10.309  19.447  0.00  0.00    +0.000 N 
ATOM      9  C   UNL     1      -1.478  10.475  18.408  0.00  0.00    +0.000 C 
ATOM     10  O   UNL     1      -1.490   9.844  17.351  0.00  0.00    +0.000 OA
ATOM     11  N   UNL     1      -2.486  11.371  18.606  0.00  0.00    +0.000 N 
ATOM     12  C   UNL     1      -2.651  12.232  19.660  0.00  0.00    +0.000 A 
ATOM     13  C   UNL     1      -3.796  13.026  19.865  0.00  0.00    +0.000 A 
ATOM     14  C   UNL     1      -3.529  13.719  21.023  0.00  0.00    +0.000 A 
ATOM     15  O   UNL     1      -2.298  13.361  21.475  0.00  0.00    +0.000 OA
ATOM     16  N   UNL     1      -1.757  12.419  20.634  0.00  0.00    +0.000 NA
ATOM     17  H   UNL     1      -0.816  10.808  20.302  0.00  0.00    +0.000 HD
ATOM     18  H   UNL     1      -3.179  11.372  17.869  0.00  0.00    +0.000 HD
BRANCH  14  19
ATOM     19  C   UNL     1      -4.298  14.717  21.837  0.00  0.00    +0.000 C 
ATOM     20  C   UNL     1      -3.433  15.154  23.031  0.00  0.00    +0.000 C 
ATOM     21  C   UNL     1      -4.661  15.960  21.006  0.00  0.00    +0.000 C 
ATOM     22  C   UNL     1      -5.594  14.061  22.342  0.00  0.00    +0.000 C 
ENDBRANCH  14  19
ENDBRANCH   4   8
BRANCH   1  23
ATOM     23  O   UNL     1       3.332   6.312  19.607  0.00  0.00    +0.000 OA
BRANCH  23  27
ATOM     24  C   UNL     1       6.721   6.300  16.864  0.00  0.00    +0.000 A 
ATOM     25  C   UNL     1       5.623   6.366  17.755  0.00  0.00    +0.000 A 
ATOM     26  C   UNL     1       4.523   5.467  17.661  0.00  0.00    +0.000 A 
ATOM     27  C   UNL     1       3.397   5.447  18.521  0.00  0.00    +0.000 A 
ATOM     28  C   UNL     1       2.349   4.550  18.285  0.00  0.00    +0.000 A 
ATOM     29  C   UNL     1       2.512   3.612  17.295  0.00  0.00    +0.000 A 
ATOM     30  N   UNL     1       3.579   3.575  16.481  0.00  0.00    +0.000 NA
ATOM     31  C   UNL     1       4.543   4.501  16.646  0.00  0.00    +0.000 A 
ATOM     32  C   UNL     1       5.602   4.468  15.764  0.00  0.00    +0.000 A 
ATOM     33  C   UNL     1       6.691   5.348  15.837  0.00  0.00    +0.000 A 
BRANCH  33  34
ATOM     34  O   UNL     1       7.593   5.087  14.845  0.00  0.00    +0.000 OA
ATOM     35  C   UNL     1       7.166   4.810  13.525  0.00  0.00    +0.000 C 
ENDBRANCH  33  34
BRANCH  24  36
ATOM     36  O   UNL     1       7.801   7.137  16.954  0.00  0.00    +0.000 OA
BRANCH  36  38
ATOM     37  C   UNL     1       8.681   8.795  18.451  0.00  0.00    +0.000 C 
ATOM     38  C   UNL     1       7.554   8.436  17.497  0.00  0.00    +0.000 C 
ENDBRANCH  36  38
ENDBRANCH  24  36
ENDBRANCH  23  27
ENDBRANCH   1  23
TORSDOF 7
ENDMDL
MODEL 8
REMARK VINA RESULT:      -8.3      4.460     11.801
REMARK  Name = 
REMARK  12 active torsions:
REMARK  status: ('A' for Active; 'I' for Inactive)
REMARK    1  A    between atoms: C_1  and  C_2
REMARK    2  A    between atoms: C_2  and  O_3
REMARK    3  A    between atoms: O_3  and  C_4
REMARK    4  A    between atoms: C_7  and  O_8
REMARK    5  A    between atoms: O_8  and  C_9
REMARK    6  A    between atoms: C_12  and  N_13
REMARK    7  A    between atoms: C_19  and  C_20
REMARK    8  A    between atoms: C_20  and  C_21
REMARK    9  A    between atoms: C_20  and  C_22
REMARK   10  A    between atoms: C_20  and  C_23
REMARK   11  A    between atoms: C_34  and  O_35
REMARK   12  A    between atoms: O_35  and  C_36
REMARK                            x       y       z     vdW  Elec       q    Type
REMARK                         _______ _______ _______ _____ _____    ______ ____
ROOT
ATOM      1  C   UNL     1      -1.165  12.884  19.969  0.00  0.00    +0.000 A 
ATOM      2  C   UNL     1       0.090  12.836  20.579  0.00  0.00    +0.000 A 
ATOM      3  C   UNL     1       0.844  11.667  20.559  0.00  0.00    +0.000 A 
ATOM      4  C   UNL     1       0.323  10.495  20.015  0.00  0.00    +0.000 A 
ATOM      5  C   UNL     1      -0.928  10.530  19.392  0.00  0.00    +0.000 A 
ATOM      6  C   UNL     1      -1.666  11.722  19.382  0.00  0.00    +0.000 A 
ATOM      7  F   UNL     1      -2.873  11.724  18.798  0.00  0.00    +0.000 F 
ENDROOT
BRANCH   4   8
ATOM      8  N   UNL     1       1.005   9.274  20.112  0.00  0.00    +0.000 N 
ATOM      9  C   UNL     1       1.259   8.581  21.277  0.00  0.00    +0.000 C 
ATOM     10  O   UNL     1       0.957   8.937  22.417  0.00  0.00    +0.000 OA
ATOM     11  N   UNL     1       1.832   7.352  21.144  0.00  0.00    +0.000 N 
ATOM     12  C   UNL     1       2.313   6.767  20.002  0.00  0.00    +0.000 A 
ATOM     13  C   UNL     1       2.761   5.434  19.919  0.00  0.00    +0.000 A 
ATOM     14  C   UNL     1       3.146   5.283  18.607  0.00  0.00    +0.000 A 
ATOM     15  O   UNL     1       2.945   6.457  17.952  0.00  0.00    +0.000 OA
ATOM     16  N   UNL     1       2.408   7.378  18.818  0.00  0.00    +0.000 NA
ATOM     17  H   UNL     1       1.187   8.762  19.253  0.00  0.00    +0.000 HD
ATOM     18  H   UNL     1       1.891   6.835  22.012  0.00  0.00    +0.000 HD
BRANCH  14  19
ATOM     19  C   UNL     1       3.695   4.137  17.811  0.00  0.00    +0.000 C 
ATOM     20  C   UNL     1       2.522   3.335  17.222  0.00  0.00    +0.000 C 
ATOM     21  C   UNL     1       4.589   4.628  16.659  0.00  0.00    +0.000 C 
ATOM     22  C   UNL     1       4.530   3.237  18.738  0.00  0.00    +0.000 C 
ENDBRANCH  14  19
ENDBRANCH   4   8
BRANCH   1  23
ATOM     23  O   UNL     1      -1.927  14.041  19.932  0.00  0.00    +0.000 OA
BRANCH  23  27
ATOM     24  C   UNL     1      -5.481  12.718  22.083  0.00  0.00    +0.000 A 
ATOM     25  C   UNL     1      -4.359  13.145  21.332  0.00  0.00    +0.000 A 
ATOM     26  C   UNL     1      -3.454  14.126  21.824  0.00  0.00    +0.000 A 
ATOM     27  C   UNL     1      -2.297  14.595  21.151  0.00  0.00    +0.000 A 
ATOM     28  C   UNL     1      -1.518  15.610  21.717  0.00  0.00    +0.000 A 
ATOM     29  C   UNL     1      -1.828  16.030  22.988  0.00  0.00    +0.000 A 
ATOM     30  N   UNL     1      -2.895  15.586  23.673  0.00  0.00    +0.000 NA
ATOM     31  C   UNL     1      -3.699  14.680  23.087  0.00  0.00    +0.000 A 
ATOM     32  C   UNL     1      -4.813  14.280  23.796  0.00  0.00    +0.000 A 
ATOM     33  C   UNL     1      -5.719  13.320  23.325  0.00  0.00    +0.000 A 
BRANCH  33  34
ATOM     34  O   UNL     1      -6.722  13.115  24.230  0.00  0.00    +0.000 OA
ATOM     35  C   UNL     1      -7.896  13.904  24.210  0.00  0.00    +0.000 C 
ENDBRANCH  33  34
BRANCH  24  36
ATOM     36  O   UNL     1      -6.349  11.757  21.640  0.00  0.00    +0.000 OA
BRANCH  36  38
ATOM     37  C   UNL     1      -7.246  11.595  19.418  0.00  0.00    +0.000 C 
ATOM     38  C   UNL     1      -7.417  12.203  20.800  0.00  0.00    +0.000 C 
ENDBRANCH  36  38
ENDBRANCH  24  36
ENDBRANCH  23  27
ENDBRANCH   1  23
TORSDOF 7
ENDMDL
MODEL 9
REMARK VINA RESULT:      -8.2      3.419      4.357
REMARK  Name = 
REMARK  12 active torsions:
REMARK  status: ('A' for Active; 'I' for Inactive)
REMARK    1  A    between atoms: C_1  and  C_2
REMARK    2  A    between atoms: C_2  and  O_3
REMARK    3  A    between atoms: O_3  and  C_4
REMARK    4  A    between atoms: C_7  and  O_8
REMARK    5  A    between atoms: O_8  and  C_9
REMARK    6  A    between atoms: C_12  and  N_13
REMARK    7  A    between atoms: C_19  and  C_20
REMARK    8  A    between atoms: C_20  and  C_21
REMARK    9  A    between atoms: C_20  and  C_22
REMARK   10  A    between atoms: C_20  and  C_23
REMARK   11  A    between atoms: C_34  and  O_35
REMARK   12  A    between atoms: O_35  and  C_36
REMARK                            x       y       z     vdW  Elec       q    Type
REMARK                         _______ _______ _______ _____ _____    ______ ____
ROOT
ATOM      1  C   UNL     1       1.591   8.208  20.376  0.00  0.00    +0.000 A 
ATOM      2  C   UNL     1       0.737   8.354  21.471  0.00  0.00    +0.000 A 
ATOM      3  C   UNL     1      -0.319   9.260  21.432  0.00  0.00    +0.000 A 
ATOM      4  C   UNL     1      -0.486  10.108  20.338  0.00  0.00    +0.000 A 
ATOM      5  C   UNL     1       0.357   9.967  19.231  0.00  0.00    +0.000 A 
ATOM      6  C   UNL     1       1.394   9.025  19.263  0.00  0.00    +0.000 A 
ATOM      7  F   UNL     1       2.202   8.924  18.197  0.00  0.00    +0.000 F 
ENDROOT
BRANCH   4   8
ATOM      8  N   UNL     1      -1.451  11.124  20.338  0.00  0.00    +0.000 N 
ATOM      9  C   UNL     1      -1.528  12.166  19.437  0.00  0.00    +0.000 C 
ATOM     10  O   UNL     1      -0.746  12.387  18.511  0.00  0.00    +0.000 OA
ATOM     11  N   UNL     1      -2.614  12.982  19.538  0.00  0.00    +0.000 N 
ATOM     12  C   UNL     1      -3.580  12.982  20.511  0.00  0.00    +0.000 A 
ATOM     13  C   UNL     1      -4.751  13.763  20.469  0.00  0.00    +0.000 A 
ATOM     14  C   UNL     1      -5.416  13.446  21.631  0.00  0.00    +0.000 A 
ATOM     15  O   UNL     1      -4.680  12.536  22.323  0.00  0.00    +0.000 OA
ATOM     16  N   UNL     1      -3.543  12.233  21.616  0.00  0.00    +0.000 NA
ATOM     17  H   UNL     1      -2.263  11.009  20.939  0.00  0.00    +0.000 HD
ATOM     18  H   UNL     1      -2.687  13.656  18.787  0.00  0.00    +0.000 HD
BRANCH  14  19
ATOM     19  C   UNL     1      -6.722  13.875  22.230  0.00  0.00    +0.000 C 
ATOM     20  C   UNL     1      -7.075  15.275  21.699  0.00  0.00    +0.000 C 
ATOM     21  C   UNL     1      -7.857  12.904  21.862  0.00  0.00    +0.000 C 
ATOM     22  C   UNL     1      -6.581  13.916  23.761  0.00  0.00    +0.000 C 
ENDBRANCH  14  19
ENDBRANCH   4   8
BRANCH   1  23
ATOM     23  O   UNL     1       2.626   7.287  20.363  0.00  0.00    +0.000 OA
BRANCH  23  27
ATOM     24  C   UNL     1       4.960   6.005  16.911  0.00  0.00    +0.000 A 
ATOM     25  C   UNL     1       4.200   6.478  18.008  0.00  0.00    +0.000 A 
ATOM     26  C   UNL     1       3.179   5.693  18.611  0.00  0.00    +0.000 A 
ATOM     27  C   UNL     1       2.388   6.077  19.723  0.00  0.00    +0.000 A 
ATOM     28  C   UNL     1       1.371   5.235  20.185  0.00  0.00    +0.000 A 
ATOM     29  C   UNL     1       1.260   3.986  19.624  0.00  0.00    +0.000 A 
ATOM     30  N   UNL     1       2.013   3.571  18.593  0.00  0.00    +0.000 NA
ATOM     31  C   UNL     1       2.927   4.419  18.085  0.00  0.00    +0.000 A 
ATOM     32  C   UNL     1       3.650   3.981  16.995  0.00  0.00    +0.000 A 
ATOM     33  C   UNL     1       4.656   4.744  16.384  0.00  0.00    +0.000 A 
BRANCH  33  34
ATOM     34  O   UNL     1       5.208   4.066  15.334  0.00  0.00    +0.000 OA
ATOM     35  C   UNL     1       6.605   3.864  15.248  0.00  0.00    +0.000 C 
ENDBRANCH  33  34
BRANCH  24  36
ATOM     36  O   UNL     1       5.965   6.735  16.333  0.00  0.00    +0.000 OA
BRANCH  36  38
ATOM     37  C   UNL     1       7.629   6.308  18.011  0.00  0.00    +0.000 C 
ATOM     38  C   UNL     1       6.880   7.373  17.227  0.00  0.00    +0.000 C 
ENDBRANCH  36  38
ENDBRANCH  24  36
ENDBRANCH  23  27
ENDBRANCH   1  23
TORSDOF 7
ENDMDL
