MODEL 1
REMARK VINA RESULT:      -9.1      0.000      0.000
REMARK  Name = 
REMARK  4 active torsions:
REMARK  status: ('A' for Active; 'I' for Inactive)
REMARK    1  A    between atoms: C_2  and  C_3
REMARK    2  A    between atoms: C_6  and  N_7
REMARK    3  A    between atoms: N_7  and  C_8
REMARK    4  A    between atoms: C_18  and  N_19
REMARK                            x       y       z     vdW  Elec       q    Type
REMARK                         _______ _______ _______ _____ _____    ______ ____
ROOT
ATOM      1  C   UNL     1       3.444   5.496  18.824  0.00  0.00    +0.000 A 
ATOM      2  C   UNL     1       2.578   4.368  18.918  0.00  0.00    +0.000 A 
ATOM      3  C   UNL     1       1.510   4.247  19.847  0.00  0.00    +0.000 A 
ATOM      4  C   UNL     1       0.666   3.141  19.862  0.00  0.00    +0.000 A 
ATOM      5  C   UNL     1       0.907   2.102  18.982  0.00  0.00    +0.000 A 
ATOM      6  C   UNL     1       1.990   2.182  18.102  0.00  0.00    +0.000 A 
ATOM      7  C   UNL     1       2.828   3.290  18.053  0.00  0.00    +0.000 A 
ATOM      8  N   UNL     1       3.839   3.281  17.173  0.00  0.00    +0.000 NA
ATOM      9  C   UNL     1       4.670   4.331  17.096  0.00  0.00    +0.000 A 
ATOM     10  C   UNL     1       5.692   4.290  16.151  0.00  0.00    +0.000 A 
ATOM     11  C   UNL     1       6.626   5.318  15.999  0.00  0.00    +0.000 A 
ATOM     12  C   UNL     1       6.474   6.461  16.774  0.00  0.00    +0.000 A 
ATOM     13  C   UNL     1       5.453   6.534  17.726  0.00  0.00    +0.000 A 
ATOM     14  C   UNL     1       4.531   5.474  17.906  0.00  0.00    +0.000 A 
ENDROOT
BRANCH  11  15
ATOM     15  N   UNL     1       7.529   5.307  14.930  0.00  0.00    +0.000 N 
ATOM     16  H   UNL     1       8.487   5.526  15.187  0.00  0.00    +0.000 HD
ATOM     17  H   UNL     1       7.221   5.819  14.110  0.00  0.00    +0.000 HD
ENDBRANCH  11  15
BRANCH   1  18
ATOM     18  N   UNL     1       3.201   6.671  19.590  0.00  0.00    +0.000 N 
ATOM     19  H   UNL     1       3.845   6.806  20.361  0.00  0.00    +0.000 HD
BRANCH  18  23
ATOM     20  C   UNL     1       0.568   9.926  19.005  0.00  0.00    +0.000 A 
ATOM     21  C   UNL     1       1.301   9.395  17.940  0.00  0.00    +0.000 A 
ATOM     22  C   UNL     1       2.136   8.290  18.141  0.00  0.00    +0.000 A 
ATOM     23  C   UNL     1       2.253   7.694  19.404  0.00  0.00    +0.000 A 
ATOM     24  C   UNL     1       1.514   8.240  20.464  0.00  0.00    +0.000 A 
ATOM     25  C   UNL     1       0.679   9.347  20.270  0.00  0.00    +0.000 A 
BRANCH  20  27
ATOM     26  N   UNL     1      -0.974  11.977  18.630  0.00  0.00    +0.000 NA
ATOM     27  C   UNL     1      -0.288  11.058  18.800  0.00  0.00    +0.000 C 
ENDBRANCH  20  27
ENDBRANCH  18  23
ENDBRANCH   1  18
TORSDOF 4
ENDMDL
MODEL 2
REMARK VINA RESULT:      -8.0      1.485      1.831
REMARK  Name = 
REMARK  4 active torsions:
REMARK  status: ('A' for Active; 'I' for Inactive)
REMARK    1  A    between atoms: C_2  and  C_3
REMARK    2  A    between atoms: C_6  and  N_7
REMARK    3  A    between atoms: N_7  and  C_8
REMARK    4  A    between atoms: C_18  and  N_19
REMARK                            x       y       z     vdW  Elec       q    Type
REMARK                         _______ _______ _______ _____ _____    ______ ____
ROOT
ATOM      1  C   UNL     1       2.964   5.691  18.559  0.00  0.00    +0.000 A 
ATOM      2  C   UNL     1       2.762   4.659  19.521  0.00  0.00    +0.000 A 
ATOM      3  C   UNL     1       1.660   4.595  20.414  0.00  0.00    +0.000 A 
ATOM      4  C   UNL     1       1.489   3.537  21.302  0.00  0.00    +0.000 A 
ATOM      5  C   UNL     1       2.450   2.545  21.356  0.00  0.00    +0.000 A 
ATOM      6  C   UNL     1       3.570   2.626  20.523  0.00  0.00    +0.000 A 
ATOM      7  C   UNL     1       3.745   3.659  19.611  0.00  0.00    +0.000 A 
ATOM      8  N   UNL     1       4.848   3.652  18.849  0.00  0.00    +0.000 NA
ATOM      9  C   UNL     1       5.054   4.633  17.957  0.00  0.00    +0.000 A 
ATOM     10  C   UNL     1       6.201   4.573  17.170  0.00  0.00    +0.000 A 
ATOM     11  C   UNL     1       6.524   5.551  16.226  0.00  0.00    +0.000 A 
ATOM     12  C   UNL     1       5.618   6.582  16.014  0.00  0.00    +0.000 A 
ATOM     13  C   UNL     1       4.454   6.665  16.784  0.00  0.00    +0.000 A 
ATOM     14  C   UNL     1       4.148   5.694  17.769  0.00  0.00    +0.000 A 
ENDROOT
BRANCH  11  15
ATOM     15  N   UNL     1       7.596   5.364  15.346  0.00  0.00    +0.000 N 
ATOM     16  H   UNL     1       7.331   5.022  14.426  0.00  0.00    +0.000 HD
ATOM     17  H   UNL     1       8.382   4.855  15.736  0.00  0.00    +0.000 HD
ENDBRANCH  11  15
BRANCH   1  18
ATOM     18  N   UNL     1       1.970   6.685  18.331  0.00  0.00    +0.000 N 
ATOM     19  H   UNL     1       1.284   6.433  17.630  0.00  0.00    +0.000 HD
BRANCH  18  23
ATOM     20  C   UNL     1       1.082  10.321  20.294  0.00  0.00    +0.000 A 
ATOM     21  C   UNL     1       1.243   9.136  21.017  0.00  0.00    +0.000 A 
ATOM     22  C   UNL     1       1.579   7.948  20.357  0.00  0.00    +0.000 A 
ATOM     23  C   UNL     1       1.764   7.922  18.968  0.00  0.00    +0.000 A 
ATOM     24  C   UNL     1       1.595   9.118  18.256  0.00  0.00    +0.000 A 
ATOM     25  C   UNL     1       1.256  10.309  18.909  0.00  0.00    +0.000 A 
BRANCH  20  27
ATOM     26  N   UNL     1       0.460  12.518  21.523  0.00  0.00    +0.000 NA
ATOM     27  C   UNL     1       0.739  11.538  20.970  0.00  0.00    +0.000 C 
ENDBRANCH  20  27
ENDBRANCH  18  23
ENDBRANCH   1  18
TORSDOF 4
ENDMDL
MODEL 3
REMARK VINA RESULT:      -7.9      1.728      4.414
REMARK  Name = 
REMARK  4 active torsions:
REMARK  status: ('A' for Active; 'I' for Inactive)
REMARK    1  A    between atoms: C_2  and  C_3
REMARK    2  A    between atoms: C_6  and  N_7
REMARK    3  A    between atoms: N_7  and  C_8
REMARK    4  A    between atoms: C_18  and  N_19
REMARK                            x       y       z     vdW  Elec       q    Type
REMARK                         _______ _______ _______ _____ _____    ______ ____
ROOT
ATOM      1  C   UNL     1       3.938   6.190  17.763  0.00  0.00    +0.000 A 
ATOM      2  C   UNL     1       5.349   6.305  17.920  0.00  0.00    +0.000 A 
ATOM      3  C   UNL     1       6.102   7.470  17.613  0.00  0.00    +0.000 A 
ATOM      4  C   UNL     1       7.474   7.541  17.831  0.00  0.00    +0.000 A 
ATOM      5  C   UNL     1       8.136   6.425  18.309  0.00  0.00    +0.000 A 
ATOM      6  C   UNL     1       7.417   5.253  18.559  0.00  0.00    +0.000 A 
ATOM      7  C   UNL     1       6.042   5.171  18.375  0.00  0.00    +0.000 A 
ATOM      8  N   UNL     1       5.435   4.007  18.646  0.00  0.00    +0.000 NA
ATOM      9  C   UNL     1       4.109   3.887  18.479  0.00  0.00    +0.000 A 
ATOM     10  C   UNL     1       3.516   2.667  18.797  0.00  0.00    +0.000 A 
ATOM     11  C   UNL     1       2.148   2.427  18.641  0.00  0.00    +0.000 A 
ATOM     12  C   UNL     1       1.341   3.478  18.228  0.00  0.00    +0.000 A 
ATOM     13  C   UNL     1       1.906   4.716  17.909  0.00  0.00    +0.000 A 
ATOM     14  C   UNL     1       3.299   4.946  18.029  0.00  0.00    +0.000 A 
ENDROOT
BRANCH  11  15
ATOM     15  N   UNL     1       1.574   1.247  19.127  0.00  0.00    +0.000 N 
ATOM     16  H   UNL     1       2.239   0.503  19.318  0.00  0.00    +0.000 HD
ATOM     17  H   UNL     1       0.767   0.921  18.606  0.00  0.00    +0.000 HD
ENDBRANCH  11  15
BRANCH   1  18
ATOM     18  N   UNL     1       3.146   7.319  17.406  0.00  0.00    +0.000 N 
ATOM     19  H   UNL     1       3.088   7.487  16.408  0.00  0.00    +0.000 HD
BRANCH  18  23
ATOM     20  C   UNL     1       0.674   9.738  19.834  0.00  0.00    +0.000 A 
ATOM     21  C   UNL     1       1.306   8.607  20.356  0.00  0.00    +0.000 A 
ATOM     22  C   UNL     1       2.157   7.840  19.551  0.00  0.00    +0.000 A 
ATOM     23  C   UNL     1       2.392   8.189  18.214  0.00  0.00    +0.000 A 
ATOM     24  C   UNL     1       1.747   9.324  17.703  0.00  0.00    +0.000 A 
ATOM     25  C   UNL     1       0.894  10.094  18.502  0.00  0.00    +0.000 A 
BRANCH  20  27
ATOM     26  N   UNL     1      -0.893  11.165  21.329  0.00  0.00    +0.000 NA
ATOM     27  C   UNL     1      -0.197  10.525  20.659  0.00  0.00    +0.000 C 
ENDBRANCH  20  27
ENDBRANCH  18  23
ENDBRANCH   1  18
TORSDOF 4
ENDMDL
MODEL 4
REMARK VINA RESULT:      -7.8      1.913      4.608
REMARK  Name = 
REMARK  4 active torsions:
REMARK  status: ('A' for Active; 'I' for Inactive)
REMARK    1  A    between atoms: C_2  and  C_3
REMARK    2  A    between atoms: C_6  and  N_7
REMARK    3  A    between atoms: N_7  and  C_8
REMARK    4  A    between atoms: C_18  and  N_19
REMARK                            x       y       z     vdW  Elec       q    Type
REMARK                         _______ _______ _______ _____ _____    ______ ____
ROOT
ATOM      1  C   UNL     1       3.316   5.902  18.450  0.00  0.00    +0.000 A 
ATOM      2  C   UNL     1       4.698   5.921  18.107  0.00  0.00    +0.000 A 
ATOM      3  C   UNL     1       5.292   6.838  17.200  0.00  0.00    +0.000 A 
ATOM      4  C   UNL     1       6.659   6.840  16.939  0.00  0.00    +0.000 A 
ATOM      5  C   UNL     1       7.457   5.883  17.538  0.00  0.00    +0.000 A 
ATOM      6  C   UNL     1       6.877   4.937  18.388  0.00  0.00    +0.000 A 
ATOM      7  C   UNL     1       5.519   4.936  18.683  0.00  0.00    +0.000 A 
ATOM      8  N   UNL     1       5.051   3.993  19.514  0.00  0.00    +0.000 NA
ATOM      9  C   UNL     1       3.746   3.958  19.822  0.00  0.00    +0.000 A 
ATOM     10  C   UNL     1       3.308   2.977  20.707  0.00  0.00    +0.000 A 
ATOM     11  C   UNL     1       1.969   2.836  21.080  0.00  0.00    +0.000 A 
ATOM     12  C   UNL     1       1.055   3.767  20.605  0.00  0.00    +0.000 A 
ATOM     13  C   UNL     1       1.466   4.769  19.721  0.00  0.00    +0.000 A 
ATOM     14  C   UNL     1       2.818   4.885  19.312  0.00  0.00    +0.000 A 
ENDROOT
BRANCH  11  15
ATOM     15  N   UNL     1       1.603   1.945  22.095  0.00  0.00    +0.000 N 
ATOM     16  H   UNL     1       1.977   1.007  21.987  0.00  0.00    +0.000 HD
ATOM     17  H   UNL     1       0.614   1.945  22.324  0.00  0.00    +0.000 HD
ENDBRANCH  11  15
BRANCH   1  18
ATOM     18  N   UNL     1       2.435   6.923  17.993  0.00  0.00    +0.000 N 
ATOM     19  H   UNL     1       1.998   6.727  17.100  0.00  0.00    +0.000 HD
BRANCH  18  23
ATOM     20  C   UNL     1       0.975  10.409  19.887  0.00  0.00    +0.000 A 
ATOM     21  C   UNL     1       1.202   9.238  20.615  0.00  0.00    +0.000 A 
ATOM     22  C   UNL     1       1.726   8.104  19.982  0.00  0.00    +0.000 A 
ATOM     23  C   UNL     1       2.035   8.120  18.615  0.00  0.00    +0.000 A 
ATOM     24  C   UNL     1       1.799   9.301  17.897  0.00  0.00    +0.000 A 
ATOM     25  C   UNL     1       1.272  10.437  18.523  0.00  0.00    +0.000 A 
BRANCH  20  27
ATOM     26  N   UNL     1       0.001  12.511  21.052  0.00  0.00    +0.000 NA
ATOM     27  C   UNL     1       0.439  11.570  20.535  0.00  0.00    +0.000 C 
ENDBRANCH  20  27
ENDBRANCH  18  23
ENDBRANCH   1  18
TORSDOF 4
ENDMDL
MODEL 5
REMARK VINA RESULT:      -7.5      1.561      4.138
REMARK  Name = 
REMARK  4 active torsions:
REMARK  status: ('A' for Active; 'I' for Inactive)
REMARK    1  A    between atoms: C_2  and  C_3
REMARK    2  A    between atoms: C_6  and  N_7
REMARK    3  A    between atoms: N_7  and  C_8
REMARK    4  A    between atoms: C_18  and  N_19
REMARK                            x       y       z     vdW  Elec       q    Type
REMARK                         _______ _______ _______ _____ _____    ______ ____
ROOT
ATOM      1  C   UNL     1       3.542   6.028  18.378  0.00  0.00    +0.000 A 
ATOM      2  C   UNL     1       4.285   5.582  17.247  0.00  0.00    +0.000 A 
ATOM      3  C   UNL     1       4.810   6.435  16.240  0.00  0.00    +0.000 A 
ATOM      4  C   UNL     1       5.571   5.948  15.182  0.00  0.00    +0.000 A 
ATOM      5  C   UNL     1       5.775   4.584  15.074  0.00  0.00    +0.000 A 
ATOM      6  C   UNL     1       5.215   3.728  16.026  0.00  0.00    +0.000 A 
ATOM      7  C   UNL     1       4.476   4.197  17.106  0.00  0.00    +0.000 A 
ATOM      8  N   UNL     1       3.981   3.302  17.972  0.00  0.00    +0.000 NA
ATOM      9  C   UNL     1       3.262   3.716  19.027  0.00  0.00    +0.000 A 
ATOM     10  C   UNL     1       2.788   2.753  19.914  0.00  0.00    +0.000 A 
ATOM     11  C   UNL     1       2.011   3.070  21.032  0.00  0.00    +0.000 A 
ATOM     12  C   UNL     1       1.775   4.411  21.306  0.00  0.00    +0.000 A 
ATOM     13  C   UNL     1       2.245   5.400  20.437  0.00  0.00    +0.000 A 
ATOM     14  C   UNL     1       2.997   5.074  19.283  0.00  0.00    +0.000 A 
ENDROOT
BRANCH  11  15
ATOM     15  N   UNL     1       1.699   2.092  21.982  0.00  0.00    +0.000 N 
ATOM     16  H   UNL     1       0.862   2.283  22.524  0.00  0.00    +0.000 HD
ATOM     17  H   UNL     1       2.478   1.800  22.563  0.00  0.00    +0.000 HD
ENDBRANCH  11  15
BRANCH   1  18
ATOM     18  N   UNL     1       3.390   7.417  18.652  0.00  0.00    +0.000 N 
ATOM     19  H   UNL     1       4.261   7.932  18.688  0.00  0.00    +0.000 HD
BRANCH  18  23
ATOM     20  C   UNL     1       0.039   9.954  19.099  0.00  0.00    +0.000 A 
ATOM     21  C   UNL     1       0.574   9.689  17.836  0.00  0.00    +0.000 A 
ATOM     22  C   UNL     1       1.658   8.812  17.700  0.00  0.00    +0.000 A 
ATOM     23  C   UNL     1       2.223   8.184  18.818  0.00  0.00    +0.000 A 
ATOM     24  C   UNL     1       1.677   8.464  20.080  0.00  0.00    +0.000 A 
ATOM     25  C   UNL     1       0.595   9.341  20.223  0.00  0.00    +0.000 A 
BRANCH  20  27
ATOM     26  N   UNL     1      -1.964  11.582  19.349  0.00  0.00    +0.000 NA
ATOM     27  C   UNL     1      -1.071  10.851  19.239  0.00  0.00    +0.000 C 
ENDBRANCH  20  27
ENDBRANCH  18  23
ENDBRANCH   1  18
TORSDOF 4
ENDMDL
MODEL 6
REMARK VINA RESULT:      -7.3      0.967      4.157
REMARK  Name = 
REMARK  4 active torsions:
REMARK  status: ('A' for Active; 'I' for Inactive)
REMARK    1  A    between atoms: C_2  and  C_3
REMARK    2  A    between atoms: C_6  and  N_7
REMARK    3  A    between atoms: N_7  and  C_8
REMARK    4  A    between atoms: C_18  and  N_19
REMARK                            x       y       z     vdW  Elec       q    Type
REMARK                         _______ _______ _______ _____ _____    ______ ____
ROOT
ATOM      1  C   UNL     1       3.591   5.774  18.684  0.00  0.00    +0.000 A 
ATOM      2  C   UNL     1       4.765   5.778  17.877  0.00  0.00    +0.000 A 
ATOM      3  C   UNL     1       5.615   6.902  17.698  0.00  0.00    +0.000 A 
ATOM      4  C   UNL     1       6.777   6.835  16.934  0.00  0.00    +0.000 A 
ATOM      5  C   UNL     1       7.085   5.654  16.283  0.00  0.00    +0.000 A 
ATOM      6  C   UNL     1       6.225   4.558  16.403  0.00  0.00    +0.000 A 
ATOM      7  C   UNL     1       5.076   4.597  17.184  0.00  0.00    +0.000 A 
ATOM      8  N   UNL     1       4.314   3.495  17.244  0.00  0.00    +0.000 NA
ATOM      9  C   UNL     1       3.195   3.493  17.986  0.00  0.00    +0.000 A 
ATOM     10  C   UNL     1       2.447   2.320  18.039  0.00  0.00    +0.000 A 
ATOM     11  C   UNL     1       1.256   2.213  18.762  0.00  0.00    +0.000 A 
ATOM     12  C   UNL     1       0.850   3.303  19.520  0.00  0.00    +0.000 A 
ATOM     13  C   UNL     1       1.585   4.492  19.493  0.00  0.00    +0.000 A 
ATOM     14  C   UNL     1       2.771   4.611  18.727  0.00  0.00    +0.000 A 
ENDROOT
BRANCH  11  15
ATOM     15  N   UNL     1       0.629   0.972  18.921  0.00  0.00    +0.000 N 
ATOM     16  H   UNL     1       0.201   0.605  18.075  0.00  0.00    +0.000 HD
ATOM     17  H   UNL     1       0.014   0.907  19.725  0.00  0.00    +0.000 HD
ENDBRANCH  11  15
BRANCH   1  18
ATOM     18  N   UNL     1       3.258   6.893  19.499  0.00  0.00    +0.000 N 
ATOM     19  H   UNL     1       3.880   7.033  20.287  0.00  0.00    +0.000 HD
BRANCH  18  23
ATOM     20  C   UNL     1       0.423   9.989  19.003  0.00  0.00    +0.000 A 
ATOM     21  C   UNL     1       1.166   9.515  17.918  0.00  0.00    +0.000 A 
ATOM     22  C   UNL     1       2.070   8.460  18.090  0.00  0.00    +0.000 A 
ATOM     23  C   UNL     1       2.247   7.859  19.343  0.00  0.00    +0.000 A 
ATOM     24  C   UNL     1       1.498   8.347  20.423  0.00  0.00    +0.000 A 
ATOM     25  C   UNL     1       0.594   9.404  20.259  0.00  0.00    +0.000 A 
BRANCH  20  27
ATOM     26  N   UNL     1      -1.248  11.945  18.680  0.00  0.00    +0.000 NA
ATOM     27  C   UNL     1      -0.504  11.069  18.828  0.00  0.00    +0.000 C 
ENDBRANCH  20  27
ENDBRANCH  18  23
ENDBRANCH   1  18
TORSDOF 4
ENDMDL
MODEL 7
REMARK VINA RESULT:      -7.3      3.215      6.288
REMARK  Name = 
REMARK  4 active torsions:
REMARK  status: ('A' for Active; 'I' for Inactive)
REMARK    1  A    between atoms: C_2  and  C_3
REMARK    2  A    between atoms: C_6  and  N_7
REMARK    3  A    between atoms: N_7  and  C_8
REMARK    4  A    between atoms: C_18  and  N_19
REMARK                            x       y       z     vdW  Elec       q    Type
REMARK                         _______ _______ _______ _____ _____    ______ ____
ROOT
ATOM      1  C   UNL     1       0.767  10.310  19.483  0.00  0.00    +0.000 A 
ATOM      2  C   UNL     1       0.155  10.369  20.768  0.00  0.00    +0.000 A 
ATOM      3  C   UNL     1      -0.553  11.492  21.273  0.00  0.00    +0.000 A 
ATOM      4  C   UNL     1      -1.172  11.476  22.519  0.00  0.00    +0.000 A 
ATOM      5  C   UNL     1      -1.048  10.352  23.316  0.00  0.00    +0.000 A 
ATOM      6  C   UNL     1      -0.304   9.262  22.856  0.00  0.00    +0.000 A 
ATOM      7  C   UNL     1       0.298   9.248  21.603  0.00  0.00    +0.000 A 
ATOM      8  N   UNL     1       0.988   8.156  21.243  0.00  0.00    +0.000 NA
ATOM      9  C   UNL     1       1.584   8.105  20.042  0.00  0.00    +0.000 A 
ATOM     10  C   UNL     1       2.270   6.941  19.701  0.00  0.00    +0.000 A 
ATOM     11  C   UNL     1       2.944   6.789  18.486  0.00  0.00    +0.000 A 
ATOM     12  C   UNL     1       2.855   7.814  17.554  0.00  0.00    +0.000 A 
ATOM     13  C   UNL     1       2.168   8.991  17.866  0.00  0.00    +0.000 A 
ATOM     14  C   UNL     1       1.519   9.160  19.114  0.00  0.00    +0.000 A 
ENDROOT
BRANCH  11  15
ATOM     15  N   UNL     1       3.475   5.548  18.119  0.00  0.00    +0.000 N 
ATOM     16  H   UNL     1       3.350   5.309  17.140  0.00  0.00    +0.000 HD
ATOM     17  H   UNL     1       3.232   4.781  18.739  0.00  0.00    +0.000 HD
ENDBRANCH  11  15
BRANCH   1  18
ATOM     18  N   UNL     1       0.585  11.359  18.537  0.00  0.00    +0.000 N 
ATOM     19  H   UNL     1      -0.152  11.188  17.864  0.00  0.00    +0.000 HD
BRANCH  18  23
ATOM     20  C   UNL     1       2.635  15.055  18.478  0.00  0.00    +0.000 A 
ATOM     21  C   UNL     1       3.307  13.858  18.221  0.00  0.00    +0.000 A 
ATOM     22  C   UNL     1       2.606  12.646  18.202  0.00  0.00    +0.000 A 
ATOM     23  C   UNL     1       1.225  12.608  18.435  0.00  0.00    +0.000 A 
ATOM     24  C   UNL     1       0.564  13.817  18.696  0.00  0.00    +0.000 A 
ATOM     25  C   UNL     1       1.260  15.032  18.719  0.00  0.00    +0.000 A 
BRANCH  20  27
ATOM     26  N   UNL     1       3.937  17.298  18.506  0.00  0.00    +0.000 NA
ATOM     27  C   UNL     1       3.352  16.297  18.497  0.00  0.00    +0.000 C 
ENDBRANCH  20  27
ENDBRANCH  18  23
ENDBRANCH   1  18
TORSDOF 4
ENDMDL
MODEL 8
REMARK VINA RESULT:      -7.2      2.010      6.188
REMARK  Name = 
REMARK  4 active torsions:
REMARK  status: ('A' for Active; 'I' for Inactive)
REMARK    1  A    between atoms: C_2  and  C_3
REMARK    2  A    between atoms: C_6  and  N_7
REMARK    3  A    between atoms: N_7  and  C_8
REMARK    4  A    between atoms: C_18  and  N_19
REMARK                            x       y       z     vdW  Elec       q    Type
REMARK                         _______ _______ _______ _____ _____    ______ ____
ROOT
ATOM      1  C   UNL     1       4.169   5.143  18.866  0.00  0.00    +0.000 A 
ATOM      2  C   UNL     1       3.563   4.254  19.800  0.00  0.00    +0.000 A 
ATOM      3  C   UNL     1       4.070   2.971  20.138  0.00  0.00    +0.000 A 
ATOM      4  C   UNL     1       3.461   2.164  21.094  0.00  0.00    +0.000 A 
ATOM      5  C   UNL     1       2.295   2.601  21.695  0.00  0.00    +0.000 A 
ATOM      6  C   UNL     1       1.753   3.836  21.330  0.00  0.00    +0.000 A 
ATOM      7  C   UNL     1       2.361   4.668  20.397  0.00  0.00    +0.000 A 
ATOM      8  N   UNL     1       1.771   5.838  20.113  0.00  0.00    +0.000 NA
ATOM      9  C   UNL     1       2.327   6.669  19.217  0.00  0.00    +0.000 A 
ATOM     10  C   UNL     1       1.693   7.884  18.970  0.00  0.00    +0.000 A 
ATOM     11  C   UNL     1       2.172   8.813  18.042  0.00  0.00    +0.000 A 
ATOM     12  C   UNL     1       3.375   8.540  17.403  0.00  0.00    +0.000 A 
ATOM     13  C   UNL     1       4.037   7.332  17.637  0.00  0.00    +0.000 A 
ATOM     14  C   UNL     1       3.528   6.373  18.547  0.00  0.00    +0.000 A 
ENDROOT
BRANCH  11  15
ATOM     15  N   UNL     1       1.598  10.086  17.949  0.00  0.00    +0.000 N 
ATOM     16  H   UNL     1       1.178  10.422  18.811  0.00  0.00    +0.000 HD
ATOM     17  H   UNL     1       0.994  10.221  17.145  0.00  0.00    +0.000 HD
ENDBRANCH  11  15
BRANCH   1  18
ATOM     18  N   UNL     1       5.439   4.848  18.292  0.00  0.00    +0.000 N 
ATOM     19  H   UNL     1       6.197   4.802  18.962  0.00  0.00    +0.000 HD
BRANCH  18  23
ATOM     20  C   UNL     1       6.454   4.238  14.235  0.00  0.00    +0.000 A 
ATOM     21  C   UNL     1       7.363   4.821  15.122  0.00  0.00    +0.000 A 
ATOM     22  C   UNL     1       7.028   4.977  16.473  0.00  0.00    +0.000 A 
ATOM     23  C   UNL     1       5.785   4.552  16.961  0.00  0.00    +0.000 A 
ATOM     24  C   UNL     1       4.882   3.973  16.058  0.00  0.00    +0.000 A 
ATOM     25  C   UNL     1       5.210   3.816  14.706  0.00  0.00    +0.000 A 
BRANCH  20  27
ATOM     26  N   UNL     1       7.072   3.955  11.732  0.00  0.00    +0.000 NA
ATOM     27  C   UNL     1       6.797   4.077  12.852  0.00  0.00    +0.000 C 
ENDBRANCH  20  27
ENDBRANCH  18  23
ENDBRANCH   1  18
TORSDOF 4
ENDMDL
MODEL 9
REMARK VINA RESULT:      -7.1      1.384      1.646
REMARK  Name = 
REMARK  4 active torsions:
REMARK  status: ('A' for Active; 'I' for Inactive)
REMARK    1  A    between atoms: C_2  and  C_3
REMARK    2  A    between atoms: C_6  and  N_7
REMARK    3  A    between atoms: N_7  and  C_8
REMARK    4  A    between atoms: C_18  and  N_19
REMARK                            x       y       z     vdW  Elec       q    Type
REMARK                         _______ _______ _______ _____ _____    ______ ____
ROOT
ATOM      1  C   UNL     1       2.992   5.985  18.241  0.00  0.00    +0.000 A 
ATOM      2  C   UNL     1       2.491   4.881  18.989  0.00  0.00    +0.000 A 
ATOM      3  C   UNL     1       1.341   4.927  19.821  0.00  0.00    +0.000 A 
ATOM      4  C   UNL     1       0.870   3.803  20.492  0.00  0.00    +0.000 A 
ATOM      5  C   UNL     1       1.574   2.617  20.391  0.00  0.00    +0.000 A 
ATOM      6  C   UNL     1       2.740   2.573  19.623  0.00  0.00    +0.000 A 
ATOM      7  C   UNL     1       3.212   3.677  18.923  0.00  0.00    +0.000 A 
ATOM      8  N   UNL     1       4.337   3.540  18.207  0.00  0.00    +0.000 NA
ATOM      9  C   UNL     1       4.825   4.584  17.518  0.00  0.00    +0.000 A 
ATOM     10  C   UNL     1       5.983   4.390  16.769  0.00  0.00    +0.000 A 
ATOM     11  C   UNL     1       6.588   5.412  16.032  0.00  0.00    +0.000 A 
ATOM     12  C   UNL     1       5.958   6.648  15.987  0.00  0.00    +0.000 A 
ATOM     13  C   UNL     1       4.790   6.870  16.723  0.00  0.00    +0.000 A 
ATOM     14  C   UNL     1       4.200   5.844  17.501  0.00  0.00    +0.000 A 
ENDROOT
BRANCH  11  15
ATOM     15  N   UNL     1       7.650   5.131  15.166  0.00  0.00    +0.000 N 
ATOM     16  H   UNL     1       8.557   5.450  15.494  0.00  0.00    +0.000 HD
ATOM     17  H   UNL     1       7.482   5.373  14.195  0.00  0.00    +0.000 HD
ENDBRANCH  11  15
BRANCH   1  18
ATOM     18  N   UNL     1       2.269   7.210  18.170  0.00  0.00    +0.000 N 
ATOM     19  H   UNL     1       2.160   7.575  17.231  0.00  0.00    +0.000 HD
BRANCH  18  23
ATOM     20  C   UNL     1       0.555   9.644  21.171  0.00  0.00    +0.000 A 
ATOM     21  C   UNL     1       0.327   9.906  19.817  0.00  0.00    +0.000 A 
ATOM     22  C   UNL     1       0.866   9.065  18.836  0.00  0.00    +0.000 A 
ATOM     23  C   UNL     1       1.638   7.950  19.187  0.00  0.00    +0.000 A 
ATOM     24  C   UNL     1       1.862   7.702  20.549  0.00  0.00    +0.000 A 
ATOM     25  C   UNL     1       1.328   8.540  21.535  0.00  0.00    +0.000 A 
BRANCH  20  27
ATOM     26  N   UNL     1      -0.444  11.193  22.995  0.00  0.00    +0.000 NA
ATOM     27  C   UNL     1       0.002  10.504  22.176  0.00  0.00    +0.000 C 
ENDBRANCH  20  27
ENDBRANCH  18  23
ENDBRANCH   1  18
TORSDOF 4
ENDMDL
