MODEL 1
REMARK VINA RESULT:      -4.6      0.000      0.000
REMARK  Name = 
REMARK  3 active torsions:
REMARK  status: ('A' for Active; 'I' for Inactive)
REMARK    1  A    between atoms: C_1  and  N_2
REMARK    2  A    between atoms: C_4  and  C_5
REMARK    3  A    between atoms: C_5  and  O_6
REMARK                            x       y       z     vdW  Elec       q    Type
REMARK                         _______ _______ _______ _____ _____    ______ ____
ROOT
ATOM      1  C   UNL     1       3.443   1.743  17.964  0.00  0.00    +0.000 C 
ATOM      2  N   UNL     1       2.904   2.398  19.134  0.00  0.00    +0.000 N 
ATOM      3  C   UNL     1       1.486   2.509  19.354  0.00  0.00    +0.000 C 
ATOM      4  C   UNL     1       1.376   3.201  20.706  0.00  0.00    +0.000 C 
ATOM      5  C   UNL     1       2.651   2.768  21.441  0.00  0.00    +0.000 C 
ATOM      6  C   UNL     1       3.612   2.414  20.331  0.00  0.00    +0.000 C 
ATOM      7  O   UNL     1       4.786   2.120  20.478  0.00  0.00    +0.000 OA
ENDROOT
BRANCH   4   8
ATOM      8  C   UNL     1       1.288   4.720  20.562  0.00  0.00    +0.000 C 
BRANCH   8   9
ATOM      9  O   UNL     1       2.368   5.342  21.248  0.00  0.00    +0.000 OA
ATOM     10  H   UNL     1       3.066   5.543  20.601  0.00  0.00    +0.000 HD
ENDBRANCH   8   9
ENDBRANCH   4   8
TORSDOF 2
ENDMDL
MODEL 2
REMARK VINA RESULT:      -4.5      2.340      2.803
REMARK  Name = 
REMARK  3 active torsions:
REMARK  status: ('A' for Active; 'I' for Inactive)
REMARK    1  A    between atoms: C_1  and  N_2
REMARK    2  A    between atoms: C_4  and  C_5
REMARK    3  A    between atoms: C_5  and  O_6
REMARK                            x       y       z     vdW  Elec       q    Type
REMARK                         _______ _______ _______ _____ _____    ______ ____
ROOT
ATOM      1  C   UNL     1       3.480   5.166  17.692  0.00  0.00    +0.000 C 
ATOM      2  N   UNL     1       2.679   4.527  18.711  0.00  0.00    +0.000 N 
ATOM      3  C   UNL     1       2.106   5.271  19.802  0.00  0.00    +0.000 C 
ATOM      4  C   UNL     1       1.312   4.231  20.580  0.00  0.00    +0.000 C 
ATOM      5  C   UNL     1       0.906   3.209  19.511  0.00  0.00    +0.000 C 
ATOM      6  C   UNL     1       1.937   3.386  18.423  0.00  0.00    +0.000 C 
ATOM      7  O   UNL     1       2.045   2.689  17.429  0.00  0.00    +0.000 OA
ENDROOT
BRANCH   4   8
ATOM      8  C   UNL     1       2.145   3.593  21.692  0.00  0.00    +0.000 C 
BRANCH   8   9
ATOM      9  O   UNL     1       1.483   2.442  22.202  0.00  0.00    +0.000 OA
ATOM     10  H   UNL     1       0.525   2.603  22.174  0.00  0.00    +0.000 HD
ENDBRANCH   8   9
ENDBRANCH   4   8
TORSDOF 2
ENDMDL
MODEL 3
REMARK VINA RESULT:      -4.4      2.189      2.768
REMARK  Name = 
REMARK  3 active torsions:
REMARK  status: ('A' for Active; 'I' for Inactive)
REMARK    1  A    between atoms: C_1  and  N_2
REMARK    2  A    between atoms: C_4  and  C_5
REMARK    3  A    between atoms: C_5  and  O_6
REMARK                            x       y       z     vdW  Elec       q    Type
REMARK                         _______ _______ _______ _____ _____    ______ ____
ROOT
ATOM      1  C   UNL     1       4.738   5.089  19.272  0.00  0.00    +0.000 C 
ATOM      2  N   UNL     1       3.440   4.481  19.450  0.00  0.00    +0.000 N 
ATOM      3  C   UNL     1       2.501   4.973  20.424  0.00  0.00    +0.000 C 
ATOM      4  C   UNL     1       1.273   4.094  20.229  0.00  0.00    +0.000 C 
ATOM      5  C   UNL     1       1.336   3.705  18.746  0.00  0.00    +0.000 C 
ATOM      6  C   UNL     1       2.796   3.849  18.391  0.00  0.00    +0.000 C 
ATOM      7  O   UNL     1       3.301   3.534  17.327  0.00  0.00    +0.000 OA
ENDROOT
BRANCH   4   8
ATOM      8  C   UNL     1       1.299   2.868  21.142  0.00  0.00    +0.000 C 
BRANCH   8   9
ATOM      9  O   UNL     1       2.183   3.087  22.234  0.00  0.00    +0.000 OA
ATOM     10  H   UNL     1       1.709   3.596  22.913  0.00  0.00    +0.000 HD
ENDBRANCH   8   9
ENDBRANCH   4   8
TORSDOF 2
ENDMDL
MODEL 4
REMARK VINA RESULT:      -4.4      4.765      5.790
REMARK  Name = 
REMARK  3 active torsions:
REMARK  status: ('A' for Active; 'I' for Inactive)
REMARK    1  A    between atoms: C_1  and  N_2
REMARK    2  A    between atoms: C_4  and  C_5
REMARK    3  A    between atoms: C_5  and  O_6
REMARK                            x       y       z     vdW  Elec       q    Type
REMARK                         _______ _______ _______ _____ _____    ______ ____
ROOT
ATOM      1  C   UNL     1       4.687   3.830  19.323  0.00  0.00    +0.000 C 
ATOM      2  N   UNL     1       5.512   4.518  18.357  0.00  0.00    +0.000 N 
ATOM      3  C   UNL     1       4.995   4.938  17.081  0.00  0.00    +0.000 C 
ATOM      4  C   UNL     1       6.165   5.659  16.428  0.00  0.00    +0.000 C 
ATOM      5  C   UNL     1       6.959   6.215  17.617  0.00  0.00    +0.000 C 
ATOM      6  C   UNL     1       6.574   5.317  18.767  0.00  0.00    +0.000 C 
ATOM      7  O   UNL     1       7.064   5.347  19.884  0.00  0.00    +0.000 OA
ENDROOT
BRANCH   4   8
ATOM      8  C   UNL     1       7.009   4.715  15.571  0.00  0.00    +0.000 C 
BRANCH   8   9
ATOM      9  O   UNL     1       7.729   5.453  14.591  0.00  0.00    +0.000 OA
ATOM     10  H   UNL     1       8.213   6.167  15.041  0.00  0.00    +0.000 HD
ENDBRANCH   8   9
ENDBRANCH   4   8
TORSDOF 2
ENDMDL
MODEL 5
REMARK VINA RESULT:      -4.4      2.285      2.941
REMARK  Name = 
REMARK  3 active torsions:
REMARK  status: ('A' for Active; 'I' for Inactive)
REMARK    1  A    between atoms: C_1  and  N_2
REMARK    2  A    between atoms: C_4  and  C_5
REMARK    3  A    between atoms: C_5  and  O_6
REMARK                            x       y       z     vdW  Elec       q    Type
REMARK                         _______ _______ _______ _____ _____    ______ ____
ROOT
ATOM      1  C   UNL     1       5.397   4.768  19.161  0.00  0.00    +0.000 C 
ATOM      2  N   UNL     1       4.287   3.892  18.862  0.00  0.00    +0.000 N 
ATOM      3  C   UNL     1       3.536   4.011  17.641  0.00  0.00    +0.000 C 
ATOM      4  C   UNL     1       2.525   2.875  17.717  0.00  0.00    +0.000 C 
ATOM      5  C   UNL     1       3.237   1.811  18.562  0.00  0.00    +0.000 C 
ATOM      6  C   UNL     1       4.247   2.595  19.364  0.00  0.00    +0.000 C 
ATOM      7  O   UNL     1       4.956   2.143  20.247  0.00  0.00    +0.000 OA
ENDROOT
BRANCH   4   8
ATOM      8  C   UNL     1       1.211   3.325  18.356  0.00  0.00    +0.000 C 
BRANCH   8   9
ATOM      9  O   UNL     1       0.318   2.223  18.470  0.00  0.00    +0.000 OA
ATOM     10  H   UNL     1      -0.438   2.498  19.016  0.00  0.00    +0.000 HD
ENDBRANCH   8   9
ENDBRANCH   4   8
TORSDOF 2
ENDMDL
MODEL 6
REMARK VINA RESULT:      -4.4      1.916      2.175
REMARK  Name = 
REMARK  3 active torsions:
REMARK  status: ('A' for Active; 'I' for Inactive)
REMARK    1  A    between atoms: C_1  and  N_2
REMARK    2  A    between atoms: C_4  and  C_5
REMARK    3  A    between atoms: C_5  and  O_6
REMARK                            x       y       z     vdW  Elec       q    Type
REMARK                         _______ _______ _______ _____ _____    ______ ____
ROOT
ATOM      1  C   UNL     1       5.360   4.711  19.112  0.00  0.00    +0.000 C 
ATOM      2  N   UNL     1       4.086   4.048  19.270  0.00  0.00    +0.000 N 
ATOM      3  C   UNL     1       2.934   4.427  18.495  0.00  0.00    +0.000 C 
ATOM      4  C   UNL     1       1.855   3.447  18.936  0.00  0.00    +0.000 C 
ATOM      5  C   UNL     1       2.643   2.194  19.338  0.00  0.00    +0.000 C 
ATOM      6  C   UNL     1       4.019   2.718  19.671  0.00  0.00    +0.000 C 
ATOM      7  O   UNL     1       4.932   2.061  20.141  0.00  0.00    +0.000 OA
ENDROOT
BRANCH   4   8
ATOM      8  C   UNL     1       1.027   3.997  20.098  0.00  0.00    +0.000 C 
BRANCH   8   9
ATOM      9  O   UNL     1       0.754   2.965  21.038  0.00  0.00    +0.000 OA
ATOM     10  H   UNL     1       1.510   2.897  21.646  0.00  0.00    +0.000 HD
ENDBRANCH   8   9
ENDBRANCH   4   8
TORSDOF 2
ENDMDL
MODEL 7
REMARK VINA RESULT:      -4.4      2.346      3.821
REMARK  Name = 
REMARK  3 active torsions:
REMARK  status: ('A' for Active; 'I' for Inactive)
REMARK    1  A    between atoms: C_1  and  N_2
REMARK    2  A    between atoms: C_4  and  C_5
REMARK    3  A    between atoms: C_5  and  O_6
REMARK                            x       y       z     vdW  Elec       q    Type
REMARK                         _______ _______ _______ _____ _____    ______ ____
ROOT
ATOM      1  C   UNL     1       0.904   3.223  20.025  0.00  0.00    +0.000 C 
ATOM      2  N   UNL     1       2.119   3.391  19.261  0.00  0.00    +0.000 N 
ATOM      3  C   UNL     1       3.303   2.623  19.543  0.00  0.00    +0.000 C 
ATOM      4  C   UNL     1       4.296   3.074  18.481  0.00  0.00    +0.000 C 
ATOM      5  C   UNL     1       3.405   3.473  17.297  0.00  0.00    +0.000 C 
ATOM      6  C   UNL     1       2.074   3.796  17.931  0.00  0.00    +0.000 C 
ATOM      7  O   UNL     1       1.107   4.261  17.352  0.00  0.00    +0.000 OA
ENDROOT
BRANCH   4   8
ATOM      8  C   UNL     1       5.158   4.241  18.964  0.00  0.00    +0.000 C 
BRANCH   8   9
ATOM      9  O   UNL     1       6.494   4.088  18.502  0.00  0.00    +0.000 OA
ATOM     10  H   UNL     1       6.475   4.000  17.534  0.00  0.00    +0.000 HD
ENDBRANCH   8   9
ENDBRANCH   4   8
TORSDOF 2
ENDMDL
MODEL 8
REMARK VINA RESULT:      -4.4      1.758      1.949
REMARK  Name = 
REMARK  3 active torsions:
REMARK  status: ('A' for Active; 'I' for Inactive)
REMARK    1  A    between atoms: C_1  and  N_2
REMARK    2  A    between atoms: C_4  and  C_5
REMARK    3  A    between atoms: C_5  and  O_6
REMARK                            x       y       z     vdW  Elec       q    Type
REMARK                         _______ _______ _______ _____ _____    ______ ____
ROOT
ATOM      1  C   UNL     1       3.999   3.855  17.194  0.00  0.00    +0.000 C 
ATOM      2  N   UNL     1       3.166   3.552  18.334  0.00  0.00    +0.000 N 
ATOM      3  C   UNL     1       2.077   4.409  18.726  0.00  0.00    +0.000 C 
ATOM      4  C   UNL     1       1.451   3.689  19.913  0.00  0.00    +0.000 C 
ATOM      5  C   UNL     1       1.743   2.209  19.636  0.00  0.00    +0.000 C 
ATOM      6  C   UNL     1       2.951   2.236  18.731  0.00  0.00    +0.000 C 
ATOM      7  O   UNL     1       3.577   1.260  18.356  0.00  0.00    +0.000 OA
ENDROOT
BRANCH   4   8
ATOM      8  C   UNL     1       2.052   4.150  21.241  0.00  0.00    +0.000 C 
BRANCH   8   9
ATOM      9  O   UNL     1       2.177   3.049  22.132  0.00  0.00    +0.000 OA
ATOM     10  H   UNL     1       3.103   2.755  22.127  0.00  0.00    +0.000 HD
ENDBRANCH   8   9
ENDBRANCH   4   8
TORSDOF 2
ENDMDL
MODEL 9
REMARK VINA RESULT:      -4.4      5.056      5.910
REMARK  Name = 
REMARK  3 active torsions:
REMARK  status: ('A' for Active; 'I' for Inactive)
REMARK    1  A    between atoms: C_1  and  N_2
REMARK    2  A    between atoms: C_4  and  C_5
REMARK    3  A    between atoms: C_5  and  O_6
REMARK                            x       y       z     vdW  Elec       q    Type
REMARK                         _______ _______ _______ _____ _____    ______ ____
ROOT
ATOM      1  C   UNL     1       6.255   4.067  14.815  0.00  0.00    +0.000 C 
ATOM      2  N   UNL     1       6.292   4.830  16.041  0.00  0.00    +0.000 N 
ATOM      3  C   UNL     1       7.266   4.567  17.068  0.00  0.00    +0.000 C 
ATOM      4  C   UNL     1       6.979   5.623  18.127  0.00  0.00    +0.000 C 
ATOM      5  C   UNL     1       6.403   6.796  17.324  0.00  0.00    +0.000 C 
ATOM      6  C   UNL     1       5.859   6.151  16.072  0.00  0.00    +0.000 C 
ATOM      7  O   UNL     1       5.217   6.719  15.205  0.00  0.00    +0.000 OA
ENDROOT
BRANCH   4   8
ATOM      8  C   UNL     1       5.997   5.118  19.184  0.00  0.00    +0.000 C 
BRANCH   8   9
ATOM      9  O   UNL     1       5.869   3.704  19.100  0.00  0.00    +0.000 OA
ATOM     10  H   UNL     1       6.586   3.365  18.538  0.00  0.00    +0.000 HD
ENDBRANCH   8   9
ENDBRANCH   4   8
TORSDOF 2
ENDMDL
