MODEL 1
REMARK VINA RESULT:      -7.7      0.000      0.000
REMARK  Name = 
REMARK  11 active torsions:
REMARK  status: ('A' for Active; 'I' for Inactive)
REMARK    1  A    between atoms: C_1  and  O_2
REMARK    2  A    between atoms: O_2  and  C_3
REMARK    3  A    between atoms: C_3  and  C_4
REMARK    4  A    between atoms: C_4  and  C_5
REMARK    5  A    between atoms: C_5  and  O_6
REMARK    6  A    between atoms: O_6  and  C_7
REMARK    7  A    between atoms: C_9  and  C_10
REMARK    8  A    between atoms: C_10  and  C_11
REMARK    9  A    between atoms: C_10  and  N_12
REMARK   10  A    between atoms: N_12  and  C_21
REMARK   11  A    between atoms: C_13  and  C_15
REMARK                            x       y       z     vdW  Elec       q    Type
REMARK                         _______ _______ _______ _____ _____    ______ ____
ROOT
ATOM      1  C   UNL     1       1.200   9.246  18.565  0.00  0.00    +0.000 A 
ATOM      2  C   UNL     1       1.859   8.115  18.046  0.00  0.00    +0.000 A 
ATOM      3  C   UNL     1       2.334   7.053  18.852  0.00  0.00    +0.000 A 
ATOM      4  C   UNL     1       2.158   7.127  20.243  0.00  0.00    +0.000 A 
ATOM      5  C   UNL     1       1.517   8.267  20.744  0.00  0.00    +0.000 A 
ATOM      6  O   UNL     1       1.245   8.505  22.056  0.00  0.00    +0.000 OA
ATOM      7  C   UNL     1       0.598   9.695  22.129  0.00  0.00    +0.000 A 
ATOM      8  C   UNL     1       0.441  10.229  20.873  0.00  0.00    +0.000 A 
ATOM      9  C   UNL     1       1.037   9.314  19.962  0.00  0.00    +0.000 A 
ENDROOT
BRANCH   3  10
ATOM     10  C   UNL     1       2.798   5.773  18.146  0.00  0.00    +0.000 C 
ATOM     11  C   UNL     1       1.518   5.052  17.684  0.00  0.00    +0.000 C 
BRANCH  10  12
ATOM     12  N   UNL     1       3.795   4.942  18.874  0.00  0.00    +0.000 N 
ATOM     13  C   UNL     1       5.192   4.967  18.668  0.00  0.00    +0.000 C 
ATOM     14  O   UNL     1       5.933   4.221  19.327  0.00  0.00    +0.000 OA
BRANCH  13  15
ATOM     15  C   UNL     1       5.861   5.973  17.689  0.00  0.00    +0.000 C 
ATOM     16  C   UNL     1       7.363   5.630  17.586  0.00  0.00    +0.000 C 
ATOM     17  N   UNL     1       7.626   4.372  16.855  0.00  0.00    +0.000 NA
ATOM     18  C   UNL     1       7.035   4.488  15.511  0.00  0.00    +0.000 C 
ATOM     19  C   UNL     1       5.555   4.907  15.538  0.00  0.00    +0.000 C 
ATOM     20  O   UNL     1       5.295   6.053  16.368  0.00  0.00    +0.000 OA
ATOM     21  H   UNL     1       7.119   3.619  17.338  0.00  0.00    +0.000 HD
ENDBRANCH  13  15
BRANCH  12  22
ATOM     22  C   UNL     1       3.362   4.095  19.988  0.00  0.00    +0.000 C 
ATOM     23  C   UNL     1       1.997   3.530  20.276  0.00  0.00    +0.000 C 
ATOM     24  C   UNL     1       3.033   2.638  19.692  0.00  0.00    +0.000 C 
ENDBRANCH  12  22
ENDBRANCH  10  12
ENDBRANCH   3  10
BRANCH   1  25
ATOM     25  O   UNL     1       0.664  10.260  17.801  0.00  0.00    +0.000 OA
BRANCH  25  26
ATOM     26  C   UNL     1      -0.680  10.634  18.120  0.00  0.00    +0.000 C 
BRANCH  26  27
ATOM     27  C   UNL     1      -1.664   9.814  17.293  0.00  0.00    +0.000 C 
BRANCH  27  28
ATOM     28  C   UNL     1      -2.460  10.715  16.355  0.00  0.00    +0.000 C 
BRANCH  28  30
ATOM     29  C   UNL     1      -3.765  10.127  14.477  0.00  0.00    +0.000 C 
ATOM     30  O   UNL     1      -2.462  10.145  15.046  0.00  0.00    +0.000 OA
ENDBRANCH  28  30
ENDBRANCH  27  28
ENDBRANCH  26  27
ENDBRANCH  25  26
ENDBRANCH   1  25
TORSDOF 9
ENDMDL
MODEL 2
REMARK VINA RESULT:      -7.7      2.029      2.838
REMARK  Name = 
REMARK  11 active torsions:
REMARK  status: ('A' for Active; 'I' for Inactive)
REMARK    1  A    between atoms: C_1  and  O_2
REMARK    2  A    between atoms: O_2  and  C_3
REMARK    3  A    between atoms: C_3  and  C_4
REMARK    4  A    between atoms: C_4  and  C_5
REMARK    5  A    between atoms: C_5  and  O_6
REMARK    6  A    between atoms: O_6  and  C_7
REMARK    7  A    between atoms: C_9  and  C_10
REMARK    8  A    between atoms: C_10  and  C_11
REMARK    9  A    between atoms: C_10  and  N_12
REMARK   10  A    between atoms: N_12  and  C_21
REMARK   11  A    between atoms: C_13  and  C_15
REMARK                            x       y       z     vdW  Elec       q    Type
REMARK                         _______ _______ _______ _____ _____    ______ ____
ROOT
ATOM      1  C   UNL     1       1.655   9.189  18.592  0.00  0.00    +0.000 A 
ATOM      2  C   UNL     1       2.241   8.018  18.074  0.00  0.00    +0.000 A 
ATOM      3  C   UNL     1       2.416   6.835  18.832  0.00  0.00    +0.000 A 
ATOM      4  C   UNL     1       2.001   6.822  20.173  0.00  0.00    +0.000 A 
ATOM      5  C   UNL     1       1.438   8.001  20.677  0.00  0.00    +0.000 A 
ATOM      6  O   UNL     1       0.965   8.169  21.943  0.00  0.00    +0.000 OA
ATOM      7  C   UNL     1       0.480   9.432  22.032  0.00  0.00    +0.000 A 
ATOM      8  C   UNL     1       0.626  10.084  20.830  0.00  0.00    +0.000 A 
ATOM      9  C   UNL     1       1.250   9.167  19.941  0.00  0.00    +0.000 A 
ENDROOT
BRANCH   3  10
ATOM     10  C   UNL     1       2.827   5.561  18.083  0.00  0.00    +0.000 C 
ATOM     11  C   UNL     1       1.525   4.782  17.820  0.00  0.00    +0.000 C 
BRANCH  10  12
ATOM     12  N   UNL     1       3.952   4.784  18.670  0.00  0.00    +0.000 N 
ATOM     13  C   UNL     1       5.314   4.924  18.325  0.00  0.00    +0.000 C 
ATOM     14  O   UNL     1       6.172   4.214  18.873  0.00  0.00    +0.000 OA
BRANCH  13  15
ATOM     15  C   UNL     1       5.803   6.015  17.331  0.00  0.00    +0.000 C 
ATOM     16  C   UNL     1       7.330   5.869  17.157  0.00  0.00    +0.000 C 
ATOM     17  N   UNL     1       7.719   4.660  16.400  0.00  0.00    +0.000 NA
ATOM     18  C   UNL     1       7.058   4.708  15.084  0.00  0.00    +0.000 C 
ATOM     19  C   UNL     1       5.539   4.931  15.182  0.00  0.00    +0.000 C 
ATOM     20  O   UNL     1       5.172   6.029  16.037  0.00  0.00    +0.000 OA
ATOM     21  H   UNL     1       7.336   3.845  16.896  0.00  0.00    +0.000 HD
ENDBRANCH  13  15
BRANCH  12  22
ATOM     22  C   UNL     1       3.699   3.866  19.782  0.00  0.00    +0.000 C 
ATOM     23  C   UNL     1       2.418   3.182  20.177  0.00  0.00    +0.000 C 
ATOM     24  C   UNL     1       3.456   2.398  19.457  0.00  0.00    +0.000 C 
ENDBRANCH  12  22
ENDBRANCH  10  12
ENDBRANCH   3  10
BRANCH   1  25
ATOM     25  O   UNL     1       1.405  10.330  17.861  0.00  0.00    +0.000 OA
BRANCH  25  26
ATOM     26  C   UNL     1       2.350  11.392  18.025  0.00  0.00    +0.000 C 
BRANCH  26  27
ATOM     27  C   UNL     1       1.639  12.662  18.479  0.00  0.00    +0.000 C 
BRANCH  27  28
ATOM     28  C   UNL     1       2.637  13.655  19.067  0.00  0.00    +0.000 C 
BRANCH  28  30
ATOM     29  C   UNL     1       3.880  15.244  17.841  0.00  0.00    +0.000 C 
ATOM     30  O   UNL     1       3.696  13.865  18.133  0.00  0.00    +0.000 OA
ENDBRANCH  28  30
ENDBRANCH  27  28
ENDBRANCH  26  27
ENDBRANCH  25  26
ENDBRANCH   1  25
TORSDOF 9
ENDMDL
MODEL 3
REMARK VINA RESULT:      -7.6      1.160      1.305
REMARK  Name = 
REMARK  11 active torsions:
REMARK  status: ('A' for Active; 'I' for Inactive)
REMARK    1  A    between atoms: C_1  and  O_2
REMARK    2  A    between atoms: O_2  and  C_3
REMARK    3  A    between atoms: C_3  and  C_4
REMARK    4  A    between atoms: C_4  and  C_5
REMARK    5  A    between atoms: C_5  and  O_6
REMARK    6  A    between atoms: O_6  and  C_7
REMARK    7  A    between atoms: C_9  and  C_10
REMARK    8  A    between atoms: C_10  and  C_11
REMARK    9  A    between atoms: C_10  and  N_12
REMARK   10  A    between atoms: N_12  and  C_21
REMARK   11  A    between atoms: C_13  and  C_15
REMARK                            x       y       z     vdW  Elec       q    Type
REMARK                         _______ _______ _______ _____ _____    ______ ____
ROOT
ATOM      1  C   UNL     1       1.159   9.219  18.645  0.00  0.00    +0.000 A 
ATOM      2  C   UNL     1       1.825   8.108  18.093  0.00  0.00    +0.000 A 
ATOM      3  C   UNL     1       2.329   7.038  18.871  0.00  0.00    +0.000 A 
ATOM      4  C   UNL     1       2.178   7.084  20.265  0.00  0.00    +0.000 A 
ATOM      5  C   UNL     1       1.531   8.206  20.799  0.00  0.00    +0.000 A 
ATOM      6  O   UNL     1       1.279   8.415  22.120  0.00  0.00    +0.000 OA
ATOM      7  C   UNL     1       0.617   9.594  22.228  0.00  0.00    +0.000 A 
ATOM      8  C   UNL     1       0.429  10.149  20.984  0.00  0.00    +0.000 A 
ATOM      9  C   UNL     1       1.021   9.259  20.045  0.00  0.00    +0.000 A 
ENDROOT
BRANCH   3  10
ATOM     10  C   UNL     1       2.799   5.778  18.133  0.00  0.00    +0.000 C 
ATOM     11  C   UNL     1       1.522   5.003  17.757  0.00  0.00    +0.000 C 
BRANCH  10  12
ATOM     12  N   UNL     1       3.877   4.990  18.791  0.00  0.00    +0.000 N 
ATOM     13  C   UNL     1       5.254   5.071  18.488  0.00  0.00    +0.000 C 
ATOM     14  O   UNL     1       6.068   4.358  19.095  0.00  0.00    +0.000 OA
BRANCH  13  15
ATOM     15  C   UNL     1       5.812   6.100  17.465  0.00  0.00    +0.000 C 
ATOM     16  C   UNL     1       7.335   5.882  17.334  0.00  0.00    +0.000 C 
ATOM     17  N   UNL     1       7.688   4.629  16.633  0.00  0.00    +0.000 NA
ATOM     18  C   UNL     1       7.059   4.654  15.301  0.00  0.00    +0.000 C 
ATOM     19  C   UNL     1       5.550   4.947  15.353  0.00  0.00    +0.000 C 
ATOM     20  O   UNL     1       5.212   6.092  16.157  0.00  0.00    +0.000 OA
ATOM     21  H   UNL     1       7.258   3.851  17.150  0.00  0.00    +0.000 HD
ENDBRANCH  13  15
BRANCH  12  22
ATOM     22  C   UNL     1       3.556   4.131  19.932  0.00  0.00    +0.000 C 
ATOM     23  C   UNL     1       2.254   3.462  20.282  0.00  0.00    +0.000 C 
ATOM     24  C   UNL     1       3.336   2.647  19.670  0.00  0.00    +0.000 C 
ENDBRANCH  12  22
ENDBRANCH  10  12
ENDBRANCH   3  10
BRANCH   1  25
ATOM     25  O   UNL     1       0.594  10.239  17.910  0.00  0.00    +0.000 OA
BRANCH  25  26
ATOM     26  C   UNL     1      -0.831  10.204  17.792  0.00  0.00    +0.000 C 
BRANCH  26  27
ATOM     27  C   UNL     1      -1.398  11.618  17.852  0.00  0.00    +0.000 C 
BRANCH  27  28
ATOM     28  C   UNL     1      -2.541  11.697  18.859  0.00  0.00    +0.000 C 
BRANCH  28  30
ATOM     29  C   UNL     1      -4.881  12.011  18.857  0.00  0.00    +0.000 C 
ATOM     30  O   UNL     1      -3.772  11.418  18.193  0.00  0.00    +0.000 OA
ENDBRANCH  28  30
ENDBRANCH  27  28
ENDBRANCH  26  27
ENDBRANCH  25  26
ENDBRANCH   1  25
TORSDOF 9
ENDMDL
MODEL 4
REMARK VINA RESULT:      -7.4      1.260      1.955
REMARK  Name = 
REMARK  11 active torsions:
REMARK  status: ('A' for Active; 'I' for Inactive)
REMARK    1  A    between atoms: C_1  and  O_2
REMARK    2  A    between atoms: O_2  and  C_3
REMARK    3  A    between atoms: C_3  and  C_4
REMARK    4  A    between atoms: C_4  and  C_5
REMARK    5  A    between atoms: C_5  and  O_6
REMARK    6  A    between atoms: O_6  and  C_7
REMARK    7  A    between atoms: C_9  and  C_10
REMARK    8  A    between atoms: C_10  and  C_11
REMARK    9  A    between atoms: C_10  and  N_12
REMARK   10  A    between atoms: N_12  and  C_21
REMARK   11  A    between atoms: C_13  and  C_15
REMARK                            x       y       z     vdW  Elec       q    Type
REMARK                         _______ _______ _______ _____ _____    ______ ____
ROOT
ATOM      1  C   UNL     1       1.098   9.345  18.733  0.00  0.00    +0.000 A 
ATOM      2  C   UNL     1       1.786   8.245  18.185  0.00  0.00    +0.000 A 
ATOM      3  C   UNL     1       2.280   7.171  18.964  0.00  0.00    +0.000 A 
ATOM      4  C   UNL     1       2.095   7.202  20.355  0.00  0.00    +0.000 A 
ATOM      5  C   UNL     1       1.426   8.312  20.884  0.00  0.00    +0.000 A 
ATOM      6  O   UNL     1       1.142   8.505  22.201  0.00  0.00    +0.000 OA
ATOM      7  C   UNL     1       0.468   9.678  22.305  0.00  0.00    +0.000 A 
ATOM      8  C   UNL     1       0.304  10.245  21.063  0.00  0.00    +0.000 A 
ATOM      9  C   UNL     1       0.926   9.369  20.130  0.00  0.00    +0.000 A 
ENDROOT
BRANCH   3  10
ATOM     10  C   UNL     1       2.777   5.923  18.224  0.00  0.00    +0.000 C 
ATOM     11  C   UNL     1       1.516   5.150  17.795  0.00  0.00    +0.000 C 
BRANCH  10  12
ATOM     12  N   UNL     1       3.835   5.129  18.907  0.00  0.00    +0.000 N 
ATOM     13  C   UNL     1       5.216   5.183  18.619  0.00  0.00    +0.000 C 
ATOM     14  O   UNL     1       6.013   4.467  19.246  0.00  0.00    +0.000 OA
BRANCH  13  15
ATOM     15  C   UNL     1       5.803   6.188  17.587  0.00  0.00    +0.000 C 
ATOM     16  C   UNL     1       7.321   5.935  17.468  0.00  0.00    +0.000 C 
ATOM     17  N   UNL     1       7.651   4.667  16.783  0.00  0.00    +0.000 NA
ATOM     18  C   UNL     1       7.030   4.690  15.447  0.00  0.00    +0.000 C 
ATOM     19  C   UNL     1       5.527   5.016  15.487  0.00  0.00    +0.000 C 
ATOM     20  O   UNL     1       5.209   6.177  16.276  0.00  0.00    +0.000 OA
ATOM     21  H   UNL     1       7.201   3.905  17.306  0.00  0.00    +0.000 HD
ENDBRANCH  13  15
BRANCH  12  22
ATOM     22  C   UNL     1       3.488   4.292  20.057  0.00  0.00    +0.000 C 
ATOM     23  C   UNL     1       2.168   3.657  20.406  0.00  0.00    +0.000 C 
ATOM     24  C   UNL     1       3.236   2.810  19.812  0.00  0.00    +0.000 C 
ENDBRANCH  12  22
ENDBRANCH  10  12
ENDBRANCH   3  10
BRANCH   1  25
ATOM     25  O   UNL     1       0.543  10.369  17.995  0.00  0.00    +0.000 OA
BRANCH  25  26
ATOM     26  C   UNL     1      -0.888  10.400  17.955  0.00  0.00    +0.000 C 
BRANCH  26  27
ATOM     27  C   UNL     1      -1.382  11.842  17.998  0.00  0.00    +0.000 C 
BRANCH  27  28
ATOM     28  C   UNL     1      -0.265  12.781  18.443  0.00  0.00    +0.000 C 
BRANCH  28  30
ATOM     29  C   UNL     1      -0.341  15.058  19.063  0.00  0.00    +0.000 C 
ATOM     30  O   UNL     1      -0.797  13.743  19.354  0.00  0.00    +0.000 OA
ENDBRANCH  28  30
ENDBRANCH  27  28
ENDBRANCH  26  27
ENDBRANCH  25  26
ENDBRANCH   1  25
TORSDOF 9
ENDMDL
MODEL 5
REMARK VINA RESULT:      -7.4      2.002      3.416
REMARK  Name = 
REMARK  11 active torsions:
REMARK  status: ('A' for Active; 'I' for Inactive)
REMARK    1  A    between atoms: C_1  and  O_2
REMARK    2  A    between atoms: O_2  and  C_3
REMARK    3  A    between atoms: C_3  and  C_4
REMARK    4  A    between atoms: C_4  and  C_5
REMARK    5  A    between atoms: C_5  and  O_6
REMARK    6  A    between atoms: O_6  and  C_7
REMARK    7  A    between atoms: C_9  and  C_10
REMARK    8  A    between atoms: C_10  and  C_11
REMARK    9  A    between atoms: C_10  and  N_12
REMARK   10  A    between atoms: N_12  and  C_21
REMARK   11  A    between atoms: C_13  and  C_15
REMARK                            x       y       z     vdW  Elec       q    Type
REMARK                         _______ _______ _______ _____ _____    ______ ____
ROOT
ATOM      1  C   UNL     1       1.540   7.944  20.428  0.00  0.00    +0.000 A 
ATOM      2  C   UNL     1       1.892   6.724  19.819  0.00  0.00    +0.000 A 
ATOM      3  C   UNL     1       2.240   6.610  18.451  0.00  0.00    +0.000 A 
ATOM      4  C   UNL     1       2.220   7.761  17.649  0.00  0.00    +0.000 A 
ATOM      5  C   UNL     1       1.848   8.961  18.266  0.00  0.00    +0.000 A 
ATOM      6  O   UNL     1       1.789  10.176  17.654  0.00  0.00    +0.000 OA
ATOM      7  C   UNL     1       1.415  11.085  18.588  0.00  0.00    +0.000 A 
ATOM      8  C   UNL     1       1.240  10.472  19.806  0.00  0.00    +0.000 A 
ATOM      9  C   UNL     1       1.515   9.090  19.611  0.00  0.00    +0.000 A 
ENDROOT
BRANCH   3  10
ATOM     10  C   UNL     1       2.849   5.284  17.978  0.00  0.00    +0.000 C 
ATOM     11  C   UNL     1       1.664   4.327  17.751  0.00  0.00    +0.000 C 
BRANCH  10  12
ATOM     12  N   UNL     1       3.980   4.751  18.786  0.00  0.00    +0.000 N 
ATOM     13  C   UNL     1       5.347   5.034  18.573  0.00  0.00    +0.000 C 
ATOM     14  O   UNL     1       6.210   4.525  19.304  0.00  0.00    +0.000 OA
BRANCH  13  15
ATOM     15  C   UNL     1       5.818   6.046  17.491  0.00  0.00    +0.000 C 
ATOM     16  C   UNL     1       7.345   5.900  17.317  0.00  0.00    +0.000 C 
ATOM     17  N   UNL     1       7.739   4.638  16.654  0.00  0.00    +0.000 NA
ATOM     18  C   UNL     1       7.068   4.576  15.345  0.00  0.00    +0.000 C 
ATOM     19  C   UNL     1       5.548   4.794  15.437  0.00  0.00    +0.000 C 
ATOM     20  O   UNL     1       5.177   5.953  16.205  0.00  0.00    +0.000 OA
ATOM     21  H   UNL     1       7.367   3.862  17.217  0.00  0.00    +0.000 HD
ENDBRANCH  13  15
BRANCH  12  22
ATOM     22  C   UNL     1       3.705   3.956  19.985  0.00  0.00    +0.000 C 
ATOM     23  C   UNL     1       2.531   3.063  20.284  0.00  0.00    +0.000 C 
ATOM     24  C   UNL     1       3.819   2.440  19.879  0.00  0.00    +0.000 C 
ENDBRANCH  12  22
ENDBRANCH  10  12
ENDBRANCH   3  10
BRANCH   1  25
ATOM     25  O   UNL     1       1.267   8.100  21.770  0.00  0.00    +0.000 OA
BRANCH  25  26
ATOM     26  C   UNL     1       1.072   9.447  22.212  0.00  0.00    +0.000 C 
BRANCH  26  27
ATOM     27  C   UNL     1      -0.024   9.499  23.271  0.00  0.00    +0.000 C 
BRANCH  27  28
ATOM     28  C   UNL     1      -1.036  10.591  22.944  0.00  0.00    +0.000 C 
BRANCH  28  30
ATOM     29  C   UNL     1      -0.995  12.821  22.169  0.00  0.00    +0.000 C 
ATOM     30  O   UNL     1      -0.397  11.865  23.034  0.00  0.00    +0.000 OA
ENDBRANCH  28  30
ENDBRANCH  27  28
ENDBRANCH  26  27
ENDBRANCH  25  26
ENDBRANCH   1  25
TORSDOF 9
ENDMDL
MODEL 6
REMARK VINA RESULT:      -7.3      3.241      7.665
REMARK  Name = 
REMARK  11 active torsions:
REMARK  status: ('A' for Active; 'I' for Inactive)
REMARK    1  A    between atoms: C_1  and  O_2
REMARK    2  A    between atoms: O_2  and  C_3
REMARK    3  A    between atoms: C_3  and  C_4
REMARK    4  A    between atoms: C_4  and  C_5
REMARK    5  A    between atoms: C_5  and  O_6
REMARK    6  A    between atoms: O_6  and  C_7
REMARK    7  A    between atoms: C_9  and  C_10
REMARK    8  A    between atoms: C_10  and  C_11
REMARK    9  A    between atoms: C_10  and  N_12
REMARK   10  A    between atoms: N_12  and  C_21
REMARK   11  A    between atoms: C_13  and  C_15
REMARK                            x       y       z     vdW  Elec       q    Type
REMARK                         _______ _______ _______ _____ _____    ______ ____
ROOT
ATOM      1  C   UNL     1       2.691   6.104  19.762  0.00  0.00    +0.000 A 
ATOM      2  C   UNL     1       1.847   7.199  20.032  0.00  0.00    +0.000 A 
ATOM      3  C   UNL     1       1.759   8.337  19.195  0.00  0.00    +0.000 A 
ATOM      4  C   UNL     1       2.561   8.396  18.044  0.00  0.00    +0.000 A 
ATOM      5  C   UNL     1       3.409   7.308  17.802  0.00  0.00    +0.000 A 
ATOM      6  O   UNL     1       4.241   7.181  16.733  0.00  0.00    +0.000 OA
ATOM      7  C   UNL     1       4.870   5.985  16.845  0.00  0.00    +0.000 A 
ATOM      8  C   UNL     1       4.445   5.328  17.976  0.00  0.00    +0.000 A 
ATOM      9  C   UNL     1       3.497   6.178  18.610  0.00  0.00    +0.000 A 
ENDROOT
BRANCH   3  10
ATOM     10  C   UNL     1       0.623   9.333  19.461  0.00  0.00    +0.000 C 
ATOM     11  C   UNL     1       0.144   9.814  18.079  0.00  0.00    +0.000 C 
BRANCH  10  12
ATOM     12  N   UNL     1       0.897  10.394  20.468  0.00  0.00    +0.000 N 
ATOM     13  C   UNL     1       1.261  11.727  20.178  0.00  0.00    +0.000 C 
ATOM     14  O   UNL     1       1.477  12.529  21.100  0.00  0.00    +0.000 OA
BRANCH  13  15
ATOM     15  C   UNL     1       1.319  12.265  18.720  0.00  0.00    +0.000 C 
ATOM     16  C   UNL     1       0.368  13.476  18.608  0.00  0.00    +0.000 C 
ATOM     17  N   UNL     1       0.858  14.672  19.326  0.00  0.00    +0.000 NA
ATOM     18  C   UNL     1       2.188  15.016  18.794  0.00  0.00    +0.000 C 
ATOM     19  C   UNL     1       3.165  13.828  18.803  0.00  0.00    +0.000 C 
ATOM     20  O   UNL     1       2.620  12.629  18.224  0.00  0.00    +0.000 OA
ATOM     21  H   UNL     1       0.990  14.411  20.312  0.00  0.00    +0.000 HD
ENDBRANCH  13  15
BRANCH  12  22
ATOM     22  C   UNL     1       0.674  10.122  21.890  0.00  0.00    +0.000 C 
ATOM     23  C   UNL     1      -0.498  10.497  22.755  0.00  0.00    +0.000 C 
ATOM     24  C   UNL     1      -0.389   9.098  22.263  0.00  0.00    +0.000 C 
ENDBRANCH  12  22
ENDBRANCH  10  12
ENDBRANCH   3  10
BRANCH   1  25
ATOM     25  O   UNL     1       2.746   4.952  20.517  0.00  0.00    +0.000 OA
BRANCH  25  26
ATOM     26  C   UNL     1       1.500   4.273  20.705  0.00  0.00    +0.000 C 
BRANCH  26  27
ATOM     27  C   UNL     1       1.570   2.873  20.103  0.00  0.00    +0.000 C 
BRANCH  27  28
ATOM     28  C   UNL     1       1.178   2.901  18.630  0.00  0.00    +0.000 C 
BRANCH  28  30
ATOM     29  C   UNL     1       3.269   1.806  18.669  0.00  0.00    +0.000 C 
ATOM     30  O   UNL     1       2.239   2.348  17.852  0.00  0.00    +0.000 OA
ENDBRANCH  28  30
ENDBRANCH  27  28
ENDBRANCH  26  27
ENDBRANCH  25  26
ENDBRANCH   1  25
TORSDOF 9
ENDMDL
MODEL 7
REMARK VINA RESULT:      -7.2      2.125      2.956
REMARK  Name = 
REMARK  11 active torsions:
REMARK  status: ('A' for Active; 'I' for Inactive)
REMARK    1  A    between atoms: C_1  and  O_2
REMARK    2  A    between atoms: O_2  and  C_3
REMARK    3  A    between atoms: C_3  and  C_4
REMARK    4  A    between atoms: C_4  and  C_5
REMARK    5  A    between atoms: C_5  and  O_6
REMARK    6  A    between atoms: O_6  and  C_7
REMARK    7  A    between atoms: C_9  and  C_10
REMARK    8  A    between atoms: C_10  and  C_11
REMARK    9  A    between atoms: C_10  and  N_12
REMARK   10  A    between atoms: N_12  and  C_21
REMARK   11  A    between atoms: C_13  and  C_15
REMARK                            x       y       z     vdW  Elec       q    Type
REMARK                         _______ _______ _______ _____ _____    ______ ____
ROOT
ATOM      1  C   UNL     1       1.662   8.991  18.585  0.00  0.00    +0.000 A 
ATOM      2  C   UNL     1       2.156   7.771  18.084  0.00  0.00    +0.000 A 
ATOM      3  C   UNL     1       2.311   6.610  18.879  0.00  0.00    +0.000 A 
ATOM      4  C   UNL     1       1.975   6.671  20.240  0.00  0.00    +0.000 A 
ATOM      5  C   UNL     1       1.505   7.897  20.726  0.00  0.00    +0.000 A 
ATOM      6  O   UNL     1       1.116   8.139  22.008  0.00  0.00    +0.000 OA
ATOM      7  C   UNL     1       0.703   9.430  22.072  0.00  0.00    +0.000 A 
ATOM      8  C   UNL     1       0.813  10.026  20.838  0.00  0.00    +0.000 A 
ATOM      9  C   UNL     1       1.336   9.043  19.954  0.00  0.00    +0.000 A 
ENDROOT
BRANCH   3  10
ATOM     10  C   UNL     1       2.611   5.288  18.161  0.00  0.00    +0.000 C 
ATOM     11  C   UNL     1       1.259   4.774  17.632  0.00  0.00    +0.000 C 
BRANCH  10  12
ATOM     12  N   UNL     1       3.442   4.305  18.908  0.00  0.00    +0.000 N 
ATOM     13  C   UNL     1       4.837   4.393  19.107  0.00  0.00    +0.000 C 
ATOM     14  O   UNL     1       5.434   3.508  19.740  0.00  0.00    +0.000 OA
BRANCH  13  15
ATOM     15  C   UNL     1       5.660   5.624  18.632  0.00  0.00    +0.000 C 
ATOM     16  C   UNL     1       7.158   5.326  18.856  0.00  0.00    +0.000 C 
ATOM     17  N   UNL     1       7.696   4.305  17.931  0.00  0.00    +0.000 NA
ATOM     18  C   UNL     1       7.468   4.767  16.551  0.00  0.00    +0.000 C 
ATOM     19  C   UNL     1       6.004   5.157  16.281  0.00  0.00    +0.000 C 
ATOM     20  O   UNL     1       5.452   6.045  17.271  0.00  0.00    +0.000 OA
ATOM     21  H   UNL     1       7.139   3.450  18.054  0.00  0.00    +0.000 HD
ENDBRANCH  13  15
BRANCH  12  22
ATOM     22  C   UNL     1       2.798   3.195  19.614  0.00  0.00    +0.000 C 
ATOM     23  C   UNL     1       3.089   2.645  20.984  0.00  0.00    +0.000 C 
ATOM     24  C   UNL     1       1.906   3.527  20.803  0.00  0.00    +0.000 C 
ENDBRANCH  12  22
ENDBRANCH  10  12
ENDBRANCH   3  10
BRANCH   1  25
ATOM     25  O   UNL     1       1.431  10.116  17.822  0.00  0.00    +0.000 OA
BRANCH  25  26
ATOM     26  C   UNL     1       2.451  11.118  17.868  0.00  0.00    +0.000 C 
BRANCH  26  27
ATOM     27  C   UNL     1       1.891  12.411  18.451  0.00  0.00    +0.000 C 
BRANCH  27  28
ATOM     28  C   UNL     1       2.922  13.532  18.363  0.00  0.00    +0.000 C 
BRANCH  28  30
ATOM     29  C   UNL     1       2.985  13.956  20.684  0.00  0.00    +0.000 C 
ATOM     30  O   UNL     1       2.673  14.480  19.400  0.00  0.00    +0.000 OA
ENDBRANCH  28  30
ENDBRANCH  27  28
ENDBRANCH  26  27
ENDBRANCH  25  26
ENDBRANCH   1  25
TORSDOF 9
ENDMDL
MODEL 8
REMARK VINA RESULT:      -6.9      3.273      7.921
REMARK  Name = 
REMARK  11 active torsions:
REMARK  status: ('A' for Active; 'I' for Inactive)
REMARK    1  A    between atoms: C_1  and  O_2
REMARK    2  A    between atoms: O_2  and  C_3
REMARK    3  A    between atoms: C_3  and  C_4
REMARK    4  A    between atoms: C_4  and  C_5
REMARK    5  A    between atoms: C_5  and  O_6
REMARK    6  A    between atoms: O_6  and  C_7
REMARK    7  A    between atoms: C_9  and  C_10
REMARK    8  A    between atoms: C_10  and  C_11
REMARK    9  A    between atoms: C_10  and  N_12
REMARK   10  A    between atoms: N_12  and  C_21
REMARK   11  A    between atoms: C_13  and  C_15
REMARK                            x       y       z     vdW  Elec       q    Type
REMARK                         _______ _______ _______ _____ _____    ______ ____
ROOT
ATOM      1  C   UNL     1       2.130   6.274  20.261  0.00  0.00    +0.000 A 
ATOM      2  C   UNL     1       1.446   7.388  20.784  0.00  0.00    +0.000 A 
ATOM      3  C   UNL     1       1.395   8.645  20.134  0.00  0.00    +0.000 A 
ATOM      4  C   UNL     1       2.070   8.804  18.914  0.00  0.00    +0.000 A 
ATOM      5  C   UNL     1       2.762   7.692  18.419  0.00  0.00    +0.000 A 
ATOM      6  O   UNL     1       3.456   7.654  17.248  0.00  0.00    +0.000 OA
ATOM      7  C   UNL     1       3.957   6.401  17.112  0.00  0.00    +0.000 A 
ATOM      8  C   UNL     1       3.586   5.621  18.182  0.00  0.00    +0.000 A 
ATOM      9  C   UNL     1       2.811   6.448  19.041  0.00  0.00    +0.000 A 
ENDROOT
BRANCH   3  10
ATOM     10  C   UNL     1       0.410   9.689  20.675  0.00  0.00    +0.000 C 
ATOM     11  C   UNL     1      -0.601   8.914  21.541  0.00  0.00    +0.000 C 
BRANCH  10  12
ATOM     12  N   UNL     1      -0.165  10.633  19.679  0.00  0.00    +0.000 N 
ATOM     13  C   UNL     1       0.384  11.885  19.322  0.00  0.00    +0.000 C 
ATOM     14  O   UNL     1      -0.186  12.599  18.483  0.00  0.00    +0.000 OA
BRANCH  13  15
ATOM     15  C   UNL     1       1.748  12.376  19.886  0.00  0.00    +0.000 C 
ATOM     16  C   UNL     1       2.301  13.468  18.945  0.00  0.00    +0.000 C 
ATOM     17  N   UNL     1       1.542  14.735  19.012  0.00  0.00    +0.000 NA
ATOM     18  C   UNL     1       1.556  15.208  20.407  0.00  0.00    +0.000 C 
ATOM     19  C   UNL     1       1.090  14.139  21.409  0.00  0.00    +0.000 C 
ATOM     20  O   UNL     1       1.741  12.866  21.239  0.00  0.00    +0.000 OA
ATOM     21  H   UNL     1       0.563  14.525  18.779  0.00  0.00    +0.000 HD
ENDBRANCH  13  15
BRANCH  12  22
ATOM     22  C   UNL     1      -1.331  10.235  18.887  0.00  0.00    +0.000 C 
ATOM     23  C   UNL     1      -1.892  10.865  17.641  0.00  0.00    +0.000 C 
ATOM     24  C   UNL     1      -1.087   9.621  17.515  0.00  0.00    +0.000 C 
ENDBRANCH  12  22
ENDBRANCH  10  12
ENDBRANCH   3  10
BRANCH   1  25
ATOM     25  O   UNL     1       2.138   5.020  20.833  0.00  0.00    +0.000 OA
BRANCH  25  26
ATOM     26  C   UNL     1       1.000   4.200  20.549  0.00  0.00    +0.000 C 
BRANCH  26  27
ATOM     27  C   UNL     1       1.450   2.843  20.018  0.00  0.00    +0.000 C 
BRANCH  27  28
ATOM     28  C   UNL     1       1.099   2.701  18.541  0.00  0.00    +0.000 C 
BRANCH  28  30
ATOM     29  C   UNL     1       3.289   1.836  18.719  0.00  0.00    +0.000 C 
ATOM     30  O   UNL     1       2.233   2.196  17.837  0.00  0.00    +0.000 OA
ENDBRANCH  28  30
ENDBRANCH  27  28
ENDBRANCH  26  27
ENDBRANCH  25  26
ENDBRANCH   1  25
TORSDOF 9
ENDMDL
MODEL 9
REMARK VINA RESULT:      -6.8      2.286      3.740
REMARK  Name = 
REMARK  11 active torsions:
REMARK  status: ('A' for Active; 'I' for Inactive)
REMARK    1  A    between atoms: C_1  and  O_2
REMARK    2  A    between atoms: O_2  and  C_3
REMARK    3  A    between atoms: C_3  and  C_4
REMARK    4  A    between atoms: C_4  and  C_5
REMARK    5  A    between atoms: C_5  and  O_6
REMARK    6  A    between atoms: O_6  and  C_7
REMARK    7  A    between atoms: C_9  and  C_10
REMARK    8  A    between atoms: C_10  and  C_11
REMARK    9  A    between atoms: C_10  and  N_12
REMARK   10  A    between atoms: N_12  and  C_21
REMARK   11  A    between atoms: C_13  and  C_15
REMARK                            x       y       z     vdW  Elec       q    Type
REMARK                         _______ _______ _______ _____ _____    ______ ____
ROOT
ATOM      1  C   UNL     1       1.262   7.884  20.435  0.00  0.00    +0.000 A 
ATOM      2  C   UNL     1       1.977   6.675  20.330  0.00  0.00    +0.000 A 
ATOM      3  C   UNL     1       2.849   6.378  19.255  0.00  0.00    +0.000 A 
ATOM      4  C   UNL     1       3.004   7.321  18.228  0.00  0.00    +0.000 A 
ATOM      5  C   UNL     1       2.271   8.509  18.338  0.00  0.00    +0.000 A 
ATOM      6  O   UNL     1       2.307   9.541  17.451  0.00  0.00    +0.000 OA
ATOM      7  C   UNL     1       1.483  10.511  17.922  0.00  0.00    +0.000 A 
ATOM      8  C   UNL     1       0.919  10.120  19.112  0.00  0.00    +0.000 A 
ATOM      9  C   UNL     1       1.419   8.819  19.394  0.00  0.00    +0.000 A 
ENDROOT
BRANCH   3  10
ATOM     10  C   UNL     1       3.756   5.148  19.391  0.00  0.00    +0.000 C 
ATOM     11  C   UNL     1       5.187   5.691  19.560  0.00  0.00    +0.000 C 
BRANCH  10  12
ATOM     12  N   UNL     1       3.574   4.078  18.373  0.00  0.00    +0.000 N 
ATOM     13  C   UNL     1       4.275   3.980  17.151  0.00  0.00    +0.000 C 
ATOM     14  O   UNL     1       4.035   3.047  16.368  0.00  0.00    +0.000 OA
BRANCH  13  15
ATOM     15  C   UNL     1       5.418   4.964  16.776  0.00  0.00    +0.000 C 
ATOM     16  C   UNL     1       6.708   4.149  16.542  0.00  0.00    +0.000 C 
ATOM     17  N   UNL     1       6.672   3.341  15.304  0.00  0.00    +0.000 NA
ATOM     18  C   UNL     1       6.427   4.247  14.169  0.00  0.00    +0.000 C 
ATOM     19  C   UNL     1       5.197   5.148  14.373  0.00  0.00    +0.000 C 
ATOM     20  O   UNL     1       5.179   5.822  15.645  0.00  0.00    +0.000 OA
ATOM     21  H   UNL     1       5.858   2.715  15.366  0.00  0.00    +0.000 HD
ENDBRANCH  13  15
BRANCH  12  22
ATOM     22  C   UNL     1       2.694   2.943  18.660  0.00  0.00    +0.000 C 
ATOM     23  C   UNL     1       1.722   2.759  19.795  0.00  0.00    +0.000 C 
ATOM     24  C   UNL     1       1.196   3.131  18.455  0.00  0.00    +0.000 C 
ENDBRANCH  12  22
ENDBRANCH  10  12
ENDBRANCH   3  10
BRANCH   1  25
ATOM     25  O   UNL     1       0.463   8.232  21.503  0.00  0.00    +0.000 OA
BRANCH  25  26
ATOM     26  C   UNL     1       1.056   9.117  22.459  0.00  0.00    +0.000 C 
BRANCH  26  27
ATOM     27  C   UNL     1      -0.030   9.827  23.260  0.00  0.00    +0.000 C 
BRANCH  27  28
ATOM     28  C   UNL     1      -0.842  10.754  22.361  0.00  0.00    +0.000 C 
BRANCH  28  30
ATOM     29  C   UNL     1      -1.193  12.969  23.101  0.00  0.00    +0.000 C 
ATOM     30  O   UNL     1      -0.305  12.074  22.443  0.00  0.00    +0.000 OA
ENDBRANCH  28  30
ENDBRANCH  27  28
ENDBRANCH  26  27
ENDBRANCH  25  26
ENDBRANCH   1  25
TORSDOF 9
ENDMDL
