MODEL 1
REMARK VINA RESULT:      -7.2      0.000      0.000
REMARK  Name = 
REMARK  6 active torsions:
REMARK  status: ('A' for Active; 'I' for Inactive)
REMARK    1  A    between atoms: N_1  and  C_2
REMARK    2  A    between atoms: N_11  and  C1*_12
REMARK    3  A    between atoms: C4*_14  and  C5*_15
REMARK    4  A    between atoms: C5*_15  and  O5*_16
REMARK    5  A    between atoms: C3*_17  and  O3*_18
REMARK    6  A    between atoms: C2*_19  and  O2*_20
REMARK                            x       y       z     vdW  Elec       q    Type
REMARK                         _______ _______ _______ _____ _____    ______ ____
ROOT
ATOM      1  C   UNL     1       6.976   6.649  17.712  0.00  0.00    +0.000 A 
ATOM      2  N   UNL     1       7.976   6.310  18.557  0.00  0.00    +0.000 NA
ATOM      3  C   UNL     1       7.686   5.513  19.606  0.00  0.00    +0.000 A 
ATOM      4  N   UNL     1       6.499   4.968  19.939  0.00  0.00    +0.000 NA
ATOM      5  C   UNL     1       5.542   5.319  19.064  0.00  0.00    +0.000 A 
ATOM      6  C   UNL     1       5.693   6.128  17.947  0.00  0.00    +0.000 A 
ATOM      7  N   UNL     1       4.504   6.252  17.264  0.00  0.00    +0.000 NA
ATOM      8  C   UNL     1       3.658   5.536  17.964  0.00  0.00    +0.000 A 
ATOM      9 CL   UNL     1       2.016   5.332  17.558  0.00  0.00    +0.000 Cl
ATOM     10  N   UNL     1       4.218   4.950  19.067  0.00  0.00    +0.000 N 
ENDROOT
BRANCH  10  11
ATOM     11  C1* UNL     1       3.579   4.083  20.032  0.00  0.00    +0.000 C 
ATOM     12  O4* UNL     1       3.404   2.766  19.460  0.00  0.00    +0.000 OA
ATOM     13  C4* UNL     1       2.108   2.256  19.865  0.00  0.00    +0.000 C 
ATOM     14  C3* UNL     1       1.542   3.246  20.884  0.00  0.00    +0.000 C 
ATOM     15  C2* UNL     1       2.208   4.561  20.511  0.00  0.00    +0.000 C 
BRANCH  14  16
ATOM     16  O3* UNL     1       1.938   2.924  22.230  0.00  0.00    +0.000 OA
ATOM     17  H3* UNL     1       1.969   3.747  22.761  0.00  0.00    +0.000 HD
ENDBRANCH  14  16
BRANCH  15  18
ATOM     18  O2* UNL     1       2.304   5.440  21.631  0.00  0.00    +0.000 OA
ATOM     19  H2* UNL     1       1.995   6.317  21.318  0.00  0.00    +0.000 HD
ENDBRANCH  15  18
BRANCH  13  20
ATOM     20  C5* UNL     1       1.224   2.096  18.625  0.00  0.00    +0.000 C 
BRANCH  20  21
ATOM     21  O5* UNL     1       2.032   1.876  17.472  0.00  0.00    +0.000 OA
ATOM     22  H5* UNL     1       1.415   1.727  16.730  0.00  0.00    +0.000 HD
ENDBRANCH  20  21
ENDBRANCH  13  20
ENDBRANCH  10  11
BRANCH   1  23
ATOM     23  N   UNL     1       7.269   7.493  16.651  0.00  0.00    +0.000 N 
ATOM     24  H   UNL     1       6.490   8.069  16.365  0.00  0.00    +0.000 HD
ATOM     25  H   UNL     1       8.194   7.906  16.676  0.00  0.00    +0.000 HD
ENDBRANCH   1  23
TORSDOF 6
ENDMDL
MODEL 2
REMARK VINA RESULT:      -7.1      2.528      3.190
REMARK  Name = 
REMARK  6 active torsions:
REMARK  status: ('A' for Active; 'I' for Inactive)
REMARK    1  A    between atoms: N_1  and  C_2
REMARK    2  A    between atoms: N_11  and  C1*_12
REMARK    3  A    between atoms: C4*_14  and  C5*_15
REMARK    4  A    between atoms: C5*_15  and  O5*_16
REMARK    5  A    between atoms: C3*_17  and  O3*_18
REMARK    6  A    between atoms: C2*_19  and  O2*_20
REMARK                            x       y       z     vdW  Elec       q    Type
REMARK                         _______ _______ _______ _____ _____    ______ ____
ROOT
ATOM      1  C   UNL     1       6.839   4.952  14.970  0.00  0.00    +0.000 A 
ATOM      2  N   UNL     1       5.747   4.466  14.338  0.00  0.00    +0.000 NA
ATOM      3  C   UNL     1       4.701   4.059  15.087  0.00  0.00    +0.000 A 
ATOM      4  N   UNL     1       4.574   4.084  16.428  0.00  0.00    +0.000 NA
ATOM      5  C   UNL     1       5.675   4.589  17.011  0.00  0.00    +0.000 A 
ATOM      6  C   UNL     1       6.819   5.043  16.371  0.00  0.00    +0.000 A 
ATOM      7  N   UNL     1       7.736   5.517  17.282  0.00  0.00    +0.000 NA
ATOM      8  C   UNL     1       7.152   5.343  18.443  0.00  0.00    +0.000 A 
ATOM      9 CL   UNL     1       7.851   5.773  19.936  0.00  0.00    +0.000 Cl
ATOM     10  N   UNL     1       5.908   4.782  18.351  0.00  0.00    +0.000 N 
ENDROOT
BRANCH  10  11
ATOM     11  C1* UNL     1       4.989   4.480  19.427  0.00  0.00    +0.000 C 
ATOM     12  O4* UNL     1       4.918   3.048  19.618  0.00  0.00    +0.000 OA
ATOM     13  C4* UNL     1       3.539   2.687  19.883  0.00  0.00    +0.000 C 
ATOM     14  C3* UNL     1       2.761   3.994  20.036  0.00  0.00    +0.000 C 
ATOM     15  C2* UNL     1       3.563   4.985  19.209  0.00  0.00    +0.000 C 
BRANCH  14  16
ATOM     16  O3* UNL     1       2.757   4.465  21.397  0.00  0.00    +0.000 OA
ATOM     17  H3* UNL     1       1.849   4.394  21.759  0.00  0.00    +0.000 HD
ENDBRANCH  14  16
BRANCH  15  18
ATOM     18  O2* UNL     1       3.387   6.324  19.673  0.00  0.00    +0.000 OA
ATOM     19  H2* UNL     1       2.477   6.370  20.036  0.00  0.00    +0.000 HD
ENDBRANCH  15  18
BRANCH  13  20
ATOM     20  C5* UNL     1       3.023   1.810  18.739  0.00  0.00    +0.000 C 
BRANCH  20  21
ATOM     21  O5* UNL     1       4.105   1.412  17.900  0.00  0.00    +0.000 OA
ATOM     22  H5* UNL     1       4.838   1.169  18.496  0.00  0.00    +0.000 HD
ENDBRANCH  20  21
ENDBRANCH  13  20
ENDBRANCH  10  11
BRANCH   1  23
ATOM     23  N   UNL     1       7.926   5.342  14.201  0.00  0.00    +0.000 N 
ATOM     24  H   UNL     1       8.616   5.871  14.715  0.00  0.00    +0.000 HD
ATOM     25  H   UNL     1       8.243   4.651  13.530  0.00  0.00    +0.000 HD
ENDBRANCH   1  23
TORSDOF 6
ENDMDL
MODEL 3
REMARK VINA RESULT:      -7.0      1.280      1.280
REMARK  Name = 
REMARK  6 active torsions:
REMARK  status: ('A' for Active; 'I' for Inactive)
REMARK    1  A    between atoms: N_1  and  C_2
REMARK    2  A    between atoms: N_11  and  C1*_12
REMARK    3  A    between atoms: C4*_14  and  C5*_15
REMARK    4  A    between atoms: C5*_15  and  O5*_16
REMARK    5  A    between atoms: C3*_17  and  O3*_18
REMARK    6  A    between atoms: C2*_19  and  O2*_20
REMARK                            x       y       z     vdW  Elec       q    Type
REMARK                         _______ _______ _______ _____ _____    ______ ____
ROOT
ATOM      1  C   UNL     1       7.091   5.591  16.863  0.00  0.00    +0.000 A 
ATOM      2  N   UNL     1       7.928   5.944  17.864  0.00  0.00    +0.000 NA
ATOM      3  C   UNL     1       7.549   5.696  19.135  0.00  0.00    +0.000 A 
ATOM      4  N   UNL     1       6.417   5.107  19.570  0.00  0.00    +0.000 NA
ATOM      5  C   UNL     1       5.625   4.759  18.541  0.00  0.00    +0.000 A 
ATOM      6  C   UNL     1       5.884   4.952  17.192  0.00  0.00    +0.000 A 
ATOM      7  N   UNL     1       4.862   4.448  16.419  0.00  0.00    +0.000 NA
ATOM      8  C   UNL     1       4.008   3.969  17.291  0.00  0.00    +0.000 A 
ATOM      9 CL   UNL     1       2.542   3.209  16.872  0.00  0.00    +0.000 Cl
ATOM     10  N   UNL     1       4.405   4.130  18.590  0.00  0.00    +0.000 N 
ENDROOT
BRANCH  10  11
ATOM     11  C1* UNL     1       3.718   3.699  19.788  0.00  0.00    +0.000 C 
ATOM     12  O4* UNL     1       3.341   2.308  19.658  0.00  0.00    +0.000 OA
ATOM     13  C4* UNL     1       2.017   2.135  20.222  0.00  0.00    +0.000 C 
ATOM     14  C3* UNL     1       1.644   3.458  20.891  0.00  0.00    +0.000 C 
ATOM     15  C2* UNL     1       2.451   4.488  20.116  0.00  0.00    +0.000 C 
BRANCH  14  16
ATOM     16  O3* UNL     1       2.075   3.511  22.264  0.00  0.00    +0.000 OA
ATOM     17  H3* UNL     1       1.334   3.829  22.821  0.00  0.00    +0.000 HD
ENDBRANCH  14  16
BRANCH  15  18
ATOM     18  O2* UNL     1       2.725   5.646  20.906  0.00  0.00    +0.000 OA
ATOM     19  H2* UNL     1       3.667   5.869  20.746  0.00  0.00    +0.000 HD
ENDBRANCH  15  18
BRANCH  13  20
ATOM     20  C5* UNL     1       1.048   1.730  19.108  0.00  0.00    +0.000 C 
BRANCH  20  21
ATOM     21  O5* UNL     1      -0.092   2.586  19.113  0.00  0.00    +0.000 OA
ATOM     22  H5* UNL     1      -0.502   2.501  18.231  0.00  0.00    +0.000 HD
ENDBRANCH  20  21
ENDBRANCH  13  20
ENDBRANCH  10  11
BRANCH   1  23
ATOM     23  N   UNL     1       7.468   5.873  15.559  0.00  0.00    +0.000 N 
ATOM     24  H   UNL     1       8.274   5.350  15.248  0.00  0.00    +0.000 HD
ATOM     25  H   UNL     1       6.699   6.010  14.913  0.00  0.00    +0.000 HD
ENDBRANCH   1  23
TORSDOF 6
ENDMDL
MODEL 4
REMARK VINA RESULT:      -7.0      3.348      5.562
REMARK  Name = 
REMARK  6 active torsions:
REMARK  status: ('A' for Active; 'I' for Inactive)
REMARK    1  A    between atoms: N_1  and  C_2
REMARK    2  A    between atoms: N_11  and  C1*_12
REMARK    3  A    between atoms: C4*_14  and  C5*_15
REMARK    4  A    between atoms: C5*_15  and  O5*_16
REMARK    5  A    between atoms: C3*_17  and  O3*_18
REMARK    6  A    between atoms: C2*_19  and  O2*_20
REMARK                            x       y       z     vdW  Elec       q    Type
REMARK                         _______ _______ _______ _____ _____    ______ ____
ROOT
ATOM      1  C   UNL     1       1.656   2.996  19.152  0.00  0.00    +0.000 A 
ATOM      2  N   UNL     1       2.324   1.853  18.878  0.00  0.00    +0.000 NA
ATOM      3  C   UNL     1       3.492   1.937  18.207  0.00  0.00    +0.000 A 
ATOM      4  N   UNL     1       4.124   3.043  17.765  0.00  0.00    +0.000 NA
ATOM      5  C   UNL     1       3.432   4.153  18.074  0.00  0.00    +0.000 A 
ATOM      6  C   UNL     1       2.226   4.217  18.755  0.00  0.00    +0.000 A 
ATOM      7  N   UNL     1       1.821   5.523  18.916  0.00  0.00    +0.000 NA
ATOM      8  C   UNL     1       2.765   6.224  18.336  0.00  0.00    +0.000 A 
ATOM      9 CL   UNL     1       2.775   7.925  18.250  0.00  0.00    +0.000 Cl
ATOM     10  N   UNL     1       3.765   5.458  17.802  0.00  0.00    +0.000 N 
ENDROOT
BRANCH  10  11
ATOM     11  C1* UNL     1       4.960   5.907  17.121  0.00  0.00    +0.000 C 
ATOM     12  O4* UNL     1       4.867   5.585  15.714  0.00  0.00    +0.000 OA
ATOM     13  C4* UNL     1       6.168   5.134  15.258  0.00  0.00    +0.000 C 
ATOM     14  C3* UNL     1       7.145   5.365  16.411  0.00  0.00    +0.000 C 
ATOM     15  C2* UNL     1       6.261   5.300  17.646  0.00  0.00    +0.000 C 
BRANCH  14  16
ATOM     16  O3* UNL     1       7.735   6.677  16.366  0.00  0.00    +0.000 OA
ATOM     17  H3* UNL     1       8.709   6.594  16.427  0.00  0.00    +0.000 HD
ENDBRANCH  14  16
BRANCH  15  18
ATOM     18  O2* UNL     1       6.810   6.053  18.728  0.00  0.00    +0.000 OA
ATOM     19  H2* UNL     1       6.262   6.863  18.804  0.00  0.00    +0.000 HD
ENDBRANCH  15  18
BRANCH  13  20
ATOM     20  C5* UNL     1       6.068   3.665  14.838  0.00  0.00    +0.000 C 
BRANCH  20  21
ATOM     21  O5* UNL     1       6.402   3.524  13.460  0.00  0.00    +0.000 OA
ATOM     22  H5* UNL     1       6.492   4.430  13.106  0.00  0.00    +0.000 HD
ENDBRANCH  20  21
ENDBRANCH  13  20
ENDBRANCH  10  11
BRANCH   1  23
ATOM     23  N   UNL     1       0.442   2.906  19.815  0.00  0.00    +0.000 N 
ATOM     24  H   UNL     1      -0.359   3.028  19.212  0.00  0.00    +0.000 HD
ATOM     25  H   UNL     1       0.402   2.197  20.538  0.00  0.00    +0.000 HD
ENDBRANCH   1  23
TORSDOF 6
ENDMDL
MODEL 5
REMARK VINA RESULT:      -6.9      3.105      5.872
REMARK  Name = 
REMARK  6 active torsions:
REMARK  status: ('A' for Active; 'I' for Inactive)
REMARK    1  A    between atoms: N_1  and  C_2
REMARK    2  A    between atoms: N_11  and  C1*_12
REMARK    3  A    between atoms: C4*_14  and  C5*_15
REMARK    4  A    between atoms: C5*_15  and  O5*_16
REMARK    5  A    between atoms: C3*_17  and  O3*_18
REMARK    6  A    between atoms: C2*_19  and  O2*_20
REMARK                            x       y       z     vdW  Elec       q    Type
REMARK                         _______ _______ _______ _____ _____    ______ ____
ROOT
ATOM      1  C   UNL     1       1.455   3.105  19.403  0.00  0.00    +0.000 A 
ATOM      2  N   UNL     1       1.848   1.814  19.330  0.00  0.00    +0.000 NA
ATOM      3  C   UNL     1       3.012   1.532  18.707  0.00  0.00    +0.000 A 
ATOM      4  N   UNL     1       3.883   2.388  18.137  0.00  0.00    +0.000 NA
ATOM      5  C   UNL     1       3.458   3.658  18.248  0.00  0.00    +0.000 A 
ATOM      6  C   UNL     1       2.291   4.093  18.858  0.00  0.00    +0.000 A 
ATOM      7  N   UNL     1       2.191   5.465  18.807  0.00  0.00    +0.000 NA
ATOM      8  C   UNL     1       3.277   5.841  18.174  0.00  0.00    +0.000 A 
ATOM      9 CL   UNL     1       3.673   7.463  17.839  0.00  0.00    +0.000 Cl
ATOM     10  N   UNL     1       4.082   4.798  17.803  0.00  0.00    +0.000 N 
ENDROOT
BRANCH  10  11
ATOM     11  C1* UNL     1       5.354   4.861  17.118  0.00  0.00    +0.000 C 
ATOM     12  O4* UNL     1       6.415   4.489  18.028  0.00  0.00    +0.000 OA
ATOM     13  C4* UNL     1       7.551   5.359  17.792  0.00  0.00    +0.000 C 
ATOM     14  C3* UNL     1       7.223   6.187  16.549  0.00  0.00    +0.000 C 
ATOM     15  C2* UNL     1       5.703   6.233  16.542  0.00  0.00    +0.000 C 
BRANCH  14  16
ATOM     16  O3* UNL     1       7.643   5.534  15.336  0.00  0.00    +0.000 OA
ATOM     17  H3* UNL     1       7.247   5.996  14.568  0.00  0.00    +0.000 HD
ENDBRANCH  14  16
BRANCH  15  18
ATOM     18  O2* UNL     1       5.186   6.413  15.224  0.00  0.00    +0.000 OA
ATOM     19  H2* UNL     1       5.936   6.730  14.677  0.00  0.00    +0.000 HD
ENDBRANCH  15  18
BRANCH  13  20
ATOM     20  C5* UNL     1       7.793   6.215  19.038  0.00  0.00    +0.000 C 
BRANCH  20  21
ATOM     21  O5* UNL     1       7.769   5.398  20.206  0.00  0.00    +0.000 OA
ATOM     22  H5* UNL     1       8.601   4.888  20.200  0.00  0.00    +0.000 HD
ENDBRANCH  20  21
ENDBRANCH  13  20
ENDBRANCH  10  11
BRANCH   1  23
ATOM     23  N   UNL     1       0.245   3.391  20.017  0.00  0.00    +0.000 N 
ATOM     24  H   UNL     1      -0.162   2.601  20.498  0.00  0.00    +0.000 HD
ATOM     25  H   UNL     1       0.193   4.304  20.453  0.00  0.00    +0.000 HD
ENDBRANCH   1  23
TORSDOF 6
ENDMDL
MODEL 6
REMARK VINA RESULT:      -6.9      1.638      2.239
REMARK  Name = 
REMARK  6 active torsions:
REMARK  status: ('A' for Active; 'I' for Inactive)
REMARK    1  A    between atoms: N_1  and  C_2
REMARK    2  A    between atoms: N_11  and  C1*_12
REMARK    3  A    between atoms: C4*_14  and  C5*_15
REMARK    4  A    between atoms: C5*_15  and  O5*_16
REMARK    5  A    between atoms: C3*_17  and  O3*_18
REMARK    6  A    between atoms: C2*_19  and  O2*_20
REMARK                            x       y       z     vdW  Elec       q    Type
REMARK                         _______ _______ _______ _____ _____    ______ ____
ROOT
ATOM      1  C   UNL     1       6.933   6.617  17.377  0.00  0.00    +0.000 A 
ATOM      2  N   UNL     1       7.674   5.508  17.596  0.00  0.00    +0.000 NA
ATOM      3  C   UNL     1       7.062   4.415  18.097  0.00  0.00    +0.000 A 
ATOM      4  N   UNL     1       5.760   4.255  18.409  0.00  0.00    +0.000 NA
ATOM      5  C   UNL     1       5.061   5.376  18.160  0.00  0.00    +0.000 A 
ATOM      6  C   UNL     1       5.556   6.567  17.649  0.00  0.00    +0.000 A 
ATOM      7  N   UNL     1       4.548   7.494  17.501  0.00  0.00    +0.000 NA
ATOM      8  C   UNL     1       3.475   6.869  17.921  0.00  0.00    +0.000 A 
ATOM      9 CL   UNL     1       1.918   7.560  17.947  0.00  0.00    +0.000 Cl
ATOM     10  N   UNL     1       3.716   5.589  18.338  0.00  0.00    +0.000 N 
ENDROOT
BRANCH  10  11
ATOM     11  C1* UNL     1       2.759   4.622  18.833  0.00  0.00    +0.000 C 
ATOM     12  O4* UNL     1       3.379   3.802  19.849  0.00  0.00    +0.000 OA
ATOM     13  C4* UNL     1       2.933   2.433  19.672  0.00  0.00    +0.000 C 
ATOM     14  C3* UNL     1       1.845   2.458  18.599  0.00  0.00    +0.000 C 
ATOM     15  C2* UNL     1       2.192   3.684  17.768  0.00  0.00    +0.000 C 
BRANCH  14  16
ATOM     16  O3* UNL     1       0.536   2.670  19.160  0.00  0.00    +0.000 OA
ATOM     17  H3* UNL     1       0.624   3.145  20.013  0.00  0.00    +0.000 HD
ENDBRANCH  14  16
BRANCH  15  18
ATOM     18  O2* UNL     1       1.039   4.229  17.126  0.00  0.00    +0.000 OA
ATOM     19  H2* UNL     1       1.310   4.436  16.207  0.00  0.00    +0.000 HD
ENDBRANCH  15  18
BRANCH  13  20
ATOM     20  C5* UNL     1       4.133   1.561  19.292  0.00  0.00    +0.000 C 
BRANCH  20  21
ATOM     21  O5* UNL     1       5.251   1.878  20.117  0.00  0.00    +0.000 OA
ATOM     22  H5* UNL     1       5.582   1.029  20.468  0.00  0.00    +0.000 HD
ENDBRANCH  20  21
ENDBRANCH  13  20
ENDBRANCH  10  11
BRANCH   1  23
ATOM     23  N   UNL     1       7.569   7.749  16.890  0.00  0.00    +0.000 N 
ATOM     24  H   UNL     1       7.398   8.578  17.442  0.00  0.00    +0.000 HD
ATOM     25  H   UNL     1       8.501   7.591  16.527  0.00  0.00    +0.000 HD
ENDBRANCH   1  23
TORSDOF 6
ENDMDL
MODEL 7
REMARK VINA RESULT:      -6.8      3.131      5.289
REMARK  Name = 
REMARK  6 active torsions:
REMARK  status: ('A' for Active; 'I' for Inactive)
REMARK    1  A    between atoms: N_1  and  C_2
REMARK    2  A    between atoms: N_11  and  C1*_12
REMARK    3  A    between atoms: C4*_14  and  C5*_15
REMARK    4  A    between atoms: C5*_15  and  O5*_16
REMARK    5  A    between atoms: C3*_17  and  O3*_18
REMARK    6  A    between atoms: C2*_19  and  O2*_20
REMARK                            x       y       z     vdW  Elec       q    Type
REMARK                         _______ _______ _______ _____ _____    ______ ____
ROOT
ATOM      1  C   UNL     1       2.383   3.158  20.648  0.00  0.00    +0.000 A 
ATOM      2  N   UNL     1       3.303   2.175  20.767  0.00  0.00    +0.000 NA
ATOM      3  C   UNL     1       4.463   2.297  20.089  0.00  0.00    +0.000 A 
ATOM      4  N   UNL     1       4.862   3.306  19.289  0.00  0.00    +0.000 NA
ATOM      5  C   UNL     1       3.923   4.265  19.214  0.00  0.00    +0.000 A 
ATOM      6  C   UNL     1       2.692   4.274  19.853  0.00  0.00    +0.000 A 
ATOM      7  N   UNL     1       1.998   5.428  19.568  0.00  0.00    +0.000 NA
ATOM      8  C   UNL     1       2.798   6.093  18.770  0.00  0.00    +0.000 A 
ATOM      9 CL   UNL     1       2.436   7.622  18.112  0.00  0.00    +0.000 Cl
ATOM     10  N   UNL     1       3.975   5.444  18.511  0.00  0.00    +0.000 N 
ENDROOT
BRANCH  10  11
ATOM     11  C1* UNL     1       5.081   5.903  17.699  0.00  0.00    +0.000 C 
ATOM     12  O4* UNL     1       4.841   5.563  16.314  0.00  0.00    +0.000 OA
ATOM     13  C4* UNL     1       6.091   5.125  15.724  0.00  0.00    +0.000 C 
ATOM     14  C3* UNL     1       7.184   5.384  16.761  0.00  0.00    +0.000 C 
ATOM     15  C2* UNL     1       6.441   5.322  18.086  0.00  0.00    +0.000 C 
BRANCH  14  16
ATOM     16  O3* UNL     1       7.745   6.705  16.638  0.00  0.00    +0.000 OA
ATOM     17  H3* UNL     1       7.081   7.299  16.231  0.00  0.00    +0.000 HD
ENDBRANCH  14  16
BRANCH  15  18
ATOM     18  O2* UNL     1       7.092   6.095  19.093  0.00  0.00    +0.000 OA
ATOM     19  H2* UNL     1       6.380   6.471  19.653  0.00  0.00    +0.000 HD
ENDBRANCH  15  18
BRANCH  13  20
ATOM     20  C5* UNL     1       5.970   3.650  15.333  0.00  0.00    +0.000 C 
BRANCH  20  21
ATOM     21  O5* UNL     1       6.320   3.475  13.962  0.00  0.00    +0.000 OA
ATOM     22  H5* UNL     1       6.447   4.371  13.596  0.00  0.00    +0.000 HD
ENDBRANCH  20  21
ENDBRANCH  13  20
ENDBRANCH  10  11
BRANCH   1  23
ATOM     23  N   UNL     1       1.179   3.018  21.322  0.00  0.00    +0.000 N 
ATOM     24  H   UNL     1       1.274   2.601  22.238  0.00  0.00    +0.000 HD
ATOM     25  H   UNL     1       0.532   3.789  21.204  0.00  0.00    +0.000 HD
ENDBRANCH   1  23
TORSDOF 6
ENDMDL
MODEL 8
REMARK VINA RESULT:      -6.8      1.739      2.873
REMARK  Name = 
REMARK  6 active torsions:
REMARK  status: ('A' for Active; 'I' for Inactive)
REMARK    1  A    between atoms: N_1  and  C_2
REMARK    2  A    between atoms: N_11  and  C1*_12
REMARK    3  A    between atoms: C4*_14  and  C5*_15
REMARK    4  A    between atoms: C5*_15  and  O5*_16
REMARK    5  A    between atoms: C3*_17  and  O3*_18
REMARK    6  A    between atoms: C2*_19  and  O2*_20
REMARK                            x       y       z     vdW  Elec       q    Type
REMARK                         _______ _______ _______ _____ _____    ______ ____
ROOT
ATOM      1  C   UNL     1       6.896   6.016  16.596  0.00  0.00    +0.000 A 
ATOM      2  N   UNL     1       7.277   5.003  15.786  0.00  0.00    +0.000 NA
ATOM      3  C   UNL     1       6.498   3.902  15.727  0.00  0.00    +0.000 A 
ATOM      4  N   UNL     1       5.339   3.663  16.371  0.00  0.00    +0.000 NA
ATOM      5  C   UNL     1       4.993   4.702  17.149  0.00  0.00    +0.000 A 
ATOM      6  C   UNL     1       5.692   5.890  17.308  0.00  0.00    +0.000 A 
ATOM      7  N   UNL     1       5.029   6.740  18.164  0.00  0.00    +0.000 NA
ATOM      8  C   UNL     1       3.957   6.070  18.513  0.00  0.00    +0.000 A 
ATOM      9 CL   UNL     1       2.761   6.666  19.569  0.00  0.00    +0.000 Cl
ATOM     10  N   UNL     1       3.877   4.830  17.940  0.00  0.00    +0.000 N 
ENDROOT
BRANCH  10  11
ATOM     11  C1* UNL     1       2.823   3.850  18.089  0.00  0.00    +0.000 C 
ATOM     12  O4* UNL     1       1.726   4.427  18.835  0.00  0.00    +0.000 OA
ATOM     13  C4* UNL     1       1.211   3.424  19.747  0.00  0.00    +0.000 C 
ATOM     14  C3* UNL     1       1.921   2.112  19.409  0.00  0.00    +0.000 C 
ATOM     15  C2* UNL     1       3.241   2.567  18.807  0.00  0.00    +0.000 C 
BRANCH  14  16
ATOM     16  O3* UNL     1       1.219   1.361  18.401  0.00  0.00    +0.000 OA
ATOM     17  H3* UNL     1       0.506   1.917  18.023  0.00  0.00    +0.000 HD
ENDBRANCH  14  16
BRANCH  15  18
ATOM     18  O2* UNL     1       3.774   1.594  17.908  0.00  0.00    +0.000 OA
ATOM     19  H2* UNL     1       3.046   0.964  17.724  0.00  0.00    +0.000 HD
ENDBRANCH  15  18
BRANCH  13  20
ATOM     20  C5* UNL     1       1.454   3.886  21.187  0.00  0.00    +0.000 C 
BRANCH  20  21
ATOM     21  O5* UNL     1       1.781   2.770  22.012  0.00  0.00    +0.000 OA
ATOM     22  H5* UNL     1       2.564   3.034  22.530  0.00  0.00    +0.000 HD
ENDBRANCH  20  21
ENDBRANCH  13  20
ENDBRANCH  10  11
BRANCH   1  23
ATOM     23  N   UNL     1       7.712   7.134  16.679  0.00  0.00    +0.000 N 
ATOM     24  H   UNL     1       8.692   6.914  16.788  0.00  0.00    +0.000 HD
ATOM     25  H   UNL     1       7.451   7.899  16.068  0.00  0.00    +0.000 HD
ENDBRANCH   1  23
TORSDOF 6
ENDMDL
MODEL 9
REMARK VINA RESULT:      -6.7      1.861      2.324
REMARK  Name = 
REMARK  6 active torsions:
REMARK  status: ('A' for Active; 'I' for Inactive)
REMARK    1  A    between atoms: N_1  and  C_2
REMARK    2  A    between atoms: N_11  and  C1*_12
REMARK    3  A    between atoms: C4*_14  and  C5*_15
REMARK    4  A    between atoms: C5*_15  and  O5*_16
REMARK    5  A    between atoms: C3*_17  and  O3*_18
REMARK    6  A    between atoms: C2*_19  and  O2*_20
REMARK                            x       y       z     vdW  Elec       q    Type
REMARK                         _______ _______ _______ _____ _____    ______ ____
ROOT
ATOM      1  C   UNL     1       6.940   5.471  15.652  0.00  0.00    +0.000 A 
ATOM      2  N   UNL     1       7.731   6.384  16.259  0.00  0.00    +0.000 NA
ATOM      3  C   UNL     1       7.355   6.857  17.466  0.00  0.00    +0.000 A 
ATOM      4  N   UNL     1       6.269   6.525  18.192  0.00  0.00    +0.000 NA
ATOM      5  C   UNL     1       5.523   5.605  17.558  0.00  0.00    +0.000 A 
ATOM      6  C   UNL     1       5.785   5.033  16.321  0.00  0.00    +0.000 A 
ATOM      7  N   UNL     1       4.819   4.108  15.993  0.00  0.00    +0.000 NA
ATOM      8  C   UNL     1       3.994   4.132  17.012  0.00  0.00    +0.000 A 
ATOM      9 CL   UNL     1       2.602   3.159  17.136  0.00  0.00    +0.000 Cl
ATOM     10  N   UNL     1       4.358   5.019  17.989  0.00  0.00    +0.000 N 
ENDROOT
BRANCH  10  11
ATOM     11  C1* UNL     1       3.691   5.276  19.247  0.00  0.00    +0.000 C 
ATOM     12  O4* UNL     1       3.674   4.069  20.043  0.00  0.00    +0.000 OA
ATOM     13  C4* UNL     1       2.385   3.969  20.701  0.00  0.00    +0.000 C 
ATOM     14  C3* UNL     1       1.647   5.280  20.428  0.00  0.00    +0.000 C 
ATOM     15  C2* UNL     1       2.248   5.761  19.116  0.00  0.00    +0.000 C 
BRANCH  14  16
ATOM     16  O3* UNL     1       1.928   6.278  21.427  0.00  0.00    +0.000 OA
ATOM     17  H3* UNL     1       2.696   5.989  21.962  0.00  0.00    +0.000 HD
ENDBRANCH  14  16
BRANCH  15  18
ATOM     18  O2* UNL     1       2.164   7.180  18.986  0.00  0.00    +0.000 OA
ATOM     19  H2* UNL     1       3.058   7.527  19.192  0.00  0.00    +0.000 HD
ENDBRANCH  15  18
BRANCH  13  20
ATOM     20  C5* UNL     1       1.645   2.739  20.167  0.00  0.00    +0.000 C 
BRANCH  20  21
ATOM     21  O5* UNL     1       0.247   3.006  20.082  0.00  0.00    +0.000 OA
ATOM     22  H5* UNL     1       0.123   3.567  19.293  0.00  0.00    +0.000 HD
ENDBRANCH  20  21
ENDBRANCH  13  20
ENDBRANCH  10  11
BRANCH   1  23
ATOM     23  N   UNL     1       7.311   5.007  14.399  0.00  0.00    +0.000 N 
ATOM     24  H   UNL     1       7.147   4.020  14.268  0.00  0.00    +0.000 HD
ATOM     25  H   UNL     1       7.108   5.639  13.633  0.00  0.00    +0.000 HD
ENDBRANCH   1  23
TORSDOF 6
ENDMDL
