MODEL 1
REMARK VINA RESULT:      -5.7      0.000      0.000
REMARK  Name = 
REMARK  9 active torsions:
REMARK  status: ('A' for Active; 'I' for Inactive)
REMARK    1  A    between atoms: C_1  and  C_2
REMARK    2  A    between atoms: C_2  and  C_3
REMARK    3  A    between atoms: C_4  and  C_5
REMARK    4  A    between atoms: N_7  and  C_8
REMARK    5  A    between atoms: C_14  and  C_15
REMARK    6  A    between atoms: N_16  and  C_17
REMARK    7  A    between atoms: C_17  and  C_18
REMARK    8  A    between atoms: N_22  and  C_23
REMARK    9  A    between atoms: C_23  and  C_24
REMARK                            x       y       z     vdW  Elec       q    Type
REMARK                         _______ _______ _______ _____ _____    ______ ____
ROOT
ATOM      1  C   UNL     1       5.269   5.269  17.598  0.00  0.00    +0.000 A 
ATOM      2  C   UNL     1       5.463   5.881  16.383  0.00  0.00    +0.000 A 
ATOM      3  C   UNL     1       4.504   6.959  16.004  0.00  0.00    +0.000 A 
ATOM      4  O   UNL     1       4.514   7.504  14.901  0.00  0.00    +0.000 OA
ATOM      5  C   UNL     1       3.507   7.394  16.978  0.00  0.00    +0.000 A 
ATOM      6  C   UNL     1       3.399   6.773  18.158  0.00  0.00    +0.000 A 
ATOM      7  C   UNL     1       2.357   7.353  19.092  0.00  0.00    +0.000 C 
ATOM      8  N   UNL     1       4.213   5.671  18.517  0.00  0.00    +0.000 N 
ENDROOT
BRANCH   2   9
ATOM      9  C   UNL     1       6.575   5.531  15.411  0.00  0.00    +0.000 C 
ATOM     10  O   UNL     1       7.721   5.965  15.520  0.00  0.00    +0.000 OA
ATOM     11  N   UNL     1       6.233   4.700  14.360  0.00  0.00    +0.000 N 
ATOM     12  H   UNL     1       5.258   4.417  14.252  0.00  0.00    +0.000 HD
BRANCH  11  13
ATOM     13  C   UNL     1       7.193   4.241  13.408  0.00  0.00    +0.000 C 
ATOM     14  C   UNL     1       6.705   3.597  12.140  0.00  0.00    +0.000 C 
ATOM     15  C   UNL     1       7.410   4.919  12.084  0.00  0.00    +0.000 C 
ENDBRANCH  11  13
ENDBRANCH   2   9
BRANCH   1  17
ATOM     16  C   UNL     1       7.531   4.369  18.482  0.00  0.00    +0.000 C 
ATOM     17  C   UNL     1       6.128   4.051  17.969  0.00  0.00    +0.000 C 
ENDBRANCH   1  17
BRANCH   8  18
ATOM     18  C   UNL     1       4.055   5.031  19.884  0.00  0.00    +0.000 C 
BRANCH  18  19
ATOM     19  C   UNL     1       3.379   3.621  19.865  0.00  0.00    +0.000 C 
ATOM     20  C   UNL     1       2.742   3.219  21.187  0.00  0.00    +0.000 C 
ATOM     21  C   UNL     1       1.339   3.771  21.097  0.00  0.00    +0.000 C 
ATOM     22  C   UNL     1       1.004   3.729  19.618  0.00  0.00    +0.000 C 
ATOM     23  N   UNL     1       2.261   3.515  18.869  0.00  0.00    +0.000 NA
BRANCH  23  24
ATOM     24  C   UNL     1       2.283   2.190  18.209  0.00  0.00    +0.000 C 
ATOM     25  C   UNL     1       3.616   1.445  18.292  0.00  0.00    +0.000 C 
ENDBRANCH  23  24
ENDBRANCH  18  19
ENDBRANCH   8  18
TORSDOF 6
ENDMDL
MODEL 2
REMARK VINA RESULT:      -5.6      8.119     11.922
REMARK  Name = 
REMARK  9 active torsions:
REMARK  status: ('A' for Active; 'I' for Inactive)
REMARK    1  A    between atoms: C_1  and  C_2
REMARK    2  A    between atoms: C_2  and  C_3
REMARK    3  A    between atoms: C_4  and  C_5
REMARK    4  A    between atoms: N_7  and  C_8
REMARK    5  A    between atoms: C_14  and  C_15
REMARK    6  A    between atoms: N_16  and  C_17
REMARK    7  A    between atoms: C_17  and  C_18
REMARK    8  A    between atoms: N_22  and  C_23
REMARK    9  A    between atoms: C_23  and  C_24
REMARK                            x       y       z     vdW  Elec       q    Type
REMARK                         _______ _______ _______ _____ _____    ______ ____
ROOT
ATOM      1  C   UNL     1      -1.794  12.272  20.360  0.00  0.00    +0.000 A 
ATOM      2  C   UNL     1      -1.452  12.038  21.670  0.00  0.00    +0.000 A 
ATOM      3  C   UNL     1      -0.401  11.012  21.926  0.00  0.00    +0.000 A 
ATOM      4  O   UNL     1      -0.088  10.644  23.057  0.00  0.00    +0.000 OA
ATOM      5  C   UNL     1       0.293  10.412  20.790  0.00  0.00    +0.000 A 
ATOM      6  C   UNL     1      -0.071  10.713  19.539  0.00  0.00    +0.000 A 
ATOM      7  C   UNL     1       0.760  10.057  18.455  0.00  0.00    +0.000 C 
ATOM      8  N   UNL     1      -1.139  11.597  19.248  0.00  0.00    +0.000 N 
ENDROOT
BRANCH   2   9
ATOM      9  C   UNL     1      -2.072  12.747  22.860  0.00  0.00    +0.000 C 
ATOM     10  O   UNL     1      -1.543  13.709  23.418  0.00  0.00    +0.000 OA
ATOM     11  N   UNL     1      -3.275  12.242  23.318  0.00  0.00    +0.000 N 
ATOM     12  H   UNL     1      -3.652  11.398  22.885  0.00  0.00    +0.000 HD
BRANCH  11  13
ATOM     13  C   UNL     1      -3.999  12.849  24.389  0.00  0.00    +0.000 C 
ATOM     14  C   UNL     1      -5.387  13.363  24.126  0.00  0.00    +0.000 C 
ATOM     15  C   UNL     1      -5.183  12.193  25.041  0.00  0.00    +0.000 C 
ENDBRANCH  11  13
ENDBRANCH   2   9
BRANCH   1  17
ATOM     16  C   UNL     1      -4.360  12.566  20.167  0.00  0.00    +0.000 C 
ATOM     17  C   UNL     1      -2.976  13.201  20.049  0.00  0.00    +0.000 C 
ENDBRANCH   1  17
BRANCH   8  18
ATOM     18  C   UNL     1      -1.481  11.916  17.804  0.00  0.00    +0.000 C 
BRANCH  18  19
ATOM     19  C   UNL     1      -2.119  10.727  17.013  0.00  0.00    +0.000 C 
ATOM     20  C   UNL     1      -3.041   9.850  17.847  0.00  0.00    +0.000 C 
ATOM     21  C   UNL     1      -4.391  10.515  17.718  0.00  0.00    +0.000 C 
ATOM     22  C   UNL     1      -4.372  11.156  16.342  0.00  0.00    +0.000 C 
ATOM     23  N   UNL     1      -2.974  11.173  15.864  0.00  0.00    +0.000 NA
BRANCH  23  24
ATOM     24  C   UNL     1      -2.785  10.275  14.701  0.00  0.00    +0.000 C 
ATOM     25  C   UNL     1      -4.040  10.025  13.863  0.00  0.00    +0.000 C 
ENDBRANCH  23  24
ENDBRANCH  18  19
ENDBRANCH   8  18
TORSDOF 6
ENDMDL
MODEL 3
REMARK VINA RESULT:      -5.5      3.672      6.625
REMARK  Name = 
REMARK  9 active torsions:
REMARK  status: ('A' for Active; 'I' for Inactive)
REMARK    1  A    between atoms: C_1  and  C_2
REMARK    2  A    between atoms: C_2  and  C_3
REMARK    3  A    between atoms: C_4  and  C_5
REMARK    4  A    between atoms: N_7  and  C_8
REMARK    5  A    between atoms: C_14  and  C_15
REMARK    6  A    between atoms: N_16  and  C_17
REMARK    7  A    between atoms: C_17  and  C_18
REMARK    8  A    between atoms: N_22  and  C_23
REMARK    9  A    between atoms: C_23  and  C_24
REMARK                            x       y       z     vdW  Elec       q    Type
REMARK                         _______ _______ _______ _____ _____    ______ ____
ROOT
ATOM      1  C   UNL     1       1.474   8.027  19.978  0.00  0.00    +0.000 A 
ATOM      2  C   UNL     1       1.311   9.076  19.105  0.00  0.00    +0.000 A 
ATOM      3  C   UNL     1       2.219   9.124  17.923  0.00  0.00    +0.000 A 
ATOM      4  O   UNL     1       2.237  10.067  17.132  0.00  0.00    +0.000 OA
ATOM      5  C   UNL     1       3.129   8.008  17.683  0.00  0.00    +0.000 A 
ATOM      6  C   UNL     1       3.210   7.002  18.560  0.00  0.00    +0.000 A 
ATOM      7  C   UNL     1       4.158   5.886  18.169  0.00  0.00    +0.000 C 
ATOM      8  N   UNL     1       2.448   6.968  19.755  0.00  0.00    +0.000 N 
ENDROOT
BRANCH   2   9
ATOM      9  C   UNL     1       0.281  10.179  19.268  0.00  0.00    +0.000 C 
ATOM     10  O   UNL     1       0.438  11.136  20.025  0.00  0.00    +0.000 OA
ATOM     11  N   UNL     1      -0.881  10.048  18.529  0.00  0.00    +0.000 N 
ATOM     12  H   UNL     1      -1.016   9.205  17.968  0.00  0.00    +0.000 HD
BRANCH  11  13
ATOM     13  C   UNL     1      -1.906  11.042  18.538  0.00  0.00    +0.000 C 
ATOM     14  C   UNL     1      -2.384  11.603  17.228  0.00  0.00    +0.000 C 
ATOM     15  C   UNL     1      -3.306  10.766  18.064  0.00  0.00    +0.000 C 
ENDBRANCH  11  13
ENDBRANCH   2   9
BRANCH   1  17
ATOM     16  C   UNL     1       1.218   8.911  22.399  0.00  0.00    +0.000 C 
ATOM     17  C   UNL     1       0.675   8.013  21.289  0.00  0.00    +0.000 C 
ENDBRANCH   1  17
BRANCH   8  18
ATOM     18  C   UNL     1       2.569   5.781  20.692  0.00  0.00    +0.000 C 
BRANCH  18  19
ATOM     19  C   UNL     1       2.460   4.388  19.989  0.00  0.00    +0.000 C 
ATOM     20  C   UNL     1       3.342   3.311  20.605  0.00  0.00    +0.000 C 
ATOM     21  C   UNL     1       2.477   2.708  21.687  0.00  0.00    +0.000 C 
ATOM     22  C   UNL     1       1.058   2.854  21.169  0.00  0.00    +0.000 C 
ATOM     23  N   UNL     1       1.078   3.806  20.038  0.00  0.00    +0.000 NA
BRANCH  23  24
ATOM     24  C   UNL     1       0.755   3.138  18.757  0.00  0.00    +0.000 C 
ATOM     25  C   UNL     1       1.389   3.770  17.517  0.00  0.00    +0.000 C 
ENDBRANCH  23  24
ENDBRANCH  18  19
ENDBRANCH   8  18
TORSDOF 6
ENDMDL
MODEL 4
REMARK VINA RESULT:      -5.5      8.382     11.025
REMARK  Name = 
REMARK  9 active torsions:
REMARK  status: ('A' for Active; 'I' for Inactive)
REMARK    1  A    between atoms: C_1  and  C_2
REMARK    2  A    between atoms: C_2  and  C_3
REMARK    3  A    between atoms: C_4  and  C_5
REMARK    4  A    between atoms: N_7  and  C_8
REMARK    5  A    between atoms: C_14  and  C_15
REMARK    6  A    between atoms: N_16  and  C_17
REMARK    7  A    between atoms: C_17  and  C_18
REMARK    8  A    between atoms: N_22  and  C_23
REMARK    9  A    between atoms: C_23  and  C_24
REMARK                            x       y       z     vdW  Elec       q    Type
REMARK                         _______ _______ _______ _____ _____    ______ ____
ROOT
ATOM      1  C   UNL     1      -2.558  12.136  19.401  0.00  0.00    +0.000 A 
ATOM      2  C   UNL     1      -1.829  11.318  18.573  0.00  0.00    +0.000 A 
ATOM      3  C   UNL     1      -2.583  10.549  17.541  0.00  0.00    +0.000 A 
ATOM      4  O   UNL     1      -2.053   9.709  16.815  0.00  0.00    +0.000 OA
ATOM      5  C   UNL     1      -4.012  10.799  17.376  0.00  0.00    +0.000 A 
ATOM      6  C   UNL     1      -4.651  11.637  18.199  0.00  0.00    +0.000 A 
ATOM      7  C   UNL     1      -6.120  11.840  17.890  0.00  0.00    +0.000 C 
ATOM      8  N   UNL     1      -3.999  12.304  19.266  0.00  0.00    +0.000 N 
ENDROOT
BRANCH   2   9
ATOM      9  C   UNL     1      -0.323  11.145  18.644  0.00  0.00    +0.000 C 
ATOM     10  O   UNL     1       0.463  12.091  18.611  0.00  0.00    +0.000 OA
ATOM     11  N   UNL     1       0.143   9.845  18.727  0.00  0.00    +0.000 N 
ATOM     12  H   UNL     1      -0.527   9.077  18.675  0.00  0.00    +0.000 HD
BRANCH  11  13
ATOM     13  C   UNL     1       1.532   9.540  18.862  0.00  0.00    +0.000 C 
ATOM     14  C   UNL     1       1.941   8.112  19.093  0.00  0.00    +0.000 C 
ATOM     15  C   UNL     1       2.304   8.796  17.809  0.00  0.00    +0.000 C 
ENDBRANCH  11  13
ENDBRANCH   2   9
BRANCH   1  17
ATOM     16  C   UNL     1      -1.559  11.936  21.782  0.00  0.00    +0.000 C 
ATOM     17  C   UNL     1      -1.856  12.828  20.579  0.00  0.00    +0.000 C 
ENDBRANCH   1  17
BRANCH   8  18
ATOM     18  C   UNL     1      -4.780  13.264  20.144  0.00  0.00    +0.000 C 
BRANCH  18  19
ATOM     19  C   UNL     1      -5.487  12.592  21.367  0.00  0.00    +0.000 C 
ATOM     20  C   UNL     1      -4.869  12.945  22.712  0.00  0.00    +0.000 C 
ATOM     21  C   UNL     1      -5.596  14.204  23.126  0.00  0.00    +0.000 C 
ATOM     22  C   UNL     1      -6.977  14.069  22.510  0.00  0.00    +0.000 C 
ATOM     23  N   UNL     1      -6.928  12.986  21.507  0.00  0.00    +0.000 NA
BRANCH  23  24
ATOM     24  C   UNL     1      -7.742  11.820  21.922  0.00  0.00    +0.000 C 
ATOM     25  C   UNL     1      -7.826  10.688  20.897  0.00  0.00    +0.000 C 
ENDBRANCH  23  24
ENDBRANCH  18  19
ENDBRANCH   8  18
TORSDOF 6
ENDMDL
MODEL 5
REMARK VINA RESULT:      -5.5      3.664      6.958
REMARK  Name = 
REMARK  9 active torsions:
REMARK  status: ('A' for Active; 'I' for Inactive)
REMARK    1  A    between atoms: C_1  and  C_2
REMARK    2  A    between atoms: C_2  and  C_3
REMARK    3  A    between atoms: C_4  and  C_5
REMARK    4  A    between atoms: N_7  and  C_8
REMARK    5  A    between atoms: C_14  and  C_15
REMARK    6  A    between atoms: N_16  and  C_17
REMARK    7  A    between atoms: C_17  and  C_18
REMARK    8  A    between atoms: N_22  and  C_23
REMARK    9  A    between atoms: C_23  and  C_24
REMARK                            x       y       z     vdW  Elec       q    Type
REMARK                         _______ _______ _______ _____ _____    ______ ____
ROOT
ATOM      1  C   UNL     1       1.540   8.021  20.068  0.00  0.00    +0.000 A 
ATOM      2  C   UNL     1       1.295   9.097  19.249  0.00  0.00    +0.000 A 
ATOM      3  C   UNL     1       2.100   9.196  17.998  0.00  0.00    +0.000 A 
ATOM      4  O   UNL     1       2.043  10.165  17.242  0.00  0.00    +0.000 OA
ATOM      5  C   UNL     1       2.998   8.100  17.645  0.00  0.00    +0.000 A 
ATOM      6  C   UNL     1       3.162   7.066  18.477  0.00  0.00    +0.000 A 
ATOM      7  C   UNL     1       4.085   5.977  17.970  0.00  0.00    +0.000 C 
ATOM      8  N   UNL     1       2.503   6.982  19.728  0.00  0.00    +0.000 N 
ENDROOT
BRANCH   2   9
ATOM      9  C   UNL     1       0.271  10.180  19.535  0.00  0.00    +0.000 C 
ATOM     10  O   UNL     1      -0.938  10.021  19.364  0.00  0.00    +0.000 OA
ATOM     11  N   UNL     1       0.766  11.389  19.987  0.00  0.00    +0.000 N 
ATOM     12  H   UNL     1       1.777  11.517  20.046  0.00  0.00    +0.000 HD
BRANCH  11  13
ATOM     13  C   UNL     1      -0.088  12.473  20.353  0.00  0.00    +0.000 C 
ATOM     14  C   UNL     1      -0.215  12.836  21.807  0.00  0.00    +0.000 C 
ATOM     15  C   UNL     1       0.441  13.789  20.854  0.00  0.00    +0.000 C 
ENDBRANCH  11  13
ENDBRANCH   2   9
BRANCH   1  17
ATOM     16  C   UNL     1       1.294   9.011  22.448  0.00  0.00    +0.000 C 
ATOM     17  C   UNL     1       0.854   7.952  21.440  0.00  0.00    +0.000 C 
ENDBRANCH   1  17
BRANCH   8  18
ATOM     18  C   UNL     1       2.713   5.766  20.611  0.00  0.00    +0.000 C 
BRANCH  18  19
ATOM     19  C   UNL     1       2.510   4.396  19.884  0.00  0.00    +0.000 C 
ATOM     20  C   UNL     1       3.385   3.272  20.420  0.00  0.00    +0.000 C 
ATOM     21  C   UNL     1       2.564   2.674  21.537  0.00  0.00    +0.000 C 
ATOM     22  C   UNL     1       1.123   2.885  21.110  0.00  0.00    +0.000 C 
ATOM     23  N   UNL     1       1.112   3.865  20.003  0.00  0.00    +0.000 NA
BRANCH  23  24
ATOM     24  C   UNL     1       0.686   3.242  18.729  0.00  0.00    +0.000 C 
ATOM     25  C   UNL     1       1.322   3.837  17.471  0.00  0.00    +0.000 C 
ENDBRANCH  23  24
ENDBRANCH  18  19
ENDBRANCH   8  18
TORSDOF 6
ENDMDL
MODEL 6
REMARK VINA RESULT:      -5.4      2.480      4.625
REMARK  Name = 
REMARK  9 active torsions:
REMARK  status: ('A' for Active; 'I' for Inactive)
REMARK    1  A    between atoms: C_1  and  C_2
REMARK    2  A    between atoms: C_2  and  C_3
REMARK    3  A    between atoms: C_4  and  C_5
REMARK    4  A    between atoms: N_7  and  C_8
REMARK    5  A    between atoms: C_14  and  C_15
REMARK    6  A    between atoms: N_16  and  C_17
REMARK    7  A    between atoms: C_17  and  C_18
REMARK    8  A    between atoms: N_22  and  C_23
REMARK    9  A    between atoms: C_23  and  C_24
REMARK                            x       y       z     vdW  Elec       q    Type
REMARK                         _______ _______ _______ _____ _____    ______ ____
ROOT
ATOM      1  C   UNL     1       3.784   5.712  17.946  0.00  0.00    +0.000 A 
ATOM      2  C   UNL     1       4.649   4.650  18.059  0.00  0.00    +0.000 A 
ATOM      3  C   UNL     1       4.403   3.689  19.172  0.00  0.00    +0.000 A 
ATOM      4  O   UNL     1       5.169   2.762  19.436  0.00  0.00    +0.000 OA
ATOM      5  C   UNL     1       3.204   3.844  19.990  0.00  0.00    +0.000 A 
ATOM      6  C   UNL     1       2.387   4.886  19.800  0.00  0.00    +0.000 A 
ATOM      7  C   UNL     1       1.157   4.903  20.684  0.00  0.00    +0.000 C 
ATOM      8  N   UNL     1       2.640   5.886  18.829  0.00  0.00    +0.000 N 
ENDROOT
BRANCH   2   9
ATOM      9  C   UNL     1       5.827   4.399  17.136  0.00  0.00    +0.000 C 
ATOM     10  O   UNL     1       6.997   4.452  17.513  0.00  0.00    +0.000 OA
ATOM     11  N   UNL     1       5.525   4.123  15.815  0.00  0.00    +0.000 N 
ATOM     12  H   UNL     1       4.550   4.161  15.514  0.00  0.00    +0.000 HD
BRANCH  11  13
ATOM     13  C   UNL     1       6.532   3.806  14.853  0.00  0.00    +0.000 C 
ATOM     14  C   UNL     1       6.157   3.772  13.397  0.00  0.00    +0.000 C 
ATOM     15  C   UNL     1       7.094   4.827  13.903  0.00  0.00    +0.000 C 
ENDBRANCH  11  13
ENDBRANCH   2   9
BRANCH   1  17
ATOM     16  C   UNL     1       5.402   7.554  17.112  0.00  0.00    +0.000 C 
ATOM     17  C   UNL     1       4.081   6.814  16.918  0.00  0.00    +0.000 C 
ENDBRANCH   1  17
BRANCH   8  18
ATOM     18  C   UNL     1       1.655   7.027  18.648  0.00  0.00    +0.000 C 
BRANCH  18  19
ATOM     19  C   UNL     1       1.924   8.265  19.565  0.00  0.00    +0.000 C 
ATOM     20  C   UNL     1       2.039   9.582  18.811  0.00  0.00    +0.000 C 
ATOM     21  C   UNL     1       0.616  10.085  18.739  0.00  0.00    +0.000 C 
ATOM     22  C   UNL     1      -0.043   9.551  19.998  0.00  0.00    +0.000 C 
ATOM     23  N   UNL     1       0.835   8.507  20.567  0.00  0.00    +0.000 NA
BRANCH  23  24
ATOM     24  C   UNL     1       1.413   8.930  21.864  0.00  0.00    +0.000 C 
ATOM     25  C   UNL     1       0.403   9.466  22.881  0.00  0.00    +0.000 C 
ENDBRANCH  23  24
ENDBRANCH  18  19
ENDBRANCH   8  18
TORSDOF 6
ENDMDL
MODEL 7
REMARK VINA RESULT:      -5.4      7.939     10.633
REMARK  Name = 
REMARK  9 active torsions:
REMARK  status: ('A' for Active; 'I' for Inactive)
REMARK    1  A    between atoms: C_1  and  C_2
REMARK    2  A    between atoms: C_2  and  C_3
REMARK    3  A    between atoms: C_4  and  C_5
REMARK    4  A    between atoms: N_7  and  C_8
REMARK    5  A    between atoms: C_14  and  C_15
REMARK    6  A    between atoms: N_16  and  C_17
REMARK    7  A    between atoms: C_17  and  C_18
REMARK    8  A    between atoms: N_22  and  C_23
REMARK    9  A    between atoms: C_23  and  C_24
REMARK                            x       y       z     vdW  Elec       q    Type
REMARK                         _______ _______ _______ _____ _____    ______ ____
ROOT
ATOM      1  C   UNL     1      -1.595  12.018  19.820  0.00  0.00    +0.000 A 
ATOM      2  C   UNL     1      -1.096  11.169  18.862  0.00  0.00    +0.000 A 
ATOM      3  C   UNL     1      -2.068  10.595  17.888  0.00  0.00    +0.000 A 
ATOM      4  O   UNL     1      -1.757   9.746  17.054  0.00  0.00    +0.000 OA
ATOM      5  C   UNL     1      -3.453  11.057  17.915  0.00  0.00    +0.000 A 
ATOM      6  C   UNL     1      -3.862  11.913  18.858  0.00  0.00    +0.000 A 
ATOM      7  C   UNL     1      -5.309  12.347  18.744  0.00  0.00    +0.000 C 
ATOM      8  N   UNL     1      -3.000  12.398  19.873  0.00  0.00    +0.000 N 
ENDROOT
BRANCH   2   9
ATOM      9  C   UNL     1       0.366  10.778  18.737  0.00  0.00    +0.000 C 
ATOM     10  O   UNL     1       1.255  11.587  18.470  0.00  0.00    +0.000 OA
ATOM     11  N   UNL     1       0.661   9.440  18.917  0.00  0.00    +0.000 N 
ATOM     12  H   UNL     1      -0.105   8.780  19.060  0.00  0.00    +0.000 HD
BRANCH  11  13
ATOM     13  C   UNL     1       2.000   8.944  18.888  0.00  0.00    +0.000 C 
ATOM     14  C   UNL     1       2.243   7.495  19.205  0.00  0.00    +0.000 C 
ATOM     15  C   UNL     1       2.496   8.009  17.820  0.00  0.00    +0.000 C 
ENDBRANCH  11  13
ENDBRANCH   2   9
BRANCH   1  17
ATOM     16  C   UNL     1      -0.388  11.505  22.053  0.00  0.00    +0.000 C 
ATOM     17  C   UNL     1      -0.668  12.512  20.940  0.00  0.00    +0.000 C 
ENDBRANCH   1  17
BRANCH   8  18
ATOM     18  C   UNL     1      -3.523  13.391  20.895  0.00  0.00    +0.000 C 
BRANCH  18  19
ATOM     19  C   UNL     1      -4.362  12.749  22.049  0.00  0.00    +0.000 C 
ATOM     20  C   UNL     1      -3.567  12.479  23.318  0.00  0.00    +0.000 C 
ATOM     21  C   UNL     1      -3.683  13.766  24.100  0.00  0.00    +0.000 C 
ATOM     22  C   UNL     1      -5.035  14.334  23.706  0.00  0.00    +0.000 C 
ATOM     23  N   UNL     1      -5.501  13.613  22.503  0.00  0.00    +0.000 NA
BRANCH  23  24
ATOM     24  C   UNL     1      -6.694  12.784  22.793  0.00  0.00    +0.000 C 
ATOM     25  C   UNL     1      -7.418  13.121  24.097  0.00  0.00    +0.000 C 
ENDBRANCH  23  24
ENDBRANCH  18  19
ENDBRANCH   8  18
TORSDOF 6
ENDMDL
MODEL 8
REMARK VINA RESULT:      -5.3      1.272      1.673
REMARK  Name = 
REMARK  9 active torsions:
REMARK  status: ('A' for Active; 'I' for Inactive)
REMARK    1  A    between atoms: C_1  and  C_2
REMARK    2  A    between atoms: C_2  and  C_3
REMARK    3  A    between atoms: C_4  and  C_5
REMARK    4  A    between atoms: N_7  and  C_8
REMARK    5  A    between atoms: C_14  and  C_15
REMARK    6  A    between atoms: N_16  and  C_17
REMARK    7  A    between atoms: C_17  and  C_18
REMARK    8  A    between atoms: N_22  and  C_23
REMARK    9  A    between atoms: C_23  and  C_24
REMARK                            x       y       z     vdW  Elec       q    Type
REMARK                         _______ _______ _______ _____ _____    ______ ____
ROOT
ATOM      1  C   UNL     1       4.281   5.613  18.590  0.00  0.00    +0.000 A 
ATOM      2  C   UNL     1       4.290   6.538  17.574  0.00  0.00    +0.000 A 
ATOM      3  C   UNL     1       3.228   7.584  17.597  0.00  0.00    +0.000 A 
ATOM      4  O   UNL     1       3.072   8.398  16.687  0.00  0.00    +0.000 OA
ATOM      5  C   UNL     1       2.330   7.656  18.746  0.00  0.00    +0.000 A 
ATOM      6  C   UNL     1       2.401   6.740  19.718  0.00  0.00    +0.000 A 
ATOM      7  C   UNL     1       1.444   6.957  20.872  0.00  0.00    +0.000 C 
ATOM      8  N   UNL     1       3.319   5.661  19.683  0.00  0.00    +0.000 N 
ENDROOT
BRANCH   2   9
ATOM      9  C   UNL     1       5.298   6.558  16.439  0.00  0.00    +0.000 C 
ATOM     10  O   UNL     1       6.179   7.411  16.340  0.00  0.00    +0.000 OA
ATOM     11  N   UNL     1       5.167   5.566  15.484  0.00  0.00    +0.000 N 
ATOM     12  H   UNL     1       4.381   4.918  15.550  0.00  0.00    +0.000 HD
BRANCH  11  13
ATOM     13  C   UNL     1       6.084   5.429  14.398  0.00  0.00    +0.000 C 
ATOM     14  C   UNL     1       7.308   4.575  14.585  0.00  0.00    +0.000 C 
ATOM     15  C   UNL     1       6.238   4.148  13.624  0.00  0.00    +0.000 C 
ENDBRANCH  11  13
ENDBRANCH   2   9
BRANCH   1  17
ATOM     16  C   UNL     1       6.695   4.735  18.923  0.00  0.00    +0.000 C 
ATOM     17  C   UNL     1       5.251   4.425  18.531  0.00  0.00    +0.000 C 
ENDBRANCH   1  17
BRANCH   8  18
ATOM     18  C   UNL     1       3.365   4.674  20.835  0.00  0.00    +0.000 C 
BRANCH  18  19
ATOM     19  C   UNL     1       2.958   3.213  20.451  0.00  0.00    +0.000 C 
ATOM     20  C   UNL     1       2.525   2.358  21.633  0.00  0.00    +0.000 C 
ATOM     21  C   UNL     1       1.042   2.623  21.748  0.00  0.00    +0.000 C 
ATOM     22  C   UNL     1       0.592   2.907  20.326  0.00  0.00    +0.000 C 
ATOM     23  N   UNL     1       1.796   3.152  19.505  0.00  0.00    +0.000 NA
BRANCH  23  24
ATOM     24  C   UNL     1       2.001   2.080  18.504  0.00  0.00    +0.000 C 
ATOM     25  C   UNL     1       3.439   1.572  18.383  0.00  0.00    +0.000 C 
ENDBRANCH  23  24
ENDBRANCH  18  19
ENDBRANCH   8  18
TORSDOF 6
ENDMDL
MODEL 9
REMARK VINA RESULT:      -5.3      8.873     12.674
REMARK  Name = 
REMARK  9 active torsions:
REMARK  status: ('A' for Active; 'I' for Inactive)
REMARK    1  A    between atoms: C_1  and  C_2
REMARK    2  A    between atoms: C_2  and  C_3
REMARK    3  A    between atoms: C_4  and  C_5
REMARK    4  A    between atoms: N_7  and  C_8
REMARK    5  A    between atoms: C_14  and  C_15
REMARK    6  A    between atoms: N_16  and  C_17
REMARK    7  A    between atoms: C_17  and  C_18
REMARK    8  A    between atoms: N_22  and  C_23
REMARK    9  A    between atoms: C_23  and  C_24
REMARK                            x       y       z     vdW  Elec       q    Type
REMARK                         _______ _______ _______ _____ _____    ______ ____
ROOT
ATOM      1  C   UNL     1      -3.998  12.489  19.505  0.00  0.00    +0.000 A 
ATOM      2  C   UNL     1      -5.368  12.384  19.469  0.00  0.00    +0.000 A 
ATOM      3  C   UNL     1      -5.963  11.646  18.318  0.00  0.00    +0.000 A 
ATOM      4  O   UNL     1      -7.176  11.578  18.124  0.00  0.00    +0.000 OA
ATOM      5  C   UNL     1      -5.077  10.970  17.376  0.00  0.00    +0.000 A 
ATOM      6  C   UNL     1      -3.750  11.088  17.493  0.00  0.00    +0.000 A 
ATOM      7  C   UNL     1      -2.946  10.299  16.479  0.00  0.00    +0.000 C 
ATOM      8  N   UNL     1      -3.140  11.871  18.504  0.00  0.00    +0.000 N 
ENDROOT
BRANCH   2   9
ATOM      9  C   UNL     1      -6.302  12.970  20.512  0.00  0.00    +0.000 C 
ATOM     10  O   UNL     1      -6.861  14.058  20.375  0.00  0.00    +0.000 OA
ATOM     11  N   UNL     1      -6.486  12.222  21.660  0.00  0.00    +0.000 N 
ATOM     12  H   UNL     1      -5.951  11.361  21.780  0.00  0.00    +0.000 HD
BRANCH  11  13
ATOM     13  C   UNL     1      -7.385  12.623  22.695  0.00  0.00    +0.000 C 
ATOM     14  C   UNL     1      -7.050  12.279  24.120  0.00  0.00    +0.000 C 
ATOM     15  C   UNL     1      -7.055  13.712  23.678  0.00  0.00    +0.000 C 
ENDBRANCH  11  13
ENDBRANCH   2   9
BRANCH   1  17
ATOM     16  C   UNL     1      -3.091  12.688  21.922  0.00  0.00    +0.000 C 
ATOM     17  C   UNL     1      -3.341  13.369  20.579  0.00  0.00    +0.000 C 
ENDBRANCH   1  17
BRANCH   8  18
ATOM     18  C   UNL     1      -1.626  11.937  18.595  0.00  0.00    +0.000 C 
BRANCH  18  19
ATOM     19  C   UNL     1      -0.967  10.716  19.317  0.00  0.00    +0.000 C 
ATOM     20  C   UNL     1       0.070   9.984  18.478  0.00  0.00    +0.000 C 
ATOM     21  C   UNL     1       1.358  10.713  18.775  0.00  0.00    +0.000 C 
ATOM     22  C   UNL     1       1.197  11.212  20.200  0.00  0.00    +0.000 C 
ATOM     23  N   UNL     1      -0.230  11.096  20.567  0.00  0.00    +0.000 NA
BRANCH  23  24
ATOM     24  C   UNL     1      -0.441  10.076  21.620  0.00  0.00    +0.000 C 
ATOM     25  C   UNL     1       0.833   9.407  22.140  0.00  0.00    +0.000 C 
ENDBRANCH  23  24
ENDBRANCH  18  19
ENDBRANCH   8  18
TORSDOF 6
ENDMDL
