MODEL 1
REMARK VINA RESULT:      -7.7      0.000      0.000
REMARK  Name = 
REMARK  6 active torsions:
REMARK  status: ('A' for Active; 'I' for Inactive)
REMARK    1  A    between atoms: C_1  and  C_2
REMARK    2  A    between atoms: C_7  and  O_8
REMARK    3  A    between atoms: O_8  and  C_9
REMARK    4  A    between atoms: C_9  and  C_10
REMARK    5  A    between atoms: C_10  and  C_11
REMARK    6  A    between atoms: C_10  and  N_12
REMARK                            x       y       z     vdW  Elec       q    Type
REMARK                         _______ _______ _______ _____ _____    ______ ____
ROOT
ATOM      1  C   UNL     1       5.117   5.008  18.188  0.00  0.00    +0.000 C 
ATOM      2  C   UNL     1       5.945   5.254  19.467  0.00  0.00    +0.000 C 
ENDROOT
BRANCH   1   3
ATOM      3  N   UNL     1       5.922   4.923  16.919  0.00  0.00    +0.000 N 
ATOM      4  C   UNL     1       6.950   5.814  16.686  0.00  0.00    +0.000 A 
ATOM      5  N   UNL     1       7.612   5.964  15.588  0.00  0.00    +0.000 NA
ATOM      6  C   UNL     1       7.233   5.177  14.507  0.00  0.00    +0.000 A 
ATOM      7  N   UNL     1       7.942   5.375  13.370  0.00  0.00    +0.000 NA
ATOM      8  C   UNL     1       7.538   4.655  12.298  0.00  0.00    +0.000 A 
ATOM      9  C   UNL     1       6.473   3.769  12.349  0.00  0.00    +0.000 A 
ATOM     10  N   UNL     1       5.765   3.557  13.478  0.00  0.00    +0.000 NA
ATOM     11  C   UNL     1       6.177   4.287  14.551  0.00  0.00    +0.000 A 
ATOM     12  C   UNL     1       5.444   4.173  15.832  0.00  0.00    +0.000 A 
ATOM     13  O   UNL     1       4.454   3.448  15.861  0.00  0.00    +0.000 OA
ENDBRANCH   1   3
BRANCH   1  14
ATOM     14  C   UNL     1       4.037   6.129  18.194  0.00  0.00    +0.000 C 
BRANCH  14  15
ATOM     15  O   UNL     1       2.761   5.647  17.802  0.00  0.00    +0.000 OA
BRANCH  15  22
ATOM     16  C   UNL     1       1.840   6.155  20.798  0.00  0.00    +0.000 C 
ATOM     17  C   UNL     1       1.674   4.924  19.953  0.00  0.00    +0.000 A 
ATOM     18  C   UNL     1       1.037   3.830  20.581  0.00  0.00    +0.000 A 
ATOM     19  C   UNL     1       0.793   2.634  19.909  0.00  0.00    +0.000 A 
ATOM     20  C   UNL     1       1.166   2.508  18.581  0.00  0.00    +0.000 A 
ATOM     21  C   UNL     1       1.804   3.570  17.944  0.00  0.00    +0.000 A 
ATOM     22  C   UNL     1       2.078   4.777  18.613  0.00  0.00    +0.000 A 
ENDBRANCH  15  22
ENDBRANCH  14  15
ENDBRANCH   1  14
TORSDOF 4
ENDMDL
MODEL 2
REMARK VINA RESULT:      -7.7      2.377      6.905
REMARK  Name = 
REMARK  6 active torsions:
REMARK  status: ('A' for Active; 'I' for Inactive)
REMARK    1  A    between atoms: C_1  and  C_2
REMARK    2  A    between atoms: C_7  and  O_8
REMARK    3  A    between atoms: O_8  and  C_9
REMARK    4  A    between atoms: C_9  and  C_10
REMARK    5  A    between atoms: C_10  and  C_11
REMARK    6  A    between atoms: C_10  and  N_12
REMARK                            x       y       z     vdW  Elec       q    Type
REMARK                         _______ _______ _______ _____ _____    ______ ____
ROOT
ATOM      1  C   UNL     1       5.728   6.518  17.468  0.00  0.00    +0.000 C 
ATOM      2  C   UNL     1       7.260   6.587  17.645  0.00  0.00    +0.000 C 
ENDROOT
BRANCH   1   3
ATOM      3  N   UNL     1       5.021   5.595  18.424  0.00  0.00    +0.000 N 
ATOM      4  C   UNL     1       5.578   4.377  18.756  0.00  0.00    +0.000 A 
ATOM      5  N   UNL     1       5.019   3.426  19.425  0.00  0.00    +0.000 NA
ATOM      6  C   UNL     1       3.703   3.621  19.825  0.00  0.00    +0.000 A 
ATOM      7  N   UNL     1       3.149   2.594  20.512  0.00  0.00    +0.000 NA
ATOM      8  C   UNL     1       1.849   2.755  20.853  0.00  0.00    +0.000 A 
ATOM      9  C   UNL     1       1.124   3.891  20.529  0.00  0.00    +0.000 A 
ATOM     10  N   UNL     1       1.668   4.924  19.853  0.00  0.00    +0.000 NA
ATOM     11  C   UNL     1       2.976   4.754  19.513  0.00  0.00    +0.000 A 
ATOM     12  C   UNL     1       3.665   5.802  18.727  0.00  0.00    +0.000 A 
ATOM     13  O   UNL     1       3.007   6.776  18.372  0.00  0.00    +0.000 OA
ENDBRANCH   1   3
BRANCH   1  14
ATOM     14  C   UNL     1       5.519   6.176  15.964  0.00  0.00    +0.000 C 
BRANCH  14  15
ATOM     15  O   UNL     1       6.725   5.772  15.333  0.00  0.00    +0.000 OA
BRANCH  15  22
ATOM     16  C   UNL     1       8.753   5.890  12.892  0.00  0.00    +0.000 C 
ATOM     17  C   UNL     1       7.518   5.049  13.057  0.00  0.00    +0.000 A 
ATOM     18  C   UNL     1       7.201   4.206  11.968  0.00  0.00    +0.000 A 
ATOM     19  C   UNL     1       6.100   3.352  11.994  0.00  0.00    +0.000 A 
ATOM     20  C   UNL     1       5.295   3.308  13.121  0.00  0.00    +0.000 A 
ATOM     21  C   UNL     1       5.584   4.138  14.203  0.00  0.00    +0.000 A 
ATOM     22  C   UNL     1       6.679   5.021  14.186  0.00  0.00    +0.000 A 
ENDBRANCH  15  22
ENDBRANCH  14  15
ENDBRANCH   1  14
TORSDOF 4
ENDMDL
MODEL 3
REMARK VINA RESULT:      -7.6      2.163      3.881
REMARK  Name = 
REMARK  6 active torsions:
REMARK  status: ('A' for Active; 'I' for Inactive)
REMARK    1  A    between atoms: C_1  and  C_2
REMARK    2  A    between atoms: C_7  and  O_8
REMARK    3  A    between atoms: O_8  and  C_9
REMARK    4  A    between atoms: C_9  and  C_10
REMARK    5  A    between atoms: C_10  and  C_11
REMARK    6  A    between atoms: C_10  and  N_12
REMARK                            x       y       z     vdW  Elec       q    Type
REMARK                         _______ _______ _______ _____ _____    ______ ____
ROOT
ATOM      1  C   UNL     1       2.361   3.544  19.923  0.00  0.00    +0.000 C 
ATOM      2  C   UNL     1       2.537   2.835  21.283  0.00  0.00    +0.000 C 
ENDROOT
BRANCH   1   3
ATOM      3  N   UNL     1       3.619   3.666  19.106  0.00  0.00    +0.000 N 
ATOM      4  C   UNL     1       4.818   3.976  19.715  0.00  0.00    +0.000 A 
ATOM      5  N   UNL     1       5.930   4.269  19.131  0.00  0.00    +0.000 NA
ATOM      6  C   UNL     1       5.924   4.319  17.743  0.00  0.00    +0.000 A 
ATOM      7  N   UNL     1       7.107   4.644  17.169  0.00  0.00    +0.000 NA
ATOM      8  C   UNL     1       7.091   4.752  15.820  0.00  0.00    +0.000 A 
ATOM      9  C   UNL     1       5.947   4.544  15.065  0.00  0.00    +0.000 A 
ATOM     10  N   UNL     1       4.766   4.211  15.624  0.00  0.00    +0.000 NA
ATOM     11  C   UNL     1       4.790   4.105  16.982  0.00  0.00    +0.000 A 
ATOM     12  C   UNL     1       3.539   3.792  17.709  0.00  0.00    +0.000 A 
ATOM     13  O   UNL     1       2.509   3.682  17.051  0.00  0.00    +0.000 OA
ENDBRANCH   1   3
BRANCH   1  14
ATOM     14  C   UNL     1       1.680   4.900  20.269  0.00  0.00    +0.000 C 
BRANCH  14  15
ATOM     15  O   UNL     1       2.603   5.979  20.271  0.00  0.00    +0.000 OA
BRANCH  15  22
ATOM     16  C   UNL     1       0.968   8.368  21.575  0.00  0.00    +0.000 C 
ATOM     17  C   UNL     1       1.518   8.247  20.182  0.00  0.00    +0.000 A 
ATOM     18  C   UNL     1       1.257   9.338  19.323  0.00  0.00    +0.000 A 
ATOM     19  C   UNL     1       1.729   9.374  18.012  0.00  0.00    +0.000 A 
ATOM     20  C   UNL     1       2.492   8.322  17.532  0.00  0.00    +0.000 A 
ATOM     21  C   UNL     1       2.753   7.231  18.359  0.00  0.00    +0.000 A 
ATOM     22  C   UNL     1       2.267   7.168  19.678  0.00  0.00    +0.000 A 
ENDBRANCH  15  22
ENDBRANCH  14  15
ENDBRANCH   1  14
TORSDOF 4
ENDMDL
MODEL 4
REMARK VINA RESULT:      -7.5      2.304      6.616
REMARK  Name = 
REMARK  6 active torsions:
REMARK  status: ('A' for Active; 'I' for Inactive)
REMARK    1  A    between atoms: C_1  and  C_2
REMARK    2  A    between atoms: C_7  and  O_8
REMARK    3  A    between atoms: O_8  and  C_9
REMARK    4  A    between atoms: C_9  and  C_10
REMARK    5  A    between atoms: C_10  and  C_11
REMARK    6  A    between atoms: C_10  and  N_12
REMARK                            x       y       z     vdW  Elec       q    Type
REMARK                         _______ _______ _______ _____ _____    ______ ____
ROOT
ATOM      1  C   UNL     1       6.667   5.664  17.900  0.00  0.00    +0.000 C 
ATOM      2  C   UNL     1       7.782   5.987  18.917  0.00  0.00    +0.000 C 
ENDROOT
BRANCH   1   3
ATOM      3  N   UNL     1       5.480   4.935  18.471  0.00  0.00    +0.000 N 
ATOM      4  C   UNL     1       5.664   3.861  19.318  0.00  0.00    +0.000 A 
ATOM      5  N   UNL     1       4.758   3.051  19.749  0.00  0.00    +0.000 NA
ATOM      6  C   UNL     1       3.462   3.245  19.289  0.00  0.00    +0.000 A 
ATOM      7  N   UNL     1       2.544   2.365  19.754  0.00  0.00    +0.000 NA
ATOM      8  C   UNL     1       1.292   2.514  19.262  0.00  0.00    +0.000 A 
ATOM      9  C   UNL     1       0.959   3.500  18.345  0.00  0.00    +0.000 A 
ATOM     10  N   UNL     1       1.862   4.387  17.882  0.00  0.00    +0.000 NA
ATOM     11  C   UNL     1       3.120   4.230  18.382  0.00  0.00    +0.000 A 
ATOM     12  C   UNL     1       4.206   5.117  17.908  0.00  0.00    +0.000 A 
ATOM     13  O   UNL     1       3.933   5.942  17.041  0.00  0.00    +0.000 OA
ENDBRANCH   1   3
BRANCH   1  14
ATOM     14  C   UNL     1       7.391   4.915  16.744  0.00  0.00    +0.000 C 
BRANCH  14  15
ATOM     15  O   UNL     1       7.343   5.637  15.522  0.00  0.00    +0.000 OA
BRANCH  15  22
ATOM     16  C   UNL     1       8.851   5.956  12.747  0.00  0.00    +0.000 C 
ATOM     17  C   UNL     1       7.661   5.103  13.084  0.00  0.00    +0.000 A 
ATOM     18  C   UNL     1       7.123   4.351  12.016  0.00  0.00    +0.000 A 
ATOM     19  C   UNL     1       6.036   3.498  12.190  0.00  0.00    +0.000 A 
ATOM     20  C   UNL     1       5.469   3.360  13.446  0.00  0.00    +0.000 A 
ATOM     21  C   UNL     1       5.977   4.100  14.513  0.00  0.00    +0.000 A 
ATOM     22  C   UNL     1       7.060   4.983  14.351  0.00  0.00    +0.000 A 
ENDBRANCH  15  22
ENDBRANCH  14  15
ENDBRANCH   1  14
TORSDOF 4
ENDMDL
MODEL 5
REMARK VINA RESULT:      -7.4      0.682      1.630
REMARK  Name = 
REMARK  6 active torsions:
REMARK  status: ('A' for Active; 'I' for Inactive)
REMARK    1  A    between atoms: C_1  and  C_2
REMARK    2  A    between atoms: C_7  and  O_8
REMARK    3  A    between atoms: O_8  and  C_9
REMARK    4  A    between atoms: C_9  and  C_10
REMARK    5  A    between atoms: C_10  and  C_11
REMARK    6  A    between atoms: C_10  and  N_12
REMARK                            x       y       z     vdW  Elec       q    Type
REMARK                         _______ _______ _______ _____ _____    ______ ____
ROOT
ATOM      1  C   UNL     1       5.317   4.878  18.165  0.00  0.00    +0.000 C 
ATOM      2  C   UNL     1       6.186   5.272  19.379  0.00  0.00    +0.000 C 
ENDROOT
BRANCH   1   3
ATOM      3  N   UNL     1       6.052   4.823  16.852  0.00  0.00    +0.000 N 
ATOM      4  C   UNL     1       7.028   5.754  16.561  0.00  0.00    +0.000 A 
ATOM      5  N   UNL     1       7.619   5.927  15.427  0.00  0.00    +0.000 NA
ATOM      6  C   UNL     1       7.211   5.124  14.370  0.00  0.00    +0.000 A 
ATOM      7  N   UNL     1       7.846   5.347  13.194  0.00  0.00    +0.000 NA
ATOM      8  C   UNL     1       7.410   4.609  12.147  0.00  0.00    +0.000 A 
ATOM      9  C   UNL     1       6.386   3.681  12.258  0.00  0.00    +0.000 A 
ATOM     10  N   UNL     1       5.753   3.444  13.426  0.00  0.00    +0.000 NA
ATOM     11  C   UNL     1       6.196   4.192  14.474  0.00  0.00    +0.000 A 
ATOM     12  C   UNL     1       5.542   4.051  15.795  0.00  0.00    +0.000 A 
ATOM     13  O   UNL     1       4.586   3.287  15.880  0.00  0.00    +0.000 OA
ENDBRANCH   1   3
BRANCH   1  14
ATOM     14  C   UNL     1       4.121   5.873  18.196  0.00  0.00    +0.000 C 
BRANCH  14  15
ATOM     15  O   UNL     1       2.869   5.209  18.109  0.00  0.00    +0.000 OA
BRANCH  15  22
ATOM     16  C   UNL     1       2.233   2.117  17.767  0.00  0.00    +0.000 C 
ATOM     17  C   UNL     1       2.159   2.967  19.004  0.00  0.00    +0.000 A 
ATOM     18  C   UNL     1       1.728   2.307  20.177  0.00  0.00    +0.000 A 
ATOM     19  C   UNL     1       1.637   2.966  21.402  0.00  0.00    +0.000 A 
ATOM     20  C   UNL     1       1.993   4.302  21.488  0.00  0.00    +0.000 A 
ATOM     21  C   UNL     1       2.412   4.975  20.342  0.00  0.00    +0.000 A 
ATOM     22  C   UNL     1       2.489   4.332  19.092  0.00  0.00    +0.000 A 
ENDBRANCH  15  22
ENDBRANCH  14  15
ENDBRANCH   1  14
TORSDOF 4
ENDMDL
MODEL 6
REMARK VINA RESULT:      -7.3      0.850      1.088
REMARK  Name = 
REMARK  6 active torsions:
REMARK  status: ('A' for Active; 'I' for Inactive)
REMARK    1  A    between atoms: C_1  and  C_2
REMARK    2  A    between atoms: C_7  and  O_8
REMARK    3  A    between atoms: O_8  and  C_9
REMARK    4  A    between atoms: C_9  and  C_10
REMARK    5  A    between atoms: C_10  and  C_11
REMARK    6  A    between atoms: C_10  and  N_12
REMARK                            x       y       z     vdW  Elec       q    Type
REMARK                         _______ _______ _______ _____ _____    ______ ____
ROOT
ATOM      1  C   UNL     1       5.700   4.925  18.519  0.00  0.00    +0.000 C 
ATOM      2  C   UNL     1       6.693   5.407  19.598  0.00  0.00    +0.000 C 
ENDROOT
BRANCH   1   3
ATOM      3  N   UNL     1       6.273   4.830  17.130  0.00  0.00    +0.000 N 
ATOM      4  C   UNL     1       7.186   5.765  16.688  0.00  0.00    +0.000 A 
ATOM      5  N   UNL     1       7.633   5.904  15.486  0.00  0.00    +0.000 NA
ATOM      6  C   UNL     1       7.118   5.052  14.516  0.00  0.00    +0.000 A 
ATOM      7  N   UNL     1       7.603   5.240  13.265  0.00  0.00    +0.000 NA
ATOM      8  C   UNL     1       7.060   4.453  12.306  0.00  0.00    +0.000 A 
ATOM      9  C   UNL     1       6.077   3.513  12.575  0.00  0.00    +0.000 A 
ATOM     10  N   UNL     1       5.594   3.312  13.818  0.00  0.00    +0.000 NA
ATOM     11  C   UNL     1       6.144   4.108  14.776  0.00  0.00    +0.000 A 
ATOM     12  C   UNL     1       5.657   4.009  16.171  0.00  0.00    +0.000 A 
ATOM     13  O   UNL     1       4.734   3.232  16.400  0.00  0.00    +0.000 OA
ENDBRANCH   1   3
BRANCH   1  14
ATOM     14  C   UNL     1       4.478   5.879  18.651  0.00  0.00    +0.000 C 
BRANCH  14  15
ATOM     15  O   UNL     1       3.622   5.510  19.722  0.00  0.00    +0.000 OA
BRANCH  15  22
ATOM     16  C   UNL     1       2.366   3.542  21.874  0.00  0.00    +0.000 C 
ATOM     17  C   UNL     1       2.051   3.669  20.411  0.00  0.00    +0.000 A 
ATOM     18  C   UNL     1       1.074   2.777  19.914  0.00  0.00    +0.000 A 
ATOM     19  C   UNL     1       0.664   2.800  18.582  0.00  0.00    +0.000 A 
ATOM     20  C   UNL     1       1.211   3.732  17.715  0.00  0.00    +0.000 A 
ATOM     21  C   UNL     1       2.183   4.614  18.181  0.00  0.00    +0.000 A 
ATOM     22  C   UNL     1       2.625   4.592  19.516  0.00  0.00    +0.000 A 
ENDBRANCH  15  22
ENDBRANCH  14  15
ENDBRANCH   1  14
TORSDOF 4
ENDMDL
MODEL 7
REMARK VINA RESULT:      -7.3      2.111      3.874
REMARK  Name = 
REMARK  6 active torsions:
REMARK  status: ('A' for Active; 'I' for Inactive)
REMARK    1  A    between atoms: C_1  and  C_2
REMARK    2  A    between atoms: C_7  and  O_8
REMARK    3  A    between atoms: O_8  and  C_9
REMARK    4  A    between atoms: C_9  and  C_10
REMARK    5  A    between atoms: C_10  and  C_11
REMARK    6  A    between atoms: C_10  and  N_12
REMARK                            x       y       z     vdW  Elec       q    Type
REMARK                         _______ _______ _______ _____ _____    ______ ____
ROOT
ATOM      1  C   UNL     1       2.686   3.521  19.668  0.00  0.00    +0.000 C 
ATOM      2  C   UNL     1       2.930   3.097  21.131  0.00  0.00    +0.000 C 
ENDROOT
BRANCH   1   3
ATOM      3  N   UNL     1       3.932   3.690  18.841  0.00  0.00    +0.000 N 
ATOM      4  C   UNL     1       5.094   4.157  19.421  0.00  0.00    +0.000 A 
ATOM      5  N   UNL     1       6.179   4.502  18.814  0.00  0.00    +0.000 NA
ATOM      6  C   UNL     1       6.177   4.438  17.426  0.00  0.00    +0.000 A 
ATOM      7  N   UNL     1       7.329   4.822  16.827  0.00  0.00    +0.000 NA
ATOM      8  C   UNL     1       7.312   4.818  15.474  0.00  0.00    +0.000 A 
ATOM      9  C   UNL     1       6.196   4.445  14.739  0.00  0.00    +0.000 A 
ATOM     10  N   UNL     1       5.047   4.052  15.325  0.00  0.00    +0.000 NA
ATOM     11  C   UNL     1       5.072   4.060  16.687  0.00  0.00    +0.000 A 
ATOM     12  C   UNL     1       3.850   3.695  17.439  0.00  0.00    +0.000 A 
ATOM     13  O   UNL     1       2.838   3.437  16.794  0.00  0.00    +0.000 OA
ENDBRANCH   1   3
BRANCH   1  14
ATOM     14  C   UNL     1       1.798   4.795  19.768  0.00  0.00    +0.000 C 
BRANCH  14  15
ATOM     15  O   UNL     1       2.548   5.945  20.132  0.00  0.00    +0.000 OA
BRANCH  15  22
ATOM     16  C   UNL     1       3.364   7.270  17.364  0.00  0.00    +0.000 C 
ATOM     17  C   UNL     1       2.528   7.839  18.476  0.00  0.00    +0.000 A 
ATOM     18  C   UNL     1       2.053   9.155  18.275  0.00  0.00    +0.000 A 
ATOM     19  C   UNL     1       1.245   9.798  19.211  0.00  0.00    +0.000 A 
ATOM     20  C   UNL     1       0.876   9.131  20.368  0.00  0.00    +0.000 A 
ATOM     21  C   UNL     1       1.341   7.837  20.592  0.00  0.00    +0.000 A 
ATOM     22  C   UNL     1       2.175   7.180  19.668  0.00  0.00    +0.000 A 
ENDBRANCH  15  22
ENDBRANCH  14  15
ENDBRANCH   1  14
TORSDOF 4
ENDMDL
MODEL 8
REMARK VINA RESULT:      -7.2      2.421      7.019
REMARK  Name = 
REMARK  6 active torsions:
REMARK  status: ('A' for Active; 'I' for Inactive)
REMARK    1  A    between atoms: C_1  and  C_2
REMARK    2  A    between atoms: C_7  and  O_8
REMARK    3  A    between atoms: O_8  and  C_9
REMARK    4  A    between atoms: C_9  and  C_10
REMARK    5  A    between atoms: C_10  and  C_11
REMARK    6  A    between atoms: C_10  and  N_12
REMARK                            x       y       z     vdW  Elec       q    Type
REMARK                         _______ _______ _______ _____ _____    ______ ____
ROOT
ATOM      1  C   UNL     1       6.139   5.837  17.575  0.00  0.00    +0.000 C 
ATOM      2  C   UNL     1       7.183   6.171  18.662  0.00  0.00    +0.000 C 
ENDROOT
BRANCH   1   3
ATOM      3  N   UNL     1       4.818   5.339  18.097  0.00  0.00    +0.000 N 
ATOM      4  C   UNL     1       3.679   6.106  17.955  0.00  0.00    +0.000 A 
ATOM      5  N   UNL     1       2.525   5.885  18.488  0.00  0.00    +0.000 NA
ATOM      6  C   UNL     1       2.415   4.783  19.327  0.00  0.00    +0.000 A 
ATOM      7  N   UNL     1       1.191   4.595  19.877  0.00  0.00    +0.000 NA
ATOM      8  C   UNL     1       1.094   3.558  20.742  0.00  0.00    +0.000 A 
ATOM      9  C   UNL     1       2.167   2.735  21.049  0.00  0.00    +0.000 A 
ATOM     10  N   UNL     1       3.387   2.908  20.500  0.00  0.00    +0.000 NA
ATOM     11  C   UNL     1       3.476   3.954  19.633  0.00  0.00    +0.000 A 
ATOM     12  C   UNL     1       4.781   4.269  19.007  0.00  0.00    +0.000 A 
ATOM     13  O   UNL     1       5.750   3.591  19.333  0.00  0.00    +0.000 OA
ENDBRANCH   1   3
BRANCH   1  14
ATOM     14  C   UNL     1       6.868   4.852  16.616  0.00  0.00    +0.000 C 
BRANCH  14  15
ATOM     15  O   UNL     1       7.318   5.491  15.431  0.00  0.00    +0.000 OA
BRANCH  15  22
ATOM     16  C   UNL     1       8.910   6.005  12.732  0.00  0.00    +0.000 C 
ATOM     17  C   UNL     1       7.717   5.125  12.973  0.00  0.00    +0.000 A 
ATOM     18  C   UNL     1       7.218   4.444  11.840  0.00  0.00    +0.000 A 
ATOM     19  C   UNL     1       6.132   3.574  11.922  0.00  0.00    +0.000 A 
ATOM     20  C   UNL     1       5.527   3.349  13.148  0.00  0.00    +0.000 A 
ATOM     21  C   UNL     1       5.997   4.018  14.277  0.00  0.00    +0.000 A 
ATOM     22  C   UNL     1       7.077   4.916  14.209  0.00  0.00    +0.000 A 
ENDBRANCH  15  22
ENDBRANCH  14  15
ENDBRANCH   1  14
TORSDOF 4
ENDMDL
MODEL 9
REMARK VINA RESULT:      -7.2      2.347      6.416
REMARK  Name = 
REMARK  6 active torsions:
REMARK  status: ('A' for Active; 'I' for Inactive)
REMARK    1  A    between atoms: C_1  and  C_2
REMARK    2  A    between atoms: C_7  and  O_8
REMARK    3  A    between atoms: O_8  and  C_9
REMARK    4  A    between atoms: C_9  and  C_10
REMARK    5  A    between atoms: C_10  and  C_11
REMARK    6  A    between atoms: C_10  and  N_12
REMARK                            x       y       z     vdW  Elec       q    Type
REMARK                         _______ _______ _______ _____ _____    ______ ____
ROOT
ATOM      1  C   UNL     1       6.293   6.655  18.003  0.00  0.00    +0.000 C 
ATOM      2  C   UNL     1       7.783   6.508  18.374  0.00  0.00    +0.000 C 
ENDROOT
BRANCH   1   3
ATOM      3  N   UNL     1       5.384   5.621  18.611  0.00  0.00    +0.000 N 
ATOM      4  C   UNL     1       5.894   4.413  19.043  0.00  0.00    +0.000 A 
ATOM      5  N   UNL     1       5.221   3.382  19.430  0.00  0.00    +0.000 NA
ATOM      6  C   UNL     1       3.836   3.472  19.375  0.00  0.00    +0.000 A 
ATOM      7  N   UNL     1       3.168   2.364  19.776  0.00  0.00    +0.000 NA
ATOM      8  C   UNL     1       1.820   2.425  19.667  0.00  0.00    +0.000 A 
ATOM      9  C   UNL     1       1.157   3.541  19.183  0.00  0.00    +0.000 A 
ATOM     10  N   UNL     1       1.811   4.653  18.789  0.00  0.00    +0.000 NA
ATOM     11  C   UNL     1       3.167   4.583  18.900  0.00  0.00    +0.000 A 
ATOM     12  C   UNL     1       3.992   5.727  18.452  0.00  0.00    +0.000 A 
ATOM     13  O   UNL     1       3.414   6.688  17.952  0.00  0.00    +0.000 OA
ENDBRANCH   1   3
BRANCH   1  14
ATOM     14  C   UNL     1       6.275   6.697  16.447  0.00  0.00    +0.000 C 
BRANCH  14  15
ATOM     15  O   UNL     1       7.232   5.818  15.875  0.00  0.00    +0.000 OA
BRANCH  15  22
ATOM     16  C   UNL     1       4.996   3.582  15.586  0.00  0.00    +0.000 C 
ATOM     17  C   UNL     1       5.971   4.083  14.559  0.00  0.00    +0.000 A 
ATOM     18  C   UNL     1       5.900   3.462  13.292  0.00  0.00    +0.000 A 
ATOM     19  C   UNL     1       6.727   3.843  12.237  0.00  0.00    +0.000 A 
ATOM     20  C   UNL     1       7.636   4.873  12.419  0.00  0.00    +0.000 A 
ATOM     21  C   UNL     1       7.730   5.493  13.663  0.00  0.00    +0.000 A 
ATOM     22  C   UNL     1       6.919   5.106  14.746  0.00  0.00    +0.000 A 
ENDBRANCH  15  22
ENDBRANCH  14  15
ENDBRANCH   1  14
TORSDOF 4
ENDMDL
