MODEL 1
REMARK VINA RESULT:      -7.2      0.000      0.000
REMARK  Name = 
REMARK  13 active torsions:
REMARK  status: ('A' for Active; 'I' for Inactive)
REMARK    1  A    between atoms: C_2  and  C_3
REMARK    2  A    between atoms: C_3  and  N_4
REMARK    3  A    between atoms: N_7  and  C_8
REMARK    4  A    between atoms: C_11  and  O_12
REMARK    5  A    between atoms: O_12  and  C_13
REMARK    6  A    between atoms: C_13  and  C_14
REMARK    7  A    between atoms: C_14  and  O_16
REMARK    8  A    between atoms: C_17  and  N_18
REMARK    9  A    between atoms: C_19  and  C_21
REMARK   10  A    between atoms: C_21  and  C_22
REMARK   11  A    between atoms: C_21  and  C_24
REMARK   12  A    between atoms: C_22  and  C_23
REMARK   13  A    between atoms: C_24  and  C_25
REMARK                            x       y       z     vdW  Elec       q    Type
REMARK                         _______ _______ _______ _____ _____    ______ ____
ROOT
ATOM      1  C   UNL     1       7.248   6.109  18.357  0.00  0.00    +0.000 A 
ATOM      2  C   UNL     1       6.209   5.649  19.154  0.00  0.00    +0.000 A 
ATOM      3  C   UNL     1       5.326   4.671  18.704  0.00  0.00    +0.000 A 
ATOM      4  C   UNL     1       5.417   4.117  17.431  0.00  0.00    +0.000 A 
ATOM      5  C   UNL     1       6.466   4.544  16.581  0.00  0.00    +0.000 A 
ATOM      6  C   UNL     1       7.356   5.556  17.065  0.00  0.00    +0.000 A 
ENDROOT
BRANCH   1  10
ATOM      7  N   UNL     1       9.189   9.170  19.050  0.00  0.00    +0.000 N 
ATOM      8  C   UNL     1       8.251   8.400  18.395  0.00  0.00    +0.000 C 
ATOM      9  O   UNL     1       7.542   8.922  17.537  0.00  0.00    +0.000 OA
ATOM     10  N   UNL     1       8.188   7.082  18.829  0.00  0.00    +0.000 N 
ATOM     11  H   UNL     1       9.892   8.759  19.643  0.00  0.00    +0.000 HD
ATOM     12  H   UNL     1       8.821   6.799  19.560  0.00  0.00    +0.000 HD
BRANCH   7  13
ATOM     13  C   UNL     1       9.291  10.576  18.677  0.00  0.00    +0.000 C 
BRANCH  13  15
ATOM     14  C   UNL     1      11.649  11.759  19.685  0.00  0.00    +0.000 C 
ATOM     15  C   UNL     1      10.560  11.213  19.220  0.00  0.00    +0.000 C 
ENDBRANCH  13  15
ENDBRANCH   7  13
ENDBRANCH   1  10
BRANCH   5  16
ATOM     16  N   UNL     1       6.756   4.063  15.261  0.00  0.00    +0.000 N 
ATOM     17  C   UNL     1       5.999   4.187  14.107  0.00  0.00    +0.000 C 
ATOM     18  O   UNL     1       4.902   4.735  14.012  0.00  0.00    +0.000 OA
ATOM     19  H   UNL     1       7.664   3.644  15.141  0.00  0.00    +0.000 HD
BRANCH  17  20
ATOM     20  C   UNL     1       6.651   3.587  12.846  0.00  0.00    +0.000 C 
BRANCH  20  21
ATOM     21  C   UNL     1       5.620   2.844  11.972  0.00  0.00    +0.000 C 
ATOM     22  C   UNL     1       6.142   1.581  11.309  0.00  0.00    +0.000 C 
ENDBRANCH  20  21
BRANCH  20  23
ATOM     23  C   UNL     1       7.264   4.732  12.002  0.00  0.00    +0.000 C 
ATOM     24  C   UNL     1       8.233   5.604  12.793  0.00  0.00    +0.000 C 
ENDBRANCH  20  23
ENDBRANCH  17  20
ENDBRANCH   5  16
BRANCH   4  25
ATOM     25  O   UNL     1       4.547   3.102  17.120  0.00  0.00    +0.000 OA
BRANCH  25  26
ATOM     26  C   UNL     1       3.841   2.514  18.226  0.00  0.00    +0.000 C 
BRANCH  26  27
ATOM     27  C   UNL     1       2.323   2.465  18.043  0.00  0.00    +0.000 C 
ATOM     28  O   UNL     1       1.693   3.229  17.324  0.00  0.00    +0.000 OA
BRANCH  27  29
ATOM     29  O   UNL     1       1.726   1.479  18.753  0.00  0.00    +0.000 OA
ATOM     30  H   UNL     1       2.394   0.874  19.138  0.00  0.00    +0.000 HD
ENDBRANCH  27  29
ENDBRANCH  26  27
ENDBRANCH  25  26
ENDBRANCH   4  25
TORSDOF 11
ENDMDL
MODEL 2
REMARK VINA RESULT:      -7.0      3.941      7.944
REMARK  Name = 
REMARK  13 active torsions:
REMARK  status: ('A' for Active; 'I' for Inactive)
REMARK    1  A    between atoms: C_2  and  C_3
REMARK    2  A    between atoms: C_3  and  N_4
REMARK    3  A    between atoms: N_7  and  C_8
REMARK    4  A    between atoms: C_11  and  O_12
REMARK    5  A    between atoms: O_12  and  C_13
REMARK    6  A    between atoms: C_13  and  C_14
REMARK    7  A    between atoms: C_14  and  O_16
REMARK    8  A    between atoms: C_17  and  N_18
REMARK    9  A    between atoms: C_19  and  C_21
REMARK   10  A    between atoms: C_21  and  C_22
REMARK   11  A    between atoms: C_21  and  C_24
REMARK   12  A    between atoms: C_22  and  C_23
REMARK   13  A    between atoms: C_24  and  C_25
REMARK                            x       y       z     vdW  Elec       q    Type
REMARK                         _______ _______ _______ _____ _____    ______ ____
ROOT
ATOM      1  C   UNL     1       5.651   4.774  15.268  0.00  0.00    +0.000 A 
ATOM      2  C   UNL     1       5.675   6.160  15.303  0.00  0.00    +0.000 A 
ATOM      3  C   UNL     1       4.968   6.875  16.267  0.00  0.00    +0.000 A 
ATOM      4  C   UNL     1       4.186   6.248  17.231  0.00  0.00    +0.000 A 
ATOM      5  C   UNL     1       4.135   4.833  17.246  0.00  0.00    +0.000 A 
ATOM      6  C   UNL     1       4.865   4.121  16.240  0.00  0.00    +0.000 A 
ENDROOT
BRANCH   1  10
ATOM      7  N   UNL     1       6.830   2.862  12.340  0.00  0.00    +0.000 N 
ATOM      8  C   UNL     1       5.891   3.465  13.150  0.00  0.00    +0.000 C 
ATOM      9  O   UNL     1       4.716   3.493  12.786  0.00  0.00    +0.000 OA
ATOM     10  N   UNL     1       6.411   4.029  14.307  0.00  0.00    +0.000 N 
ATOM     11  H   UNL     1       7.767   2.678  12.660  0.00  0.00    +0.000 HD
ATOM     12  H   UNL     1       7.402   3.946  14.464  0.00  0.00    +0.000 HD
BRANCH   7  13
ATOM     13  C   UNL     1       6.369   2.278  11.085  0.00  0.00    +0.000 C 
BRANCH  13  15
ATOM     14  C   UNL     1       6.085  -0.525  11.276  0.00  0.00    +0.000 C 
ATOM     15  C   UNL     1       6.216   0.769  11.188  0.00  0.00    +0.000 C 
ENDBRANCH  13  15
ENDBRANCH   7  13
ENDBRANCH   1  10
BRANCH   5  16
ATOM     16  N   UNL     1       3.429   4.005  18.181  0.00  0.00    +0.000 N 
ATOM     17  C   UNL     1       3.902   3.407  19.338  0.00  0.00    +0.000 C 
ATOM     18  O   UNL     1       5.051   3.468  19.772  0.00  0.00    +0.000 OA
ATOM     19  H   UNL     1       2.441   3.908  18.015  0.00  0.00    +0.000 HD
BRANCH  17  20
ATOM     20  C   UNL     1       2.839   2.623  20.134  0.00  0.00    +0.000 C 
BRANCH  20  21
ATOM     21  C   UNL     1       2.000   3.554  21.031  0.00  0.00    +0.000 C 
ATOM     22  C   UNL     1       2.306   5.034  20.871  0.00  0.00    +0.000 C 
ENDBRANCH  20  21
BRANCH  20  23
ATOM     23  C   UNL     1       1.883   1.920  19.138  0.00  0.00    +0.000 C 
ATOM     24  C   UNL     1       0.499   2.558  19.087  0.00  0.00    +0.000 C 
ENDBRANCH  20  23
ENDBRANCH  17  20
ENDBRANCH   5  16
BRANCH   4  25
ATOM     25  O   UNL     1       3.599   7.043  18.184  0.00  0.00    +0.000 OA
BRANCH  25  26
ATOM     26  C   UNL     1       2.211   7.357  17.976  0.00  0.00    +0.000 C 
BRANCH  26  27
ATOM     27  C   UNL     1       1.840   8.801  18.315  0.00  0.00    +0.000 C 
ATOM     28  O   UNL     1       1.366   9.155  19.387  0.00  0.00    +0.000 OA
BRANCH  27  29
ATOM     29  O   UNL     1       2.092   9.673  17.310  0.00  0.00    +0.000 OA
ATOM     30  H   UNL     1       1.953   9.249  16.439  0.00  0.00    +0.000 HD
ENDBRANCH  27  29
ENDBRANCH  26  27
ENDBRANCH  25  26
ENDBRANCH   4  25
TORSDOF 11
ENDMDL
MODEL 3
REMARK VINA RESULT:      -7.0      3.873      7.807
REMARK  Name = 
REMARK  13 active torsions:
REMARK  status: ('A' for Active; 'I' for Inactive)
REMARK    1  A    between atoms: C_2  and  C_3
REMARK    2  A    between atoms: C_3  and  N_4
REMARK    3  A    between atoms: N_7  and  C_8
REMARK    4  A    between atoms: C_11  and  O_12
REMARK    5  A    between atoms: O_12  and  C_13
REMARK    6  A    between atoms: C_13  and  C_14
REMARK    7  A    between atoms: C_14  and  O_16
REMARK    8  A    between atoms: C_17  and  N_18
REMARK    9  A    between atoms: C_19  and  C_21
REMARK   10  A    between atoms: C_21  and  C_22
REMARK   11  A    between atoms: C_21  and  C_24
REMARK   12  A    between atoms: C_22  and  C_23
REMARK   13  A    between atoms: C_24  and  C_25
REMARK                            x       y       z     vdW  Elec       q    Type
REMARK                         _______ _______ _______ _____ _____    ______ ____
ROOT
ATOM      1  C   UNL     1       5.632   4.821  15.234  0.00  0.00    +0.000 A 
ATOM      2  C   UNL     1       5.697   6.206  15.240  0.00  0.00    +0.000 A 
ATOM      3  C   UNL     1       4.979   6.964  16.161  0.00  0.00    +0.000 A 
ATOM      4  C   UNL     1       4.142   6.383  17.109  0.00  0.00    +0.000 A 
ATOM      5  C   UNL     1       4.047   4.971  17.152  0.00  0.00    +0.000 A 
ATOM      6  C   UNL     1       4.790   4.215  16.189  0.00  0.00    +0.000 A 
ENDROOT
BRANCH   1  10
ATOM      7  N   UNL     1       6.864   2.828  12.383  0.00  0.00    +0.000 N 
ATOM      8  C   UNL     1       5.915   3.483  13.139  0.00  0.00    +0.000 C 
ATOM      9  O   UNL     1       4.764   3.565  12.715  0.00  0.00    +0.000 OA
ATOM     10  N   UNL     1       6.402   4.031  14.319  0.00  0.00    +0.000 N 
ATOM     11  H   UNL     1       7.774   2.602  12.752  0.00  0.00    +0.000 HD
ATOM     12  H   UNL     1       7.379   3.902  14.526  0.00  0.00    +0.000 HD
BRANCH   7  13
ATOM     13  C   UNL     1       6.440   2.256  11.109  0.00  0.00    +0.000 C 
BRANCH  13  15
ATOM     14  C   UNL     1       6.079  -0.539  11.285  0.00  0.00    +0.000 C 
ATOM     15  C   UNL     1       6.246   0.752  11.204  0.00  0.00    +0.000 C 
ENDBRANCH  13  15
ENDBRANCH   7  13
ENDBRANCH   1  10
BRANCH   5  16
ATOM     16  N   UNL     1       3.281   4.186  18.078  0.00  0.00    +0.000 N 
ATOM     17  C   UNL     1       1.928   3.891  18.053  0.00  0.00    +0.000 C 
ATOM     18  O   UNL     1       1.115   4.275  17.214  0.00  0.00    +0.000 OA
ATOM     19  H   UNL     1       3.812   3.728  18.801  0.00  0.00    +0.000 HD
BRANCH  17  20
ATOM     20  C   UNL     1       1.453   2.968  19.193  0.00  0.00    +0.000 C 
BRANCH  20  21
ATOM     21  C   UNL     1       2.612   2.127  19.763  0.00  0.00    +0.000 C 
ATOM     22  C   UNL     1       3.366   1.304  18.732  0.00  0.00    +0.000 C 
ENDBRANCH  20  21
BRANCH  20  23
ATOM     23  C   UNL     1       0.877   3.839  20.338  0.00  0.00    +0.000 C 
ATOM     24  C   UNL     1       1.784   5.005  20.715  0.00  0.00    +0.000 C 
ENDBRANCH  20  23
ENDBRANCH  17  20
ENDBRANCH   5  16
BRANCH   4  25
ATOM     25  O   UNL     1       3.546   7.217  18.022  0.00  0.00    +0.000 OA
BRANCH  25  26
ATOM     26  C   UNL     1       2.217   7.660  17.697  0.00  0.00    +0.000 C 
BRANCH  26  27
ATOM     27  C   UNL     1       1.862   9.036  18.262  0.00  0.00    +0.000 C 
ATOM     28  O   UNL     1       1.466   9.230  19.403  0.00  0.00    +0.000 OA
BRANCH  27  29
ATOM     29  O   UNL     1       2.036  10.044  17.373  0.00  0.00    +0.000 OA
ATOM     30  H   UNL     1       2.976  10.121  17.114  0.00  0.00    +0.000 HD
ENDBRANCH  27  29
ENDBRANCH  26  27
ENDBRANCH  25  26
ENDBRANCH   4  25
TORSDOF 11
ENDMDL
MODEL 4
REMARK VINA RESULT:      -6.9      4.959      6.233
REMARK  Name = 
REMARK  13 active torsions:
REMARK  status: ('A' for Active; 'I' for Inactive)
REMARK    1  A    between atoms: C_2  and  C_3
REMARK    2  A    between atoms: C_3  and  N_4
REMARK    3  A    between atoms: N_7  and  C_8
REMARK    4  A    between atoms: C_11  and  O_12
REMARK    5  A    between atoms: O_12  and  C_13
REMARK    6  A    between atoms: C_13  and  C_14
REMARK    7  A    between atoms: C_14  and  O_16
REMARK    8  A    between atoms: C_17  and  N_18
REMARK    9  A    between atoms: C_19  and  C_21
REMARK   10  A    between atoms: C_21  and  C_22
REMARK   11  A    between atoms: C_21  and  C_24
REMARK   12  A    between atoms: C_22  and  C_23
REMARK   13  A    between atoms: C_24  and  C_25
REMARK                            x       y       z     vdW  Elec       q    Type
REMARK                         _______ _______ _______ _____ _____    ______ ____
ROOT
ATOM      1  C   UNL     1       1.903   7.287  20.089  0.00  0.00    +0.000 A 
ATOM      2  C   UNL     1       1.227   6.279  20.760  0.00  0.00    +0.000 A 
ATOM      3  C   UNL     1       1.533   4.936  20.553  0.00  0.00    +0.000 A 
ATOM      4  C   UNL     1       2.512   4.528  19.652  0.00  0.00    +0.000 A 
ATOM      5  C   UNL     1       3.239   5.519  18.948  0.00  0.00    +0.000 A 
ATOM      6  C   UNL     1       2.899   6.892  19.173  0.00  0.00    +0.000 A 
ENDROOT
BRANCH   1  10
ATOM      7  N   UNL     1       0.838  10.815  19.878  0.00  0.00    +0.000 N 
ATOM      8  C   UNL     1       1.091   9.549  19.393  0.00  0.00    +0.000 C 
ATOM      9  O   UNL     1       0.802   9.286  18.226  0.00  0.00    +0.000 OA
ATOM     10  N   UNL     1       1.625   8.673  20.329  0.00  0.00    +0.000 N 
ATOM     11  H   UNL     1       1.194  11.122  20.769  0.00  0.00    +0.000 HD
ATOM     12  H   UNL     1       1.789   9.024  21.258  0.00  0.00    +0.000 HD
BRANCH   7  13
ATOM     13  C   UNL     1       0.241  11.784  18.965  0.00  0.00    +0.000 C 
BRANCH  13  15
ATOM     14  C   UNL     1      -2.496  12.199  19.522  0.00  0.00    +0.000 C 
ATOM     15  C   UNL     1      -1.232  12.008  19.265  0.00  0.00    +0.000 C 
ENDBRANCH  13  15
ENDBRANCH   7  13
ENDBRANCH   1  10
BRANCH   5  16
ATOM     16  N   UNL     1       4.310   5.304  18.019  0.00  0.00    +0.000 N 
ATOM     17  C   UNL     1       5.593   4.841  18.266  0.00  0.00    +0.000 C 
ATOM     18  O   UNL     1       6.058   4.538  19.363  0.00  0.00    +0.000 OA
ATOM     19  H   UNL     1       4.077   5.437  17.048  0.00  0.00    +0.000 HD
BRANCH  17  20
ATOM     20  C   UNL     1       6.470   4.684  17.008  0.00  0.00    +0.000 C 
BRANCH  20  21
ATOM     21  C   UNL     1       5.741   3.896  15.902  0.00  0.00    +0.000 C 
ATOM     22  C   UNL     1       6.297   4.104  14.503  0.00  0.00    +0.000 C 
ENDBRANCH  20  21
BRANCH  20  23
ATOM     23  C   UNL     1       6.812   6.090  16.454  0.00  0.00    +0.000 C 
ATOM     24  C   UNL     1       7.569   6.958  17.454  0.00  0.00    +0.000 C 
ENDBRANCH  20  23
ENDBRANCH  17  20
ENDBRANCH   5  16
BRANCH   4  25
ATOM     25  O   UNL     1       2.790   3.185  19.586  0.00  0.00    +0.000 OA
BRANCH  25  26
ATOM     26  C   UNL     1       3.342   2.597  20.776  0.00  0.00    +0.000 C 
BRANCH  26  27
ATOM     27  C   UNL     1       4.575   1.726  20.528  0.00  0.00    +0.000 C 
ATOM     28  O   UNL     1       5.397   1.440  21.388  0.00  0.00    +0.000 OA
BRANCH  27  29
ATOM     29  O   UNL     1       4.676   1.286  19.252  0.00  0.00    +0.000 OA
ATOM     30  H   UNL     1       5.007   0.365  19.227  0.00  0.00    +0.000 HD
ENDBRANCH  27  29
ENDBRANCH  26  27
ENDBRANCH  25  26
ENDBRANCH   4  25
TORSDOF 11
ENDMDL
MODEL 5
REMARK VINA RESULT:      -6.9      4.493      5.765
REMARK  Name = 
REMARK  13 active torsions:
REMARK  status: ('A' for Active; 'I' for Inactive)
REMARK    1  A    between atoms: C_2  and  C_3
REMARK    2  A    between atoms: C_3  and  N_4
REMARK    3  A    between atoms: N_7  and  C_8
REMARK    4  A    between atoms: C_11  and  O_12
REMARK    5  A    between atoms: O_12  and  C_13
REMARK    6  A    between atoms: C_13  and  C_14
REMARK    7  A    between atoms: C_14  and  O_16
REMARK    8  A    between atoms: C_17  and  N_18
REMARK    9  A    between atoms: C_19  and  C_21
REMARK   10  A    between atoms: C_21  and  C_22
REMARK   11  A    between atoms: C_21  and  C_24
REMARK   12  A    between atoms: C_22  and  C_23
REMARK   13  A    between atoms: C_24  and  C_25
REMARK                            x       y       z     vdW  Elec       q    Type
REMARK                         _______ _______ _______ _____ _____    ______ ____
ROOT
ATOM      1  C   UNL     1       2.050   7.142  20.167  0.00  0.00    +0.000 A 
ATOM      2  C   UNL     1       1.508   6.028  20.792  0.00  0.00    +0.000 A 
ATOM      3  C   UNL     1       2.078   4.766  20.650  0.00  0.00    +0.000 A 
ATOM      4  C   UNL     1       3.203   4.543  19.862  0.00  0.00    +0.000 A 
ATOM      5  C   UNL     1       3.802   5.649  19.210  0.00  0.00    +0.000 A 
ATOM      6  C   UNL     1       3.192   6.935  19.367  0.00  0.00    +0.000 A 
ENDROOT
BRANCH   1  10
ATOM      7  N   UNL     1       0.532  10.477  19.728  0.00  0.00    +0.000 N 
ATOM      8  C   UNL     1       1.111   9.297  19.311  0.00  0.00    +0.000 C 
ATOM      9  O   UNL     1       1.205   9.069  18.106  0.00  0.00    +0.000 OA
ATOM     10  N   UNL     1       1.497   8.453  20.344  0.00  0.00    +0.000 N 
ATOM     11  H   UNL     1       0.572  10.777  20.689  0.00  0.00    +0.000 HD
ATOM     12  H   UNL     1       1.337   8.764  21.288  0.00  0.00    +0.000 HD
BRANCH   7  13
ATOM     13  C   UNL     1       0.066  11.403  18.702  0.00  0.00    +0.000 C 
BRANCH  13  15
ATOM     14  C   UNL     1       1.553  13.803  18.701  0.00  0.00    +0.000 C 
ATOM     15  C   UNL     1       0.866  12.695  18.701  0.00  0.00    +0.000 C 
ENDBRANCH  13  15
ENDBRANCH   7  13
ENDBRANCH   1  10
BRANCH   5  16
ATOM     16  N   UNL     1       4.985   5.633  18.399  0.00  0.00    +0.000 N 
ATOM     17  C   UNL     1       6.302   5.452  18.789  0.00  0.00    +0.000 C 
ATOM     18  O   UNL     1       6.703   5.284  19.939  0.00  0.00    +0.000 OA
ATOM     19  H   UNL     1       4.831   5.687  17.405  0.00  0.00    +0.000 HD
BRANCH  17  20
ATOM     20  C   UNL     1       7.318   5.444  17.630  0.00  0.00    +0.000 C 
BRANCH  20  21
ATOM     21  C   UNL     1       6.963   4.380  16.572  0.00  0.00    +0.000 C 
ATOM     22  C   UNL     1       6.909   4.898  15.145  0.00  0.00    +0.000 C 
ENDBRANCH  20  21
BRANCH  20  23
ATOM     23  C   UNL     1       7.307   6.832  16.942  0.00  0.00    +0.000 C 
ATOM     24  C   UNL     1       7.861   7.942  17.828  0.00  0.00    +0.000 C 
ENDBRANCH  20  23
ENDBRANCH  17  20
ENDBRANCH   5  16
BRANCH   4  25
ATOM     25  O   UNL     1       3.730   3.276  19.858  0.00  0.00    +0.000 OA
BRANCH  25  26
ATOM     26  C   UNL     1       3.621   2.551  18.621  0.00  0.00    +0.000 C 
BRANCH  26  27
ATOM     27  C   UNL     1       2.211   2.538  18.028  0.00  0.00    +0.000 C 
ATOM     28  O   UNL     1       1.244   2.016  18.567  0.00  0.00    +0.000 OA
BRANCH  27  29
ATOM     29  O   UNL     1       2.122   3.171  16.834  0.00  0.00    +0.000 OA
ATOM     30  H   UNL     1       1.230   3.554  16.710  0.00  0.00    +0.000 HD
ENDBRANCH  27  29
ENDBRANCH  26  27
ENDBRANCH  25  26
ENDBRANCH   4  25
TORSDOF 11
ENDMDL
MODEL 6
REMARK VINA RESULT:      -6.9      5.196      7.597
REMARK  Name = 
REMARK  13 active torsions:
REMARK  status: ('A' for Active; 'I' for Inactive)
REMARK    1  A    between atoms: C_2  and  C_3
REMARK    2  A    between atoms: C_3  and  N_4
REMARK    3  A    between atoms: N_7  and  C_8
REMARK    4  A    between atoms: C_11  and  O_12
REMARK    5  A    between atoms: O_12  and  C_13
REMARK    6  A    between atoms: C_13  and  C_14
REMARK    7  A    between atoms: C_14  and  O_16
REMARK    8  A    between atoms: C_17  and  N_18
REMARK    9  A    between atoms: C_19  and  C_21
REMARK   10  A    between atoms: C_21  and  C_22
REMARK   11  A    between atoms: C_21  and  C_24
REMARK   12  A    between atoms: C_22  and  C_23
REMARK   13  A    between atoms: C_24  and  C_25
REMARK                            x       y       z     vdW  Elec       q    Type
REMARK                         _______ _______ _______ _____ _____    ______ ____
ROOT
ATOM      1  C   UNL     1       2.515   8.260  17.719  0.00  0.00    +0.000 A 
ATOM      2  C   UNL     1       3.832   8.336  17.292  0.00  0.00    +0.000 A 
ATOM      3  C   UNL     1       4.698   7.251  17.406  0.00  0.00    +0.000 A 
ATOM      4  C   UNL     1       4.303   6.043  17.972  0.00  0.00    +0.000 A 
ATOM      5  C   UNL     1       2.965   5.909  18.417  0.00  0.00    +0.000 A 
ATOM      6  C   UNL     1       2.097   7.042  18.294  0.00  0.00    +0.000 A 
ENDROOT
BRANCH   1  10
ATOM      7  N   UNL     1       0.221  11.108  18.217  0.00  0.00    +0.000 N 
ATOM      8  C   UNL     1       0.996  10.037  18.610  0.00  0.00    +0.000 C 
ATOM      9  O   UNL     1       1.118   9.794  19.810  0.00  0.00    +0.000 OA
ATOM     10  N   UNL     1       1.605   9.357  17.563  0.00  0.00    +0.000 N 
ATOM     11  H   UNL     1      -0.034  11.253  17.254  0.00  0.00    +0.000 HD
ATOM     12  H   UNL     1       1.430   9.684  16.628  0.00  0.00    +0.000 HD
BRANCH   7  13
ATOM     13  C   UNL     1      -0.424  11.897  19.261  0.00  0.00    +0.000 C 
BRANCH  13  15
ATOM     14  C   UNL     1      -3.233  11.916  18.975  0.00  0.00    +0.000 C 
ATOM     15  C   UNL     1      -1.936  11.907  19.108  0.00  0.00    +0.000 C 
ENDBRANCH  13  15
ENDBRANCH   7  13
ENDBRANCH   1  10
BRANCH   5  16
ATOM     16  N   UNL     1       2.356   4.739  18.980  0.00  0.00    +0.000 N 
ATOM     17  C   UNL     1       1.495   3.835  18.380  0.00  0.00    +0.000 C 
ATOM     18  O   UNL     1       1.073   3.888  17.226  0.00  0.00    +0.000 OA
ATOM     19  H   UNL     1       2.654   4.501  19.912  0.00  0.00    +0.000 HD
BRANCH  17  20
ATOM     20  C   UNL     1       1.076   2.655  19.280  0.00  0.00    +0.000 C 
BRANCH  20  21
ATOM     21  C   UNL     1       2.146   1.546  19.296  0.00  0.00    +0.000 C 
ATOM     22  C   UNL     1       3.245   1.708  18.259  0.00  0.00    +0.000 C 
ENDBRANCH  20  21
BRANCH  20  23
ATOM     23  C   UNL     1       0.890   3.169  20.729  0.00  0.00    +0.000 C 
ATOM     24  C   UNL     1       1.875   2.550  21.714  0.00  0.00    +0.000 C 
ENDBRANCH  20  23
ENDBRANCH  17  20
ENDBRANCH   5  16
BRANCH   4  25
ATOM     25  O   UNL     1       5.210   5.013  17.961  0.00  0.00    +0.000 OA
BRANCH  25  26
ATOM     26  C   UNL     1       5.629   4.556  16.664  0.00  0.00    +0.000 C 
BRANCH  26  27
ATOM     27  C   UNL     1       7.099   4.837  16.348  0.00  0.00    +0.000 C 
ATOM     28  O   UNL     1       7.480   5.625  15.494  0.00  0.00    +0.000 OA
BRANCH  27  29
ATOM     29  O   UNL     1       7.961   4.128  17.116  0.00  0.00    +0.000 OA
ATOM     30  H   UNL     1       8.643   3.694  16.563  0.00  0.00    +0.000 HD
ENDBRANCH  27  29
ENDBRANCH  26  27
ENDBRANCH  25  26
ENDBRANCH   4  25
TORSDOF 11
ENDMDL
MODEL 7
REMARK VINA RESULT:      -6.8      4.090      5.300
REMARK  Name = 
REMARK  13 active torsions:
REMARK  status: ('A' for Active; 'I' for Inactive)
REMARK    1  A    between atoms: C_2  and  C_3
REMARK    2  A    between atoms: C_3  and  N_4
REMARK    3  A    between atoms: N_7  and  C_8
REMARK    4  A    between atoms: C_11  and  O_12
REMARK    5  A    between atoms: O_12  and  C_13
REMARK    6  A    between atoms: C_13  and  C_14
REMARK    7  A    between atoms: C_14  and  O_16
REMARK    8  A    between atoms: C_17  and  N_18
REMARK    9  A    between atoms: C_19  and  C_21
REMARK   10  A    between atoms: C_21  and  C_22
REMARK   11  A    between atoms: C_21  and  C_24
REMARK   12  A    between atoms: C_22  and  C_23
REMARK   13  A    between atoms: C_24  and  C_25
REMARK                            x       y       z     vdW  Elec       q    Type
REMARK                         _______ _______ _______ _____ _____    ______ ____
ROOT
ATOM      1  C   UNL     1       2.145   6.657  20.324  0.00  0.00    +0.000 A 
ATOM      2  C   UNL     1       1.412   5.619  20.881  0.00  0.00    +0.000 A 
ATOM      3  C   UNL     1       1.821   4.294  20.761  0.00  0.00    +0.000 A 
ATOM      4  C   UNL     1       2.968   3.931  20.062  0.00  0.00    +0.000 A 
ATOM      5  C   UNL     1       3.758   4.954  19.481  0.00  0.00    +0.000 A 
ATOM      6  C   UNL     1       3.312   6.308  19.614  0.00  0.00    +0.000 A 
ENDROOT
BRANCH   1  10
ATOM      7  N   UNL     1       1.030  10.141  19.838  0.00  0.00    +0.000 N 
ATOM      8  C   UNL     1       1.455   8.892  19.437  0.00  0.00    +0.000 C 
ATOM      9  O   UNL     1       1.501   8.631  18.236  0.00  0.00    +0.000 OA
ATOM     10  N   UNL     1       1.756   8.028  20.482  0.00  0.00    +0.000 N 
ATOM     11  H   UNL     1       1.122  10.452  20.791  0.00  0.00    +0.000 HD
ATOM     12  H   UNL     1       1.651   8.374  21.421  0.00  0.00    +0.000 HD
BRANCH   7  13
ATOM     13  C   UNL     1       0.659  11.096  18.799  0.00  0.00    +0.000 C 
BRANCH  13  15
ATOM     14  C   UNL     1       2.647  13.066  18.429  0.00  0.00    +0.000 C 
ATOM     15  C   UNL     1       1.729  12.156  18.600  0.00  0.00    +0.000 C 
ENDBRANCH  13  15
ENDBRANCH   7  13
ENDBRANCH   1  10
BRANCH   5  16
ATOM     16  N   UNL     1       4.992   4.789  18.767  0.00  0.00    +0.000 N 
ATOM     17  C   UNL     1       5.222   4.875  17.404  0.00  0.00    +0.000 C 
ATOM     18  O   UNL     1       4.380   5.098  16.536  0.00  0.00    +0.000 OA
ATOM     19  H   UNL     1       5.812   4.670  19.339  0.00  0.00    +0.000 HD
BRANCH  17  20
ATOM     20  C   UNL     1       6.696   4.691  16.991  0.00  0.00    +0.000 C 
BRANCH  20  21
ATOM     21  C   UNL     1       6.918   5.046  15.507  0.00  0.00    +0.000 C 
ATOM     22  C   UNL     1       6.454   3.985  14.524  0.00  0.00    +0.000 C 
ENDBRANCH  20  21
BRANCH  20  23
ATOM     23  C   UNL     1       7.580   5.629  17.850  0.00  0.00    +0.000 C 
ATOM     24  C   UNL     1       7.441   7.098  17.467  0.00  0.00    +0.000 C 
ENDBRANCH  20  23
ENDBRANCH  17  20
ENDBRANCH   5  16
BRANCH   4  25
ATOM     25  O   UNL     1       3.324   2.606  20.075  0.00  0.00    +0.000 OA
BRANCH  25  26
ATOM     26  C   UNL     1       3.175   1.900  18.831  0.00  0.00    +0.000 C 
BRANCH  26  27
ATOM     27  C   UNL     1       1.946   2.316  18.021  0.00  0.00    +0.000 C 
ATOM     28  O   UNL     1       0.793   2.066  18.346  0.00  0.00    +0.000 OA
BRANCH  27  29
ATOM     29  O   UNL     1       2.250   3.003  16.894  0.00  0.00    +0.000 OA
ATOM     30  H   UNL     1       1.526   3.618  16.656  0.00  0.00    +0.000 HD
ENDBRANCH  27  29
ENDBRANCH  26  27
ENDBRANCH  25  26
ENDBRANCH   4  25
TORSDOF 11
ENDMDL
MODEL 8
REMARK VINA RESULT:      -6.7      4.743      6.274
REMARK  Name = 
REMARK  13 active torsions:
REMARK  status: ('A' for Active; 'I' for Inactive)
REMARK    1  A    between atoms: C_2  and  C_3
REMARK    2  A    between atoms: C_3  and  N_4
REMARK    3  A    between atoms: N_7  and  C_8
REMARK    4  A    between atoms: C_11  and  O_12
REMARK    5  A    between atoms: O_12  and  C_13
REMARK    6  A    between atoms: C_13  and  C_14
REMARK    7  A    between atoms: C_14  and  O_16
REMARK    8  A    between atoms: C_17  and  N_18
REMARK    9  A    between atoms: C_19  and  C_21
REMARK   10  A    between atoms: C_21  and  C_22
REMARK   11  A    between atoms: C_21  and  C_24
REMARK   12  A    between atoms: C_22  and  C_23
REMARK   13  A    between atoms: C_24  and  C_25
REMARK                            x       y       z     vdW  Elec       q    Type
REMARK                         _______ _______ _______ _____ _____    ______ ____
ROOT
ATOM      1  C   UNL     1       2.019   6.955  20.239  0.00  0.00    +0.000 A 
ATOM      2  C   UNL     1       1.473   5.785  20.747  0.00  0.00    +0.000 A 
ATOM      3  C   UNL     1       2.087   4.550  20.549  0.00  0.00    +0.000 A 
ATOM      4  C   UNL     1       3.263   4.415  19.818  0.00  0.00    +0.000 A 
ATOM      5  C   UNL     1       3.867   5.580  19.285  0.00  0.00    +0.000 A 
ATOM      6  C   UNL     1       3.211   6.836  19.497  0.00  0.00    +0.000 A 
ENDROOT
BRANCH   1  10
ATOM      7  N   UNL     1       0.456  10.286  19.950  0.00  0.00    +0.000 N 
ATOM      8  C   UNL     1       1.099   9.157  19.488  0.00  0.00    +0.000 C 
ATOM      9  O   UNL     1       1.302   9.035  18.281  0.00  0.00    +0.000 OA
ATOM     10  N   UNL     1       1.418   8.234  20.477  0.00  0.00    +0.000 N 
ATOM     11  H   UNL     1       0.405  10.502  20.933  0.00  0.00    +0.000 HD
ATOM     12  H   UNL     1       1.169   8.461  21.425  0.00  0.00    +0.000 HD
BRANCH   7  13
ATOM     13  C   UNL     1       0.055  11.287  18.968  0.00  0.00    +0.000 C 
BRANCH  13  15
ATOM     14  C   UNL     1      -2.585  12.186  19.409  0.00  0.00    +0.000 C 
ATOM     15  C   UNL     1      -1.366  11.771  19.206  0.00  0.00    +0.000 C 
ENDBRANCH  13  15
ENDBRANCH   7  13
ENDBRANCH   1  10
BRANCH   5  16
ATOM     16  N   UNL     1       5.095   5.654  18.548  0.00  0.00    +0.000 N 
ATOM     17  C   UNL     1       5.328   6.221  17.305  0.00  0.00    +0.000 C 
ATOM     18  O   UNL     1       4.492   6.762  16.584  0.00  0.00    +0.000 OA
ATOM     19  H   UNL     1       5.912   5.317  19.031  0.00  0.00    +0.000 HD
BRANCH  17  20
ATOM     20  C   UNL     1       6.797   6.162  16.840  0.00  0.00    +0.000 C 
BRANCH  20  21
ATOM     21  C   UNL     1       7.745   6.807  17.871  0.00  0.00    +0.000 C 
ATOM     22  C   UNL     1       7.928   8.307  17.714  0.00  0.00    +0.000 C 
ENDBRANCH  20  21
BRANCH  20  23
ATOM     23  C   UNL     1       7.210   4.680  16.664  0.00  0.00    +0.000 C 
ATOM     24  C   UNL     1       6.615   4.038  15.416  0.00  0.00    +0.000 C 
ENDBRANCH  20  23
ENDBRANCH  17  20
ENDBRANCH   5  16
BRANCH   4  25
ATOM     25  O   UNL     1       3.827   3.165  19.754  0.00  0.00    +0.000 OA
BRANCH  25  26
ATOM     26  C   UNL     1       3.800   2.526  18.466  0.00  0.00    +0.000 C 
BRANCH  26  27
ATOM     27  C   UNL     1       2.410   2.457  17.832  0.00  0.00    +0.000 C 
ATOM     28  O   UNL     1       2.046   3.157  16.897  0.00  0.00    +0.000 OA
BRANCH  27  29
ATOM     29  O   UNL     1       1.602   1.532  18.403  0.00  0.00    +0.000 OA
ATOM     30  H   UNL     1       1.299   0.879  17.740  0.00  0.00    +0.000 HD
ENDBRANCH  27  29
ENDBRANCH  26  27
ENDBRANCH  25  26
ENDBRANCH   4  25
TORSDOF 11
ENDMDL
MODEL 9
REMARK VINA RESULT:      -6.7      4.853      6.184
REMARK  Name = 
REMARK  13 active torsions:
REMARK  status: ('A' for Active; 'I' for Inactive)
REMARK    1  A    between atoms: C_2  and  C_3
REMARK    2  A    between atoms: C_3  and  N_4
REMARK    3  A    between atoms: N_7  and  C_8
REMARK    4  A    between atoms: C_11  and  O_12
REMARK    5  A    between atoms: O_12  and  C_13
REMARK    6  A    between atoms: C_13  and  C_14
REMARK    7  A    between atoms: C_14  and  O_16
REMARK    8  A    between atoms: C_17  and  N_18
REMARK    9  A    between atoms: C_19  and  C_21
REMARK   10  A    between atoms: C_21  and  C_22
REMARK   11  A    between atoms: C_21  and  C_24
REMARK   12  A    between atoms: C_22  and  C_23
REMARK   13  A    between atoms: C_24  and  C_25
REMARK                            x       y       z     vdW  Elec       q    Type
REMARK                         _______ _______ _______ _____ _____    ______ ____
ROOT
ATOM      1  C   UNL     1       1.871   7.422  20.185  0.00  0.00    +0.000 A 
ATOM      2  C   UNL     1       1.316   6.459  21.014  0.00  0.00    +0.000 A 
ATOM      3  C   UNL     1       1.708   5.124  20.943  0.00  0.00    +0.000 A 
ATOM      4  C   UNL     1       2.656   4.677  20.028  0.00  0.00    +0.000 A 
ATOM      5  C   UNL     1       3.261   5.622  19.164  0.00  0.00    +0.000 A 
ATOM      6  C   UNL     1       2.835   6.987  19.253  0.00  0.00    +0.000 A 
ENDROOT
BRANCH   1  10
ATOM      7  N   UNL     1       0.691  10.866  19.577  0.00  0.00    +0.000 N 
ATOM      8  C   UNL     1       1.057   9.584  19.225  0.00  0.00    +0.000 C 
ATOM      9  O   UNL     1       0.928   9.224  18.055  0.00  0.00    +0.000 OA
ATOM     10  N   UNL     1       1.506   8.805  20.283  0.00  0.00    +0.000 N 
ATOM     11  H   UNL     1       0.920  11.254  20.478  0.00  0.00    +0.000 HD
ATOM     12  H   UNL     1       1.538   9.229  21.196  0.00  0.00    +0.000 HD
BRANCH   7  13
ATOM     13  C   UNL     1       0.172  11.736  18.527  0.00  0.00    +0.000 C 
BRANCH  13  15
ATOM     14  C   UNL     1      -2.651  11.750  18.479  0.00  0.00    +0.000 C 
ATOM     15  C   UNL     1      -1.347  11.743  18.502  0.00  0.00    +0.000 C 
ENDBRANCH  13  15
ENDBRANCH   7  13
ENDBRANCH   1  10
BRANCH   5  16
ATOM     16  N   UNL     1       4.286   5.370  18.192  0.00  0.00    +0.000 N 
ATOM     17  C   UNL     1       5.556   4.850  18.386  0.00  0.00    +0.000 C 
ATOM     18  O   UNL     1       6.050   4.519  19.463  0.00  0.00    +0.000 OA
ATOM     19  H   UNL     1       4.021   5.520  17.233  0.00  0.00    +0.000 HD
BRANCH  17  20
ATOM     20  C   UNL     1       6.376   4.666  17.094  0.00  0.00    +0.000 C 
BRANCH  20  21
ATOM     21  C   UNL     1       5.546   3.988  15.986  0.00  0.00    +0.000 C 
ATOM     22  C   UNL     1       6.218   3.948  14.624  0.00  0.00    +0.000 C 
ENDBRANCH  20  21
BRANCH  20  23
ATOM     23  C   UNL     1       6.824   6.057  16.580  0.00  0.00    +0.000 C 
ATOM     24  C   UNL     1       7.468   6.915  17.664  0.00  0.00    +0.000 C 
ENDBRANCH  20  23
ENDBRANCH  17  20
ENDBRANCH   5  16
BRANCH   4  25
ATOM     25  O   UNL     1       3.029   3.358  20.098  0.00  0.00    +0.000 OA
BRANCH  25  26
ATOM     26  C   UNL     1       2.256   2.441  19.305  0.00  0.00    +0.000 C 
BRANCH  26  27
ATOM     27  C   UNL     1       2.857   2.147  17.929  0.00  0.00    +0.000 C 
ATOM     28  O   UNL     1       3.727   1.311  17.724  0.00  0.00    +0.000 OA
BRANCH  27  29
ATOM     29  O   UNL     1       2.329   2.902  16.937  0.00  0.00    +0.000 OA
ATOM     30  H   UNL     1       2.412   2.449  16.073  0.00  0.00    +0.000 HD
ENDBRANCH  27  29
ENDBRANCH  26  27
ENDBRANCH  25  26
ENDBRANCH   4  25
TORSDOF 11
ENDMDL
