MODEL 1
REMARK VINA RESULT:      -6.5      0.000      0.000
REMARK  Name = 
REMARK  3 active torsions:
REMARK  status: ('A' for Active; 'I' for Inactive)
REMARK    1  A    between atoms: C_1  and  C_2
REMARK    2  A    between atoms: C_6  and  C_7
REMARK    3  A    between atoms: C_13  and  N_14
REMARK                            x       y       z     vdW  Elec       q    Type
REMARK                         _______ _______ _______ _____ _____    ______ ____
ROOT
ATOM      1  C   UNL     1       4.915   3.958  19.017  0.00  0.00    +0.000 C 
ATOM      2  O   UNL     1       4.998   2.792  19.418  0.00  0.00    +0.000 OA
ATOM      3  N   UNL     1       3.929   4.793  19.575  0.00  0.00    +0.000 N 
ATOM      4  C   UNL     1       3.240   4.343  20.783  0.00  0.00    +0.000 C 
ATOM      5  C   UNL     1       1.735   4.559  20.673  0.00  0.00    +0.000 C 
ATOM      6  C   UNL     1       1.413   6.024  20.389  0.00  0.00    +0.000 C 
ATOM      7  C   UNL     1       2.147   6.508  19.134  0.00  0.00    +0.000 C 
ATOM      8  C   UNL     1       3.641   6.169  19.167  0.00  0.00    +0.000 C 
ENDROOT
BRANCH   1  14
ATOM      9  C   UNL     1       7.797   5.707  19.059  0.00  0.00    +0.000 C 
ATOM     10  C   UNL     1       6.995   5.154  17.934  0.00  0.00    +0.000 A 
ATOM     11  N   UNL     1       7.537   5.345  16.666  0.00  0.00    +0.000 NA
ATOM     12  C   UNL     1       6.810   4.733  15.765  0.00  0.00    +0.000 A 
ATOM     13  S   UNL     1       5.406   3.959  16.340  0.00  0.00    +0.000 S 
ATOM     14  C   UNL     1       5.798   4.440  17.959  0.00  0.00    +0.000 A 
ENDBRANCH   1  14
BRANCH   7  15
ATOM     15  N   UNL     1       1.968   7.934  18.912  0.00  0.00    +0.000 N 
ATOM     16  C   UNL     1       1.350   8.832  19.725  0.00  0.00    +0.000 A 
ATOM     17  N   UNL     1       1.342  10.011  19.147  0.00  0.00    +0.000 NA
ATOM     18  C   UNL     1       1.964   9.777  17.955  0.00  0.00    +0.000 A 
ATOM     19  N   UNL     1       2.351   8.513  17.757  0.00  0.00    +0.000 NA
ENDBRANCH   7  15
TORSDOF 2
ENDMDL
MODEL 2
REMARK VINA RESULT:      -6.5      2.602      5.498
REMARK  Name = 
REMARK  3 active torsions:
REMARK  status: ('A' for Active; 'I' for Inactive)
REMARK    1  A    between atoms: C_1  and  C_2
REMARK    2  A    between atoms: C_6  and  C_7
REMARK    3  A    between atoms: C_13  and  N_14
REMARK                            x       y       z     vdW  Elec       q    Type
REMARK                         _______ _______ _______ _____ _____    ______ ____
ROOT
ATOM      1  C   UNL     1       3.378   3.674  17.673  0.00  0.00    +0.000 C 
ATOM      2  O   UNL     1       2.846   2.700  17.129  0.00  0.00    +0.000 OA
ATOM      3  N   UNL     1       4.444   4.313  17.013  0.00  0.00    +0.000 N 
ATOM      4  C   UNL     1       4.690   3.983  15.611  0.00  0.00    +0.000 C 
ATOM      5  C   UNL     1       6.175   3.749  15.352  0.00  0.00    +0.000 C 
ATOM      6  C   UNL     1       7.000   4.963  15.768  0.00  0.00    +0.000 C 
ATOM      7  C   UNL     1       6.732   5.327  17.232  0.00  0.00    +0.000 C 
ATOM      8  C   UNL     1       5.234   5.425  17.542  0.00  0.00    +0.000 C 
ENDROOT
BRANCH   1  14
ATOM      9  C   UNL     1       2.240   6.632  18.822  0.00  0.00    +0.000 C 
ATOM     10  C   UNL     1       2.448   5.324  19.501  0.00  0.00    +0.000 A 
ATOM     11  N   UNL     1       2.071   5.282  20.840  0.00  0.00    +0.000 NA
ATOM     12  C   UNL     1       2.198   4.065  21.309  0.00  0.00    +0.000 A 
ATOM     13  S   UNL     1       2.836   2.913  20.230  0.00  0.00    +0.000 S 
ATOM     14  C   UNL     1       2.930   4.120  18.989  0.00  0.00    +0.000 A 
ENDBRANCH   1  14
BRANCH   7  15
ATOM     15  N   UNL     1       7.399   6.559  17.621  0.00  0.00    +0.000 N 
ATOM     16  C   UNL     1       8.142   6.787  18.737  0.00  0.00    +0.000 A 
ATOM     17  N   UNL     1       8.525   8.043  18.758  0.00  0.00    +0.000 NA
ATOM     18  C   UNL     1       7.971   8.555  17.620  0.00  0.00    +0.000 A 
ATOM     19  N   UNL     1       7.255   7.687  16.899  0.00  0.00    +0.000 NA
ENDBRANCH   7  15
TORSDOF 2
ENDMDL
MODEL 3
REMARK VINA RESULT:      -6.2      3.166      6.021
REMARK  Name = 
REMARK  3 active torsions:
REMARK  status: ('A' for Active; 'I' for Inactive)
REMARK    1  A    between atoms: C_1  and  C_2
REMARK    2  A    between atoms: C_6  and  C_7
REMARK    3  A    between atoms: C_13  and  N_14
REMARK                            x       y       z     vdW  Elec       q    Type
REMARK                         _______ _______ _______ _____ _____    ______ ____
ROOT
ATOM      1  C   UNL     1       4.540   4.531  19.191  0.00  0.00    +0.000 C 
ATOM      2  O   UNL     1       4.552   5.003  20.334  0.00  0.00    +0.000 OA
ATOM      3  N   UNL     1       5.594   4.856  18.318  0.00  0.00    +0.000 N 
ATOM      4  C   UNL     1       6.785   5.496  18.874  0.00  0.00    +0.000 C 
ATOM      5  C   UNL     1       7.230   6.675  18.014  0.00  0.00    +0.000 C 
ATOM      6  C   UNL     1       7.483   6.235  16.575  0.00  0.00    +0.000 C 
ATOM      7  C   UNL     1       6.245   5.546  15.991  0.00  0.00    +0.000 C 
ATOM      8  C   UNL     1       5.699   4.451  16.915  0.00  0.00    +0.000 C 
ENDROOT
BRANCH   1  14
ATOM      9  C   UNL     1       1.574   5.221  17.744  0.00  0.00    +0.000 C 
ATOM     10  C   UNL     1       2.199   3.931  18.147  0.00  0.00    +0.000 A 
ATOM     11  N   UNL     1       1.462   2.791  17.841  0.00  0.00    +0.000 NA
ATOM     12  C   UNL     1       2.146   1.714  18.143  0.00  0.00    +0.000 A 
ATOM     13  S   UNL     1       3.663   1.974  18.870  0.00  0.00    +0.000 S 
ATOM     14  C   UNL     1       3.431   3.689  18.753  0.00  0.00    +0.000 A 
ENDBRANCH   1  14
BRANCH   7  15
ATOM     15  N   UNL     1       6.497   4.996  14.669  0.00  0.00    +0.000 N 
ATOM     16  C   UNL     1       5.834   3.985  14.047  0.00  0.00    +0.000 A 
ATOM     17  N   UNL     1       6.398   3.740  12.887  0.00  0.00    +0.000 NA
ATOM     18  C   UNL     1       7.430   4.634  12.849  0.00  0.00    +0.000 A 
ATOM     19  N   UNL     1       7.543   5.414  13.928  0.00  0.00    +0.000 NA
ENDBRANCH   7  15
TORSDOF 2
ENDMDL
MODEL 4
REMARK VINA RESULT:      -6.2      2.846      5.526
REMARK  Name = 
REMARK  3 active torsions:
REMARK  status: ('A' for Active; 'I' for Inactive)
REMARK    1  A    between atoms: C_1  and  C_2
REMARK    2  A    between atoms: C_6  and  C_7
REMARK    3  A    between atoms: C_13  and  N_14
REMARK                            x       y       z     vdW  Elec       q    Type
REMARK                         _______ _______ _______ _____ _____    ______ ____
ROOT
ATOM      1  C   UNL     1       3.126   4.002  17.509  0.00  0.00    +0.000 C 
ATOM      2  O   UNL     1       2.561   3.053  16.954  0.00  0.00    +0.000 OA
ATOM      3  N   UNL     1       4.270   4.552  16.901  0.00  0.00    +0.000 N 
ATOM      4  C   UNL     1       4.574   4.173  15.522  0.00  0.00    +0.000 C 
ATOM      5  C   UNL     1       6.051   3.833  15.357  0.00  0.00    +0.000 C 
ATOM      6  C   UNL     1       6.932   4.998  15.796  0.00  0.00    +0.000 C 
ATOM      7  C   UNL     1       6.606   5.414  17.235  0.00  0.00    +0.000 C 
ATOM      8  C   UNL     1       5.103   5.621  17.453  0.00  0.00    +0.000 C 
ENDROOT
BRANCH   1  14
ATOM      9  C   UNL     1       2.764   2.585  20.547  0.00  0.00    +0.000 C 
ATOM     10  C   UNL     1       2.477   3.962  20.060  0.00  0.00    +0.000 A 
ATOM     11  N   UNL     1       2.017   4.852  21.026  0.00  0.00    +0.000 NA
ATOM     12  C   UNL     1       1.897   6.054  20.517  0.00  0.00    +0.000 A 
ATOM     13  S   UNL     1       2.246   6.197  18.856  0.00  0.00    +0.000 S 
ATOM     14  C   UNL     1       2.635   4.509  18.787  0.00  0.00    +0.000 A 
ENDBRANCH   1  14
BRANCH   7  15
ATOM     15  N   UNL     1       7.333   6.607  17.638  0.00  0.00    +0.000 N 
ATOM     16  C   UNL     1       8.120   6.772  18.735  0.00  0.00    +0.000 A 
ATOM     17  N   UNL     1       8.552   8.011  18.780  0.00  0.00    +0.000 NA
ATOM     18  C   UNL     1       7.981   8.579  17.678  0.00  0.00    +0.000 A 
ATOM     19  N   UNL     1       7.209   7.763  16.956  0.00  0.00    +0.000 NA
ENDBRANCH   7  15
TORSDOF 2
ENDMDL
MODEL 5
REMARK VINA RESULT:      -6.2      3.436      6.056
REMARK  Name = 
REMARK  3 active torsions:
REMARK  status: ('A' for Active; 'I' for Inactive)
REMARK    1  A    between atoms: C_1  and  C_2
REMARK    2  A    between atoms: C_6  and  C_7
REMARK    3  A    between atoms: C_13  and  N_14
REMARK                            x       y       z     vdW  Elec       q    Type
REMARK                         _______ _______ _______ _____ _____    ______ ____
ROOT
ATOM      1  C   UNL     1       4.444   4.637  19.093  0.00  0.00    +0.000 C 
ATOM      2  O   UNL     1       4.473   5.081  20.246  0.00  0.00    +0.000 OA
ATOM      3  N   UNL     1       5.547   4.877  18.252  0.00  0.00    +0.000 N 
ATOM      4  C   UNL     1       6.779   5.387  18.851  0.00  0.00    +0.000 C 
ATOM      5  C   UNL     1       7.357   6.534  18.030  0.00  0.00    +0.000 C 
ATOM      6  C   UNL     1       7.604   6.104  16.587  0.00  0.00    +0.000 C 
ATOM      7  C   UNL     1       6.320   5.550  15.959  0.00  0.00    +0.000 C 
ATOM      8  C   UNL     1       5.648   4.494  16.844  0.00  0.00    +0.000 C 
ENDROOT
BRANCH   1  14
ATOM      9  C   UNL     1       3.797   1.359  18.640  0.00  0.00    +0.000 C 
ATOM     10  C   UNL     1       2.961   2.570  18.415  0.00  0.00    +0.000 A 
ATOM     11  N   UNL     1       1.662   2.324  17.981  0.00  0.00    +0.000 NA
ATOM     12  C   UNL     1       0.986   3.445  17.915  0.00  0.00    +0.000 A 
ATOM     13  S   UNL     1       1.854   4.862  18.288  0.00  0.00    +0.000 S 
ATOM     14  C   UNL     1       3.271   3.916  18.609  0.00  0.00    +0.000 A 
ENDBRANCH   1  14
BRANCH   7  15
ATOM     15  N   UNL     1       6.552   5.007  14.630  0.00  0.00    +0.000 N 
ATOM     16  C   UNL     1       5.876   4.003  14.011  0.00  0.00    +0.000 A 
ATOM     17  N   UNL     1       6.423   3.762  12.842  0.00  0.00    +0.000 NA
ATOM     18  C   UNL     1       7.459   4.650  12.796  0.00  0.00    +0.000 A 
ATOM     19  N   UNL     1       7.590   5.423  13.878  0.00  0.00    +0.000 NA
ENDBRANCH   7  15
TORSDOF 2
ENDMDL
MODEL 6
REMARK VINA RESULT:      -6.0      2.231      4.099
REMARK  Name = 
REMARK  3 active torsions:
REMARK  status: ('A' for Active; 'I' for Inactive)
REMARK    1  A    between atoms: C_1  and  C_2
REMARK    2  A    between atoms: C_6  and  C_7
REMARK    3  A    between atoms: C_13  and  N_14
REMARK                            x       y       z     vdW  Elec       q    Type
REMARK                         _______ _______ _______ _____ _____    ______ ____
ROOT
ATOM      1  C   UNL     1       4.918   6.932  17.277  0.00  0.00    +0.000 C 
ATOM      2  O   UNL     1       5.064   8.109  16.927  0.00  0.00    +0.000 OA
ATOM      3  N   UNL     1       3.788   6.593  18.043  0.00  0.00    +0.000 N 
ATOM      4  C   UNL     1       2.705   7.568  18.153  0.00  0.00    +0.000 C 
ATOM      5  C   UNL     1       2.224   7.698  19.594  0.00  0.00    +0.000 C 
ATOM      6  C   UNL     1       1.783   6.346  20.147  0.00  0.00    +0.000 C 
ATOM      7  C   UNL     1       2.907   5.313  20.017  0.00  0.00    +0.000 C 
ATOM      8  C   UNL     1       3.499   5.272  18.603  0.00  0.00    +0.000 C 
ENDROOT
BRANCH   1  14
ATOM      9  C   UNL     1       7.691   5.835  18.852  0.00  0.00    +0.000 C 
ATOM     10  C   UNL     1       7.073   5.444  17.555  0.00  0.00    +0.000 A 
ATOM     11  N   UNL     1       7.715   4.413  16.876  0.00  0.00    +0.000 NA
ATOM     12  C   UNL     1       7.034   4.080  15.807  0.00  0.00    +0.000 A 
ATOM     13  S   UNL     1       5.640   5.006  15.494  0.00  0.00    +0.000 S 
ATOM     14  C   UNL     1       5.924   5.931  16.933  0.00  0.00    +0.000 A 
ENDBRANCH   1  14
BRANCH   7  15
ATOM     15  N   UNL     1       2.474   3.981  20.410  0.00  0.00    +0.000 N 
ATOM     16  C   UNL     1       2.237   2.911  19.605  0.00  0.00    +0.000 A 
ATOM     17  N   UNL     1       1.804   1.906  20.330  0.00  0.00    +0.000 NA
ATOM     18  C   UNL     1       1.778   2.423  21.593  0.00  0.00    +0.000 A 
ATOM     19  N   UNL     1       2.162   3.699  21.690  0.00  0.00    +0.000 NA
ENDBRANCH   7  15
TORSDOF 2
ENDMDL
MODEL 7
REMARK VINA RESULT:      -6.0      1.602      1.981
REMARK  Name = 
REMARK  3 active torsions:
REMARK  status: ('A' for Active; 'I' for Inactive)
REMARK    1  A    between atoms: C_1  and  C_2
REMARK    2  A    between atoms: C_6  and  C_7
REMARK    3  A    between atoms: C_13  and  N_14
REMARK                            x       y       z     vdW  Elec       q    Type
REMARK                         _______ _______ _______ _____ _____    ______ ____
ROOT
ATOM      1  C   UNL     1       5.219   4.456  18.817  0.00  0.00    +0.000 C 
ATOM      2  O   UNL     1       5.465   3.257  18.646  0.00  0.00    +0.000 OA
ATOM      3  N   UNL     1       4.052   4.811  19.517  0.00  0.00    +0.000 N 
ATOM      4  C   UNL     1       3.335   3.766  20.247  0.00  0.00    +0.000 C 
ATOM      5  C   UNL     1       1.834   3.846  19.992  0.00  0.00    +0.000 C 
ATOM      6  C   UNL     1       1.290   5.224  20.361  0.00  0.00    +0.000 C 
ATOM      7  C   UNL     1       2.049   6.326  19.614  0.00  0.00    +0.000 C 
ATOM      8  C   UNL     1       3.569   6.174  19.743  0.00  0.00    +0.000 C 
ENDROOT
BRANCH   1  14
ATOM      9  C   UNL     1       4.985   6.488  16.136  0.00  0.00    +0.000 C 
ATOM     10  C   UNL     1       6.044   6.339  17.172  0.00  0.00    +0.000 A 
ATOM     11  N   UNL     1       7.118   7.216  17.055  0.00  0.00    +0.000 NA
ATOM     12  C   UNL     1       7.935   7.070  18.070  0.00  0.00    +0.000 A 
ATOM     13  S   UNL     1       7.531   5.846  19.182  0.00  0.00    +0.000 S 
ATOM     14  C   UNL     1       6.106   5.477  18.266  0.00  0.00    +0.000 A 
ENDBRANCH   1  14
BRANCH   7  15
ATOM     15  N   UNL     1       1.647   7.655  20.043  0.00  0.00    +0.000 N 
ATOM     16  C   UNL     1       1.229   8.040  21.279  0.00  0.00    +0.000 A 
ATOM     17  N   UNL     1       0.898   9.310  21.252  0.00  0.00    +0.000 NA
ATOM     18  C   UNL     1       1.121   9.662  19.952  0.00  0.00    +0.000 A 
ATOM     19  N   UNL     1       1.564   8.675  19.167  0.00  0.00    +0.000 NA
ENDBRANCH   7  15
TORSDOF 2
ENDMDL
MODEL 8
REMARK VINA RESULT:      -5.9      3.521      6.228
REMARK  Name = 
REMARK  3 active torsions:
REMARK  status: ('A' for Active; 'I' for Inactive)
REMARK    1  A    between atoms: C_1  and  C_2
REMARK    2  A    between atoms: C_6  and  C_7
REMARK    3  A    between atoms: C_13  and  N_14
REMARK                            x       y       z     vdW  Elec       q    Type
REMARK                         _______ _______ _______ _____ _____    ______ ____
ROOT
ATOM      1  C   UNL     1       4.548   4.583  18.884  0.00  0.00    +0.000 C 
ATOM      2  O   UNL     1       4.679   5.139  19.980  0.00  0.00    +0.000 OA
ATOM      3  N   UNL     1       5.554   4.759  17.916  0.00  0.00    +0.000 N 
ATOM      4  C   UNL     1       6.825   5.349  18.334  0.00  0.00    +0.000 C 
ATOM      5  C   UNL     1       7.285   6.420  17.351  0.00  0.00    +0.000 C 
ATOM      6  C   UNL     1       7.399   5.854  15.939  0.00  0.00    +0.000 C 
ATOM      7  C   UNL     1       6.076   5.216  15.501  0.00  0.00    +0.000 C 
ATOM      8  C   UNL     1       5.526   4.241  16.548  0.00  0.00    +0.000 C 
ENDROOT
BRANCH   1  14
ATOM      9  C   UNL     1       3.994   1.266  18.650  0.00  0.00    +0.000 C 
ATOM     10  C   UNL     1       3.082   2.431  18.496  0.00  0.00    +0.000 A 
ATOM     11  N   UNL     1       1.748   2.116  18.255  0.00  0.00    +0.000 NA
ATOM     12  C   UNL     1       1.019   3.205  18.240  0.00  0.00    +0.000 A 
ATOM     13  S   UNL     1       1.865   4.670  18.434  0.00  0.00    +0.000 S 
ATOM     14  C   UNL     1       3.354   3.796  18.594  0.00  0.00    +0.000 A 
ENDBRANCH   1  14
BRANCH   7  15
ATOM     15  N   UNL     1       6.190   4.549  14.214  0.00  0.00    +0.000 N 
ATOM     16  C   UNL     1       7.208   4.637  13.318  0.00  0.00    +0.000 A 
ATOM     17  N   UNL     1       6.913   3.932  12.250  0.00  0.00    +0.000 NA
ATOM     18  C   UNL     1       5.675   3.434  12.540  0.00  0.00    +0.000 A 
ATOM     19  N   UNL     1       5.181   3.800  13.726  0.00  0.00    +0.000 NA
ENDBRANCH   7  15
TORSDOF 2
ENDMDL
MODEL 9
REMARK VINA RESULT:      -5.9      3.250      6.367
REMARK  Name = 
REMARK  3 active torsions:
REMARK  status: ('A' for Active; 'I' for Inactive)
REMARK    1  A    between atoms: C_1  and  C_2
REMARK    2  A    between atoms: C_6  and  C_7
REMARK    3  A    between atoms: C_13  and  N_14
REMARK                            x       y       z     vdW  Elec       q    Type
REMARK                         _______ _______ _______ _____ _____    ______ ____
ROOT
ATOM      1  C   UNL     1       4.704   4.426  18.714  0.00  0.00    +0.000 C 
ATOM      2  O   UNL     1       4.955   4.998  19.780  0.00  0.00    +0.000 OA
ATOM      3  N   UNL     1       5.629   4.531  17.659  0.00  0.00    +0.000 N 
ATOM      4  C   UNL     1       6.958   5.064  17.952  0.00  0.00    +0.000 C 
ATOM      5  C   UNL     1       7.383   6.090  16.907  0.00  0.00    +0.000 C 
ATOM      6  C   UNL     1       7.346   5.489  15.505  0.00  0.00    +0.000 C 
ATOM      7  C   UNL     1       5.961   4.910  15.198  0.00  0.00    +0.000 C 
ATOM      8  C   UNL     1       5.457   3.986  16.312  0.00  0.00    +0.000 C 
ENDROOT
BRANCH   1  14
ATOM      9  C   UNL     1       1.599   5.375  17.804  0.00  0.00    +0.000 C 
ATOM     10  C   UNL     1       2.156   4.044  18.168  0.00  0.00    +0.000 A 
ATOM     11  N   UNL     1       1.263   2.981  18.081  0.00  0.00    +0.000 NA
ATOM     12  C   UNL     1       1.880   1.849  18.320  0.00  0.00    +0.000 A 
ATOM     13  S   UNL     1       3.527   1.971  18.732  0.00  0.00    +0.000 S 
ATOM     14  C   UNL     1       3.452   3.694  18.547  0.00  0.00    +0.000 A 
ENDBRANCH   1  14
BRANCH   7  15
ATOM     15  N   UNL     1       5.930   4.211  13.923  0.00  0.00    +0.000 N 
ATOM     16  C   UNL     1       6.971   3.964  13.084  0.00  0.00    +0.000 A 
ATOM     17  N   UNL     1       6.529   3.358  12.006  0.00  0.00    +0.000 NA
ATOM     18  C   UNL     1       5.186   3.269  12.229  0.00  0.00    +0.000 A 
ATOM     19  N   UNL     1       4.767   3.794  13.385  0.00  0.00    +0.000 NA
ENDBRANCH   7  15
TORSDOF 2
ENDMDL
