MODEL 1
REMARK VINA RESULT:      -8.0      0.000      0.000
REMARK  Name = 
REMARK  5 active torsions:
REMARK  status: ('A' for Active; 'I' for Inactive)
REMARK    1  A    between atoms: C_2  and  C_3
REMARK    2  A    between atoms: C_2  and  C_16
REMARK    3  A    between atoms: C_3  and  O_4
REMARK    4  A    between atoms: O_4  and  C_5
REMARK    5  A    between atoms: C_5  and  C_7
REMARK                            x       y       z     vdW  Elec       q    Type
REMARK                         _______ _______ _______ _____ _____    ______ ____
ROOT
ATOM      1  C   UNL     1       6.143   5.222  19.265  0.00  0.00    +0.000 C 
ATOM      2  O   UNL     1       7.048   5.437  20.062  0.00  0.00    +0.000 OA
ENDROOT
BRANCH   1   3
ATOM      3  C   UNL     1       5.064   4.312  19.519  0.00  0.00    +0.000 A 
ATOM      4  N   UNL     1       5.283   2.959  19.428  0.00  0.00    +0.000 N 
ATOM      5  N   UNL     1       4.216   2.181  19.675  0.00  0.00    +0.000 NA
ATOM      6  C   UNL     1       3.222   3.045  19.927  0.00  0.00    +0.000 A 
ATOM      7  C   UNL     1       1.873   2.788  20.219  0.00  0.00    +0.000 A 
ATOM      8  C   UNL     1       1.095   3.950  20.401  0.00  0.00    +0.000 A 
ATOM      9  C   UNL     1       1.626   5.273  20.311  0.00  0.00    +0.000 A 
ATOM     10  C   UNL     1       2.979   5.563  20.032  0.00  0.00    +0.000 A 
ATOM     11  C   UNL     1       3.730   4.401  19.844  0.00  0.00    +0.000 A 
ATOM     12  H   UNL     1       6.160   2.509  19.184  0.00  0.00    +0.000 HD
ENDBRANCH   1   3
BRANCH   1  13
ATOM     13  O   UNL     1       6.062   5.785  18.027  0.00  0.00    +0.000 OA
BRANCH  13  14
ATOM     14  C   UNL     1       6.715   5.025  17.004  0.00  0.00    +0.000 C 
BRANCH  14  16
ATOM     15  O   UNL     1       4.554   4.401  16.124  0.00  0.00    +0.000 OA
ATOM     16  C   UNL     1       5.752   4.596  15.903  0.00  0.00    +0.000 C 
BRANCH  16  17
ATOM     17  C   UNL     1       6.273   4.408  14.516  0.00  0.00    +0.000 A 
ATOM     18  C   UNL     1       7.289   5.267  14.072  0.00  0.00    +0.000 A 
ATOM     19  C   UNL     1       7.812   5.145  12.785  0.00  0.00    +0.000 A 
ATOM     20  C   UNL     1       7.319   4.165  11.927  0.00  0.00    +0.000 A 
ATOM     21  C   UNL     1       6.307   3.312  12.362  0.00  0.00    +0.000 A 
ATOM     22 BR   UNL     1       5.622   2.002  11.182  0.00  0.00    +0.000 Br
ATOM     23  C   UNL     1       5.779   3.423  13.652  0.00  0.00    +0.000 A 
ENDBRANCH  16  17
ENDBRANCH  14  16
ENDBRANCH  13  14
ENDBRANCH   1  13
TORSDOF 5
ENDMDL
MODEL 2
REMARK VINA RESULT:      -7.9      1.559      1.961
REMARK  Name = 
REMARK  5 active torsions:
REMARK  status: ('A' for Active; 'I' for Inactive)
REMARK    1  A    between atoms: C_2  and  C_3
REMARK    2  A    between atoms: C_2  and  C_16
REMARK    3  A    between atoms: C_3  and  O_4
REMARK    4  A    between atoms: O_4  and  C_5
REMARK    5  A    between atoms: C_5  and  C_7
REMARK                            x       y       z     vdW  Elec       q    Type
REMARK                         _______ _______ _______ _____ _____    ______ ____
ROOT
ATOM      1  C   UNL     1       5.385   5.181  18.961  0.00  0.00    +0.000 C 
ATOM      2  O   UNL     1       6.328   4.660  19.544  0.00  0.00    +0.000 OA
ENDROOT
BRANCH   1   3
ATOM      3  C   UNL     1       4.014   4.961  19.320  0.00  0.00    +0.000 A 
ATOM      4  N   UNL     1       3.361   5.884  20.100  0.00  0.00    +0.000 N 
ATOM      5  N   UNL     1       2.082   5.594  20.393  0.00  0.00    +0.000 NA
ATOM      6  C   UNL     1       1.862   4.412  19.800  0.00  0.00    +0.000 A 
ATOM      7  C   UNL     1       0.702   3.620  19.801  0.00  0.00    +0.000 A 
ATOM      8  C   UNL     1       0.836   2.409  19.090  0.00  0.00    +0.000 A 
ATOM      9  C   UNL     1       2.035   2.022  18.417  0.00  0.00    +0.000 A 
ATOM     10  C   UNL     1       3.211   2.801  18.388  0.00  0.00    +0.000 A 
ATOM     11  C   UNL     1       3.062   3.989  19.106  0.00  0.00    +0.000 A 
ATOM     12  H   UNL     1       3.758   6.740  20.475  0.00  0.00    +0.000 HD
ENDBRANCH   1   3
BRANCH   1  13
ATOM     13  O   UNL     1       5.511   6.000  17.880  0.00  0.00    +0.000 OA
BRANCH  13  14
ATOM     14  C   UNL     1       5.371   5.323  16.625  0.00  0.00    +0.000 C 
BRANCH  14  16
ATOM     15  O   UNL     1       7.690   4.668  16.787  0.00  0.00    +0.000 OA
ATOM     16  C   UNL     1       6.714   4.876  16.061  0.00  0.00    +0.000 C 
BRANCH  16  17
ATOM     17  C   UNL     1       6.854   4.683  14.586  0.00  0.00    +0.000 A 
ATOM     18  C   UNL     1       7.792   5.471  13.904  0.00  0.00    +0.000 A 
ATOM     19  C   UNL     1       7.963   5.342  12.526  0.00  0.00    +0.000 A 
ATOM     20  C   UNL     1       7.192   4.426  11.815  0.00  0.00    +0.000 A 
ATOM     21  C   UNL     1       6.254   3.644  12.488  0.00  0.00    +0.000 A 
ATOM     22 BR   UNL     1       5.189   2.423  11.512  0.00  0.00    +0.000 Br
ATOM     23  C   UNL     1       6.079   3.762  13.870  0.00  0.00    +0.000 A 
ENDBRANCH  16  17
ENDBRANCH  14  16
ENDBRANCH  13  14
ENDBRANCH   1  13
TORSDOF 5
ENDMDL
MODEL 3
REMARK VINA RESULT:      -7.8      1.143      1.353
REMARK  Name = 
REMARK  5 active torsions:
REMARK  status: ('A' for Active; 'I' for Inactive)
REMARK    1  A    between atoms: C_2  and  C_3
REMARK    2  A    between atoms: C_2  and  C_16
REMARK    3  A    between atoms: C_3  and  O_4
REMARK    4  A    between atoms: O_4  and  C_5
REMARK    5  A    between atoms: C_5  and  C_7
REMARK                            x       y       z     vdW  Elec       q    Type
REMARK                         _______ _______ _______ _____ _____    ______ ____
ROOT
ATOM      1  C   UNL     1       5.556   5.104  18.912  0.00  0.00    +0.000 C 
ATOM      2  O   UNL     1       6.408   5.478  19.710  0.00  0.00    +0.000 OA
ENDROOT
BRANCH   1   3
ATOM      3  C   UNL     1       4.674   4.001  19.156  0.00  0.00    +0.000 A 
ATOM      4  N   UNL     1       5.166   2.850  19.722  0.00  0.00    +0.000 N 
ATOM      5  N   UNL     1       4.271   1.865  19.907  0.00  0.00    +0.000 NA
ATOM      6  C   UNL     1       3.122   2.363  19.429  0.00  0.00    +0.000 A 
ATOM      7  C   UNL     1       1.859   1.755  19.341  0.00  0.00    +0.000 A 
ATOM      8  C   UNL     1       0.872   2.570  18.750  0.00  0.00    +0.000 A 
ATOM      9  C   UNL     1       1.122   3.900  18.291  0.00  0.00    +0.000 A 
ATOM     10  C   UNL     1       2.376   4.541  18.378  0.00  0.00    +0.000 A 
ATOM     11  C   UNL     1       3.342   3.715  18.955  0.00  0.00    +0.000 A 
ATOM     12  H   UNL     1       6.130   2.681  19.993  0.00  0.00    +0.000 HD
ENDBRANCH   1   3
BRANCH   1  13
ATOM     13  O   UNL     1       5.362   5.658  17.683  0.00  0.00    +0.000 OA
BRANCH  13  14
ATOM     14  C   UNL     1       5.702   4.787  16.599  0.00  0.00    +0.000 C 
BRANCH  14  16
ATOM     15  O   UNL     1       7.717   6.072  16.252  0.00  0.00    +0.000 OA
ATOM     16  C   UNL     1       6.861   5.327  15.769  0.00  0.00    +0.000 C 
BRANCH  16  17
ATOM     17  C   UNL     1       6.963   4.943  14.329  0.00  0.00    +0.000 A 
ATOM     18  C   UNL     1       7.873   5.644  13.523  0.00  0.00    +0.000 A 
ATOM     19  C   UNL     1       8.009   5.336  12.170  0.00  0.00    +0.000 A 
ATOM     20  C   UNL     1       7.230   4.328  11.607  0.00  0.00    +0.000 A 
ATOM     21  C   UNL     1       6.321   3.633  12.402  0.00  0.00    +0.000 A 
ATOM     22 BR   UNL     1       5.245   2.285  11.625  0.00  0.00    +0.000 Br
ATOM     23  C   UNL     1       6.181   3.930  13.761  0.00  0.00    +0.000 A 
ENDBRANCH  16  17
ENDBRANCH  14  16
ENDBRANCH  13  14
ENDBRANCH   1  13
TORSDOF 5
ENDMDL
MODEL 4
REMARK VINA RESULT:      -7.7      2.056      2.488
REMARK  Name = 
REMARK  5 active torsions:
REMARK  status: ('A' for Active; 'I' for Inactive)
REMARK    1  A    between atoms: C_2  and  C_3
REMARK    2  A    between atoms: C_2  and  C_16
REMARK    3  A    between atoms: C_3  and  O_4
REMARK    4  A    between atoms: O_4  and  C_5
REMARK    5  A    between atoms: C_5  and  C_7
REMARK                            x       y       z     vdW  Elec       q    Type
REMARK                         _______ _______ _______ _____ _____    ______ ____
ROOT
ATOM      1  C   UNL     1       3.537   6.988  17.927  0.00  0.00    +0.000 C 
ATOM      2  O   UNL     1       3.066   8.003  17.428  0.00  0.00    +0.000 OA
ENDROOT
BRANCH   1   3
ATOM      3  C   UNL     1       2.803   6.126  18.808  0.00  0.00    +0.000 A 
ATOM      4  N   UNL     1       2.481   6.560  20.070  0.00  0.00    +0.000 N 
ATOM      5  N   UNL     1       1.800   5.685  20.829  0.00  0.00    +0.000 NA
ATOM      6  C   UNL     1       1.670   4.600  20.053  0.00  0.00    +0.000 A 
ATOM      7  C   UNL     1       1.066   3.366  20.346  0.00  0.00    +0.000 A 
ATOM      8  C   UNL     1       1.138   2.430  19.293  0.00  0.00    +0.000 A 
ATOM      9  C   UNL     1       1.754   2.708  18.035  0.00  0.00    +0.000 A 
ATOM     10  C   UNL     1       2.357   3.942  17.707  0.00  0.00    +0.000 A 
ATOM     11  C   UNL     1       2.286   4.850  18.765  0.00  0.00    +0.000 A 
ATOM     12  H   UNL     1       2.720   7.461  20.472  0.00  0.00    +0.000 HD
ENDBRANCH   1   3
BRANCH   1  13
ATOM     13  O   UNL     1       4.820   6.568  17.744  0.00  0.00    +0.000 OA
BRANCH  13  14
ATOM     14  C   UNL     1       5.189   6.425  16.369  0.00  0.00    +0.000 C 
BRANCH  14  16
ATOM     15  O   UNL     1       5.848   4.172  16.933  0.00  0.00    +0.000 OA
ATOM     16  C   UNL     1       5.730   5.035  16.060  0.00  0.00    +0.000 C 
BRANCH  16  17
ATOM     17  C   UNL     1       6.130   4.706  14.658  0.00  0.00    +0.000 A 
ATOM     18  C   UNL     1       7.370   5.175  14.200  0.00  0.00    +0.000 A 
ATOM     19  C   UNL     1       7.796   4.907  12.899  0.00  0.00    +0.000 A 
ATOM     20  C   UNL     1       6.981   4.173  12.041  0.00  0.00    +0.000 A 
ATOM     21  C   UNL     1       5.745   3.709  12.490  0.00  0.00    +0.000 A 
ATOM     22 BR   UNL     1       4.631   2.738  11.310  0.00  0.00    +0.000 Br
ATOM     23  C   UNL     1       5.312   3.968  13.794  0.00  0.00    +0.000 A 
ENDBRANCH  16  17
ENDBRANCH  14  16
ENDBRANCH  13  14
ENDBRANCH   1  13
TORSDOF 5
ENDMDL
MODEL 5
REMARK VINA RESULT:      -7.6      1.066      1.213
REMARK  Name = 
REMARK  5 active torsions:
REMARK  status: ('A' for Active; 'I' for Inactive)
REMARK    1  A    between atoms: C_2  and  C_3
REMARK    2  A    between atoms: C_2  and  C_16
REMARK    3  A    between atoms: C_3  and  O_4
REMARK    4  A    between atoms: O_4  and  C_5
REMARK    5  A    between atoms: C_5  and  C_7
REMARK                            x       y       z     vdW  Elec       q    Type
REMARK                         _______ _______ _______ _____ _____    ______ ____
ROOT
ATOM      1  C   UNL     1       5.547   4.718  18.733  0.00  0.00    +0.000 C 
ATOM      2  O   UNL     1       6.659   4.560  19.223  0.00  0.00    +0.000 OA
ENDROOT
BRANCH   1   3
ATOM      3  C   UNL     1       4.463   3.797  18.919  0.00  0.00    +0.000 A 
ATOM      4  N   UNL     1       4.565   2.521  18.422  0.00  0.00    +0.000 N 
ATOM      5  N   UNL     1       3.500   1.729  18.634  0.00  0.00    +0.000 NA
ATOM      6  C   UNL     1       2.628   2.508  19.290  0.00  0.00    +0.000 A 
ATOM      7  C   UNL     1       1.333   2.209  19.740  0.00  0.00    +0.000 A 
ATOM      8  C   UNL     1       0.683   3.288  20.373  0.00  0.00    +0.000 A 
ATOM      9  C   UNL     1       1.286   4.570  20.557  0.00  0.00    +0.000 A 
ATOM     10  C   UNL     1       2.590   4.897  20.127  0.00  0.00    +0.000 A 
ATOM     11  C   UNL     1       3.212   3.820  19.493  0.00  0.00    +0.000 A 
ATOM     12  H   UNL     1       5.353   2.139  17.908  0.00  0.00    +0.000 HD
ENDBRANCH   1   3
BRANCH   1  13
ATOM     13  O   UNL     1       5.206   5.759  17.924  0.00  0.00    +0.000 OA
BRANCH  13  14
ATOM     14  C   UNL     1       5.134   5.411  16.537  0.00  0.00    +0.000 C 
BRANCH  14  16
ATOM     15  O   UNL     1       7.459   6.051  16.400  0.00  0.00    +0.000 OA
ATOM     16  C   UNL     1       6.483   5.545  15.840  0.00  0.00    +0.000 C 
BRANCH  16  17
ATOM     17  C   UNL     1       6.627   5.050  14.438  0.00  0.00    +0.000 A 
ATOM     18  C   UNL     1       7.782   5.410  13.728  0.00  0.00    +0.000 A 
ATOM     19  C   UNL     1       7.971   4.984  12.413  0.00  0.00    +0.000 A 
ATOM     20  C   UNL     1       7.002   4.198  11.794  0.00  0.00    +0.000 A 
ATOM     21  C   UNL     1       5.851   3.842  12.494  0.00  0.00    +0.000 A 
ATOM     22 BR   UNL     1       4.526   2.799  11.637  0.00  0.00    +0.000 Br
ATOM     23  C   UNL     1       5.655   4.259  13.814  0.00  0.00    +0.000 A 
ENDBRANCH  16  17
ENDBRANCH  14  16
ENDBRANCH  13  14
ENDBRANCH   1  13
TORSDOF 5
ENDMDL
MODEL 6
REMARK VINA RESULT:      -7.6      3.884      6.473
REMARK  Name = 
REMARK  5 active torsions:
REMARK  status: ('A' for Active; 'I' for Inactive)
REMARK    1  A    between atoms: C_2  and  C_3
REMARK    2  A    between atoms: C_2  and  C_16
REMARK    3  A    between atoms: C_3  and  O_4
REMARK    4  A    between atoms: O_4  and  C_5
REMARK    5  A    between atoms: C_5  and  C_7
REMARK                            x       y       z     vdW  Elec       q    Type
REMARK                         _______ _______ _______ _____ _____    ______ ____
ROOT
ATOM      1  C   UNL     1       4.612   2.714  19.927  0.00  0.00    +0.000 C 
ATOM      2  O   UNL     1       5.114   1.650  20.268  0.00  0.00    +0.000 OA
ENDROOT
BRANCH   1   3
ATOM      3  C   UNL     1       4.984   3.418  18.735  0.00  0.00    +0.000 A 
ATOM      4  N   UNL     1       4.497   3.002  17.520  0.00  0.00    +0.000 N 
ATOM      5  N   UNL     1       4.903   3.714  16.456  0.00  0.00    +0.000 NA
ATOM      6  C   UNL     1       5.719   4.647  16.970  0.00  0.00    +0.000 A 
ATOM      7  C   UNL     1       6.451   5.647  16.310  0.00  0.00    +0.000 A 
ATOM      8  C   UNL     1       7.236   6.443  17.170  0.00  0.00    +0.000 A 
ATOM      9  C   UNL     1       7.279   6.262  18.586  0.00  0.00    +0.000 A 
ATOM     10  C   UNL     1       6.545   5.274  19.279  0.00  0.00    +0.000 A 
ATOM     11  C   UNL     1       5.783   4.491  18.410  0.00  0.00    +0.000 A 
ATOM     12  H   UNL     1       3.879   2.211  17.362  0.00  0.00    +0.000 HD
ENDBRANCH   1   3
BRANCH   1  13
ATOM     13  O   UNL     1       3.669   3.382  20.648  0.00  0.00    +0.000 OA
BRANCH  13  14
ATOM     14  C   UNL     1       2.364   2.798  20.573  0.00  0.00    +0.000 C 
BRANCH  14  16
ATOM     15  O   UNL     1       0.417   3.137  19.186  0.00  0.00    +0.000 OA
ATOM     16  C   UNL     1       1.409   3.631  19.727  0.00  0.00    +0.000 C 
BRANCH  16  17
ATOM     17  C   UNL     1       1.683   5.089  19.547  0.00  0.00    +0.000 A 
ATOM     18  C   UNL     1       2.263   5.506  18.340  0.00  0.00    +0.000 A 
ATOM     19  C   UNL     1       2.549   6.853  18.116  0.00  0.00    +0.000 A 
ATOM     20  C   UNL     1       2.262   7.795  19.100  0.00  0.00    +0.000 A 
ATOM     21  C   UNL     1       1.690   7.384  20.303  0.00  0.00    +0.000 A 
ATOM     22 BR   UNL     1       1.330   8.665  21.648  0.00  0.00    +0.000 Br
ATOM     23  C   UNL     1       1.395   6.038  20.536  0.00  0.00    +0.000 A 
ENDBRANCH  16  17
ENDBRANCH  14  16
ENDBRANCH  13  14
ENDBRANCH   1  13
TORSDOF 5
ENDMDL
MODEL 7
REMARK VINA RESULT:      -7.5      3.123      4.635
REMARK  Name = 
REMARK  5 active torsions:
REMARK  status: ('A' for Active; 'I' for Inactive)
REMARK    1  A    between atoms: C_2  and  C_3
REMARK    2  A    between atoms: C_2  and  C_16
REMARK    3  A    between atoms: C_3  and  O_4
REMARK    4  A    between atoms: O_4  and  C_5
REMARK    5  A    between atoms: C_5  and  C_7
REMARK                            x       y       z     vdW  Elec       q    Type
REMARK                         _______ _______ _______ _____ _____    ______ ____
ROOT
ATOM      1  C   UNL     1       1.343   2.491  19.026  0.00  0.00    +0.000 C 
ATOM      2  O   UNL     1       0.286   2.160  18.503  0.00  0.00    +0.000 OA
ENDROOT
BRANCH   1   3
ATOM      3  C   UNL     1       1.580   3.794  19.575  0.00  0.00    +0.000 A 
ATOM      4  N   UNL     1       1.516   3.980  20.934  0.00  0.00    +0.000 N 
ATOM      5  N   UNL     1       1.744   5.234  21.360  0.00  0.00    +0.000 NA
ATOM      6  C   UNL     1       1.955   5.936  20.238  0.00  0.00    +0.000 A 
ATOM      7  C   UNL     1       2.213   7.307  20.082  0.00  0.00    +0.000 A 
ATOM      8  C   UNL     1       2.356   7.714  18.740  0.00  0.00    +0.000 A 
ATOM      9  C   UNL     1       2.262   6.817  17.633  0.00  0.00    +0.000 A 
ATOM     10  C   UNL     1       2.016   5.433  17.757  0.00  0.00    +0.000 A 
ATOM     11  C   UNL     1       1.867   5.052  19.092  0.00  0.00    +0.000 A 
ATOM     12  H   UNL     1       1.304   3.268  21.626  0.00  0.00    +0.000 HD
ENDBRANCH   1   3
BRANCH   1  13
ATOM     13  O   UNL     1       2.437   1.685  19.119  0.00  0.00    +0.000 OA
BRANCH  13  14
ATOM     14  C   UNL     1       3.429   1.940  18.119  0.00  0.00    +0.000 C 
BRANCH  14  16
ATOM     15  O   UNL     1       4.960   2.788  19.783  0.00  0.00    +0.000 OA
ATOM     16  C   UNL     1       4.535   2.857  18.627  0.00  0.00    +0.000 C 
BRANCH  16  17
ATOM     17  C   UNL     1       5.123   3.869  17.698  0.00  0.00    +0.000 A 
ATOM     18  C   UNL     1       4.854   3.739  16.327  0.00  0.00    +0.000 A 
ATOM     19  C   UNL     1       5.379   4.648  15.410  0.00  0.00    +0.000 A 
ATOM     20  C   UNL     1       6.185   5.694  15.854  0.00  0.00    +0.000 A 
ATOM     21  C   UNL     1       6.459   5.824  17.214  0.00  0.00    +0.000 A 
ATOM     22 BR   UNL     1       7.577   7.229  17.808  0.00  0.00    +0.000 Br
ATOM     23  C   UNL     1       5.932   4.921  18.143  0.00  0.00    +0.000 A 
ENDBRANCH  16  17
ENDBRANCH  14  16
ENDBRANCH  13  14
ENDBRANCH   1  13
TORSDOF 5
ENDMDL
MODEL 8
REMARK VINA RESULT:      -7.4      3.365      6.257
REMARK  Name = 
REMARK  5 active torsions:
REMARK  status: ('A' for Active; 'I' for Inactive)
REMARK    1  A    between atoms: C_2  and  C_3
REMARK    2  A    between atoms: C_2  and  C_16
REMARK    3  A    between atoms: C_3  and  O_4
REMARK    4  A    between atoms: O_4  and  C_5
REMARK    5  A    between atoms: C_5  and  C_7
REMARK                            x       y       z     vdW  Elec       q    Type
REMARK                         _______ _______ _______ _____ _____    ______ ____
ROOT
ATOM      1  C   UNL     1       4.552   2.466  19.312  0.00  0.00    +0.000 C 
ATOM      2  O   UNL     1       5.102   2.361  20.402  0.00  0.00    +0.000 OA
ENDROOT
BRANCH   1   3
ATOM      3  C   UNL     1       4.985   3.376  18.292  0.00  0.00    +0.000 A 
ATOM      4  N   UNL     1       4.560   3.197  16.998  0.00  0.00    +0.000 N 
ATOM      5  N   UNL     1       5.020   4.090  16.107  0.00  0.00    +0.000 NA
ATOM      6  C   UNL     1       5.809   4.903  16.824  0.00  0.00    +0.000 A 
ATOM      7  C   UNL     1       6.574   6.001  16.400  0.00  0.00    +0.000 A 
ATOM      8  C   UNL     1       7.315   6.615  17.430  0.00  0.00    +0.000 A 
ATOM      9  C   UNL     1       7.286   6.175  18.789  0.00  0.00    +0.000 A 
ATOM     10  C   UNL     1       6.518   5.083  19.248  0.00  0.00    +0.000 A 
ATOM     11  C   UNL     1       5.801   4.482  18.212  0.00  0.00    +0.000 A 
ATOM     12  H   UNL     1       3.951   2.456  16.665  0.00  0.00    +0.000 HD
ENDBRANCH   1   3
BRANCH   1  13
ATOM     13  O   UNL     1       3.443   1.766  18.943  0.00  0.00    +0.000 OA
BRANCH  13  14
ATOM     14  C   UNL     1       2.263   2.133  19.665  0.00  0.00    +0.000 C 
BRANCH  14  16
ATOM     15  O   UNL     1       0.621   2.942  18.090  0.00  0.00    +0.000 OA
ATOM     16  C   UNL     1       1.464   3.215  18.948  0.00  0.00    +0.000 C 
BRANCH  16  17
ATOM     17  C   UNL     1       1.707   4.648  19.295  0.00  0.00    +0.000 A 
ATOM     18  C   UNL     1       1.350   5.084  20.580  0.00  0.00    +0.000 A 
ATOM     19  C   UNL     1       1.546   6.411  20.961  0.00  0.00    +0.000 A 
ATOM     20  C   UNL     1       2.097   7.317  20.058  0.00  0.00    +0.000 A 
ATOM     21  C   UNL     1       2.449   6.889  18.779  0.00  0.00    +0.000 A 
ATOM     22 BR   UNL     1       3.169   8.131  17.547  0.00  0.00    +0.000 Br
ATOM     23  C   UNL     1       2.261   5.559  18.389  0.00  0.00    +0.000 A 
ENDBRANCH  16  17
ENDBRANCH  14  16
ENDBRANCH  13  14
ENDBRANCH   1  13
TORSDOF 5
ENDMDL
MODEL 9
REMARK VINA RESULT:      -7.4      2.781      4.447
REMARK  Name = 
REMARK  5 active torsions:
REMARK  status: ('A' for Active; 'I' for Inactive)
REMARK    1  A    between atoms: C_2  and  C_3
REMARK    2  A    between atoms: C_2  and  C_16
REMARK    3  A    between atoms: C_3  and  O_4
REMARK    4  A    between atoms: O_4  and  C_5
REMARK    5  A    between atoms: C_5  and  C_7
REMARK                            x       y       z     vdW  Elec       q    Type
REMARK                         _______ _______ _______ _____ _____    ______ ____
ROOT
ATOM      1  C   UNL     1       1.358   2.589  18.504  0.00  0.00    +0.000 C 
ATOM      2  O   UNL     1       0.312   1.953  18.527  0.00  0.00    +0.000 OA
ENDROOT
BRANCH   1   3
ATOM      3  C   UNL     1       1.573   3.787  19.262  0.00  0.00    +0.000 A 
ATOM      4  N   UNL     1       1.478   3.749  20.632  0.00  0.00    +0.000 N 
ATOM      5  N   UNL     1       1.686   4.918  21.261  0.00  0.00    +0.000 NA
ATOM      6  C   UNL     1       1.916   5.794  20.272  0.00  0.00    +0.000 A 
ATOM      7  C   UNL     1       2.166   7.173  20.348  0.00  0.00    +0.000 A 
ATOM      8  C   UNL     1       2.335   7.794  19.093  0.00  0.00    +0.000 A 
ATOM      9  C   UNL     1       2.273   7.088  17.853  0.00  0.00    +0.000 A 
ATOM     10  C   UNL     1       2.035   5.701  17.745  0.00  0.00    +0.000 A 
ATOM     11  C   UNL     1       1.860   5.107  18.996  0.00  0.00    +0.000 A 
ATOM     12  H   UNL     1       1.255   2.933  21.194  0.00  0.00    +0.000 HD
ENDBRANCH   1   3
BRANCH   1  13
ATOM     13  O   UNL     1       2.433   2.268  17.731  0.00  0.00    +0.000 OA
BRANCH  13  14
ATOM     14  C   UNL     1       3.465   1.573  18.440  0.00  0.00    +0.000 C 
BRANCH  14  16
ATOM     15  O   UNL     1       4.865   2.409  20.221  0.00  0.00    +0.000 OA
ATOM     16  C   UNL     1       4.483   2.526  19.054  0.00  0.00    +0.000 C 
BRANCH  16  17
ATOM     17  C   UNL     1       5.035   3.635  18.219  0.00  0.00    +0.000 A 
ATOM     18  C   UNL     1       5.369   4.838  18.858  0.00  0.00    +0.000 A 
ATOM     19  C   UNL     1       5.882   5.912  18.131  0.00  0.00    +0.000 A 
ATOM     20  C   UNL     1       6.059   5.795  16.755  0.00  0.00    +0.000 A 
ATOM     21  C   UNL     1       5.724   4.603  16.114  0.00  0.00    +0.000 A 
ATOM     22 BR   UNL     1       5.940   4.462  14.241  0.00  0.00    +0.000 Br
ATOM     23  C   UNL     1       5.214   3.519  16.835  0.00  0.00    +0.000 A 
ENDBRANCH  16  17
ENDBRANCH  14  16
ENDBRANCH  13  14
ENDBRANCH   1  13
TORSDOF 5
ENDMDL
