MODEL 1
REMARK VINA RESULT:      -8.2      0.000      0.000
REMARK  Name = 
REMARK  2 active torsions:
REMARK  status: ('A' for Active; 'I' for Inactive)
REMARK    1  A    between atoms: C_2  and  C_3
REMARK    2  A    between atoms: C_17  and  O_18
REMARK                            x       y       z     vdW  Elec       q    Type
REMARK                         _______ _______ _______ _____ _____    ______ ____
ROOT
ATOM      1  O   UNL     1       3.858   6.504  17.605  0.00  0.00    +0.000 OA
ATOM      2  C   UNL     1       4.366   5.377  17.566  0.00  0.00    +0.000 C 
ATOM      3  N   UNL     1       3.986   4.359  18.470  0.00  0.00    +0.000 N 
ATOM      4  C   UNL     1       4.406   2.954  18.428  0.00  0.00    +0.000 C 
ATOM      5  C   UNL     1       3.290   1.984  18.050  0.00  0.00    +0.000 C 
ATOM      6  C   UNL     1       2.342   1.743  19.216  0.00  0.00    +0.000 C 
ATOM      7  C   UNL     1       1.230   2.784  19.347  0.00  0.00    +0.000 C 
ATOM      8  C   UNL     1       1.577   4.240  19.015  0.00  0.00    +0.000 C 
ATOM      9  C   UNL     1       2.963   4.686  19.470  0.00  0.00    +0.000 C 
ENDROOT
BRANCH   2  10
ATOM     10  C   UNL     1       5.357   5.129  16.478  0.00  0.00    +0.000 A 
ATOM     11  C   UNL     1       6.554   5.823  16.460  0.00  0.00    +0.000 A 
ATOM     12  N   UNL     1       7.417   5.759  15.409  0.00  0.00    +0.000 NA
ATOM     13  C   UNL     1       7.029   5.003  14.358  0.00  0.00    +0.000 A 
ATOM     14  C   UNL     1       7.779   4.963  13.188  0.00  0.00    +0.000 A 
ATOM     15  C   UNL     1       7.344   4.247  12.067  0.00  0.00    +0.000 A 
ATOM     16  C   UNL     1       6.144   3.550  12.114  0.00  0.00    +0.000 A 
ATOM     17  C   UNL     1       5.399   3.556  13.290  0.00  0.00    +0.000 A 
ATOM     18  C   UNL     1       5.824   4.265  14.402  0.00  0.00    +0.000 A 
ATOM     19  N   UNL     1       5.030   4.283  15.478  0.00  0.00    +0.000 NA
ENDBRANCH   2  10
BRANCH   7  20
ATOM     20  O   UNL     1       0.133   2.383  18.520  0.00  0.00    +0.000 OA
ATOM     21  H   UNL     1      -0.203   1.536  18.857  0.00  0.00    +0.000 HD
ENDBRANCH   7  20
TORSDOF 2
ENDMDL
MODEL 2
REMARK VINA RESULT:      -7.5      3.590      7.039
REMARK  Name = 
REMARK  2 active torsions:
REMARK  status: ('A' for Active; 'I' for Inactive)
REMARK    1  A    between atoms: C_2  and  C_3
REMARK    2  A    between atoms: C_17  and  O_18
REMARK                            x       y       z     vdW  Elec       q    Type
REMARK                         _______ _______ _______ _____ _____    ______ ____
ROOT
ATOM      1  O   UNL     1       2.278   4.640  17.430  0.00  0.00    +0.000 OA
ATOM      2  C   UNL     1       3.090   5.206  18.172  0.00  0.00    +0.000 C 
ATOM      3  N   UNL     1       4.436   4.783  18.259  0.00  0.00    +0.000 N 
ATOM      4  C   UNL     1       5.516   5.461  18.985  0.00  0.00    +0.000 C 
ATOM      5  C   UNL     1       6.569   6.097  18.080  0.00  0.00    +0.000 C 
ATOM      6  C   UNL     1       7.512   5.051  17.502  0.00  0.00    +0.000 C 
ATOM      7  C   UNL     1       6.998   4.376  16.231  0.00  0.00    +0.000 C 
ATOM      8  C   UNL     1       5.494   4.094  16.134  0.00  0.00    +0.000 C 
ATOM      9  C   UNL     1       4.845   3.639  17.437  0.00  0.00    +0.000 C 
ENDROOT
BRANCH   2  10
ATOM     10  C   UNL     1       2.590   6.393  18.926  0.00  0.00    +0.000 A 
ATOM     11  C   UNL     1       2.107   6.242  20.214  0.00  0.00    +0.000 A 
ATOM     12  N   UNL     1       1.489   7.254  20.883  0.00  0.00    +0.000 NA
ATOM     13  C   UNL     1       1.338   8.416  20.208  0.00  0.00    +0.000 A 
ATOM     14  C   UNL     1       0.619   9.473  20.755  0.00  0.00    +0.000 A 
ATOM     15  C   UNL     1       0.390  10.649  20.032  0.00  0.00    +0.000 A 
ATOM     16  C   UNL     1       0.894  10.780  18.745  0.00  0.00    +0.000 A 
ATOM     17  C   UNL     1       1.643   9.741  18.199  0.00  0.00    +0.000 A 
ATOM     18  C   UNL     1       1.871   8.573  18.909  0.00  0.00    +0.000 A 
ATOM     19  N   UNL     1       2.543   7.589  18.302  0.00  0.00    +0.000 NA
ENDBRANCH   2  10
BRANCH   7  20
ATOM     20  O   UNL     1       7.378   5.176  15.107  0.00  0.00    +0.000 OA
ATOM     21  H   UNL     1       6.566   5.496  14.678  0.00  0.00    +0.000 HD
ENDBRANCH   7  20
TORSDOF 2
ENDMDL
MODEL 3
REMARK VINA RESULT:      -7.3      3.981      7.059
REMARK  Name = 
REMARK  2 active torsions:
REMARK  status: ('A' for Active; 'I' for Inactive)
REMARK    1  A    between atoms: C_2  and  C_3
REMARK    2  A    between atoms: C_17  and  O_18
REMARK                            x       y       z     vdW  Elec       q    Type
REMARK                         _______ _______ _______ _____ _____    ______ ____
ROOT
ATOM      1  O   UNL     1       4.469   7.065  17.690  0.00  0.00    +0.000 OA
ATOM      2  C   UNL     1       3.355   6.630  18.001  0.00  0.00    +0.000 C 
ATOM      3  N   UNL     1       3.039   5.255  17.899  0.00  0.00    +0.000 N 
ATOM      4  C   UNL     1       1.812   4.606  18.373  0.00  0.00    +0.000 C 
ATOM      5  C   UNL     1       2.019   3.691  19.578  0.00  0.00    +0.000 C 
ATOM      6  C   UNL     1       2.652   2.367  19.171  0.00  0.00    +0.000 C 
ATOM      7  C   UNL     1       4.178   2.402  19.085  0.00  0.00    +0.000 C 
ATOM      8  C   UNL     1       4.832   3.683  18.555  0.00  0.00    +0.000 C 
ATOM      9  C   UNL     1       4.085   4.352  17.405  0.00  0.00    +0.000 C 
ENDROOT
BRANCH   2  10
ATOM     10  C   UNL     1       2.378   7.620  18.543  0.00  0.00    +0.000 A 
ATOM     11  C   UNL     1       1.912   8.645  17.739  0.00  0.00    +0.000 A 
ATOM     12  N   UNL     1       1.155   9.665  18.226  0.00  0.00    +0.000 NA
ATOM     13  C   UNL     1       0.905   9.647  19.555  0.00  0.00    +0.000 A 
ATOM     14  C   UNL     1       0.242  10.701  20.173  0.00  0.00    +0.000 A 
ATOM     15  C   UNL     1       0.051  10.728  21.559  0.00  0.00    +0.000 A 
ATOM     16  C   UNL     1       0.519   9.683  22.343  0.00  0.00    +0.000 A 
ATOM     17  C   UNL     1       1.156   8.606  21.732  0.00  0.00    +0.000 A 
ATOM     18  C   UNL     1       1.350   8.575  20.360  0.00  0.00    +0.000 A 
ATOM     19  N   UNL     1       2.027   7.543  19.844  0.00  0.00    +0.000 NA
ENDBRANCH   2  10
BRANCH   7  20
ATOM     20  O   UNL     1       4.712   2.128  20.383  0.00  0.00    +0.000 OA
ATOM     21  H   UNL     1       5.678   2.234  20.339  0.00  0.00    +0.000 HD
ENDBRANCH   7  20
TORSDOF 2
ENDMDL
MODEL 4
REMARK VINA RESULT:      -6.9      4.083      6.925
REMARK  Name = 
REMARK  2 active torsions:
REMARK  status: ('A' for Active; 'I' for Inactive)
REMARK    1  A    between atoms: C_2  and  C_3
REMARK    2  A    between atoms: C_17  and  O_18
REMARK                            x       y       z     vdW  Elec       q    Type
REMARK                         _______ _______ _______ _____ _____    ______ ____
ROOT
ATOM      1  O   UNL     1       4.104   6.796  17.391  0.00  0.00    +0.000 OA
ATOM      2  C   UNL     1       3.111   6.424  18.028  0.00  0.00    +0.000 C 
ATOM      3  N   UNL     1       2.695   5.073  18.035  0.00  0.00    +0.000 N 
ATOM      4  C   UNL     1       1.631   4.493  18.862  0.00  0.00    +0.000 C 
ATOM      5  C   UNL     1       2.137   3.551  19.952  0.00  0.00    +0.000 C 
ATOM      6  C   UNL     1       2.533   2.196  19.379  0.00  0.00    +0.000 C 
ATOM      7  C   UNL     1       3.960   2.140  18.833  0.00  0.00    +0.000 C 
ATOM      8  C   UNL     1       4.501   3.386  18.124  0.00  0.00    +0.000 C 
ATOM      9  C   UNL     1       3.484   4.115  17.251  0.00  0.00    +0.000 C 
ENDROOT
BRANCH   2  10
ATOM     10  C   UNL     1       2.409   7.464  18.836  0.00  0.00    +0.000 A 
ATOM     11  C   UNL     1       2.204   7.268  20.190  0.00  0.00    +0.000 A 
ATOM     12  N   UNL     1       1.429   8.101  20.938  0.00  0.00    +0.000 NA
ATOM     13  C   UNL     1       0.835   9.122  20.279  0.00  0.00    +0.000 A 
ATOM     14  C   UNL     1      -0.069   9.960  20.922  0.00  0.00    +0.000 A 
ATOM     15  C   UNL     1      -0.749  10.967  20.228  0.00  0.00    +0.000 A 
ATOM     16  C   UNL     1      -0.517  11.151  18.872  0.00  0.00    +0.000 A 
ATOM     17  C   UNL     1       0.409  10.339  18.223  0.00  0.00    +0.000 A 
ATOM     18  C   UNL     1       1.083   9.338  18.905  0.00  0.00    +0.000 A 
ATOM     19  N   UNL     1       1.911   8.551  18.209  0.00  0.00    +0.000 NA
ENDBRANCH   2  10
BRANCH   7  20
ATOM     20  O   UNL     1       4.845   1.816  19.910  0.00  0.00    +0.000 OA
ATOM     21  H   UNL     1       4.313   1.721  20.719  0.00  0.00    +0.000 HD
ENDBRANCH   7  20
TORSDOF 2
ENDMDL
MODEL 5
REMARK VINA RESULT:      -6.8      4.138      6.748
REMARK  Name = 
REMARK  2 active torsions:
REMARK  status: ('A' for Active; 'I' for Inactive)
REMARK    1  A    between atoms: C_2  and  C_3
REMARK    2  A    between atoms: C_17  and  O_18
REMARK                            x       y       z     vdW  Elec       q    Type
REMARK                         _______ _______ _______ _____ _____    ______ ____
ROOT
ATOM      1  O   UNL     1       4.620   6.306  18.489  0.00  0.00    +0.000 OA
ATOM      2  C   UNL     1       3.395   6.149  18.546  0.00  0.00    +0.000 C 
ATOM      3  N   UNL     1       2.813   4.862  18.606  0.00  0.00    +0.000 N 
ATOM      4  C   UNL     1       1.394   4.557  18.823  0.00  0.00    +0.000 C 
ATOM      5  C   UNL     1       1.096   3.924  20.180  0.00  0.00    +0.000 C 
ATOM      6  C   UNL     1       1.494   2.454  20.209  0.00  0.00    +0.000 C 
ATOM      7  C   UNL     1       2.963   2.209  20.551  0.00  0.00    +0.000 C 
ATOM      8  C   UNL     1       3.995   3.204  20.008  0.00  0.00    +0.000 C 
ATOM      9  C   UNL     1       3.716   3.706  18.594  0.00  0.00    +0.000 C 
ENDROOT
BRANCH   2  10
ATOM     10  C   UNL     1       2.565   7.389  18.607  0.00  0.00    +0.000 A 
ATOM     11  C   UNL     1       2.536   8.256  17.530  0.00  0.00    +0.000 A 
ATOM     12  N   UNL     1       1.933   9.475  17.592  0.00  0.00    +0.000 NA
ATOM     13  C   UNL     1       1.387   9.815  18.782  0.00  0.00    +0.000 A 
ATOM     14  C   UNL     1       0.852  11.081  18.988  0.00  0.00    +0.000 A 
ATOM     15  C   UNL     1       0.358  11.468  20.239  0.00  0.00    +0.000 A 
ATOM     16  C   UNL     1       0.389  10.575  21.302  0.00  0.00    +0.000 A 
ATOM     17  C   UNL     1       0.893   9.293  21.099  0.00  0.00    +0.000 A 
ATOM     18  C   UNL     1       1.386   8.906  19.864  0.00  0.00    +0.000 A 
ATOM     19  N   UNL     1       1.916   7.683  19.754  0.00  0.00    +0.000 NA
ENDBRANCH   2  10
BRANCH   7  20
ATOM     20  O   UNL     1       3.096   2.156  21.974  0.00  0.00    +0.000 OA
ATOM     21  H   UNL     1       2.676   2.952  22.345  0.00  0.00    +0.000 HD
ENDBRANCH   7  20
TORSDOF 2
ENDMDL
MODEL 6
REMARK VINA RESULT:      -6.6      3.095      4.142
REMARK  Name = 
REMARK  2 active torsions:
REMARK  status: ('A' for Active; 'I' for Inactive)
REMARK    1  A    between atoms: C_2  and  C_3
REMARK    2  A    between atoms: C_17  and  O_18
REMARK                            x       y       z     vdW  Elec       q    Type
REMARK                         _______ _______ _______ _____ _____    ______ ____
ROOT
ATOM      1  O   UNL     1       4.397   3.139  16.860  0.00  0.00    +0.000 OA
ATOM      2  C   UNL     1       4.276   4.170  17.532  0.00  0.00    +0.000 C 
ATOM      3  N   UNL     1       3.027   4.567  18.064  0.00  0.00    +0.000 N 
ATOM      4  C   UNL     1       2.790   5.679  18.991  0.00  0.00    +0.000 C 
ATOM      5  C   UNL     1       2.392   5.240  20.398  0.00  0.00    +0.000 C 
ATOM      6  C   UNL     1       0.940   4.786  20.452  0.00  0.00    +0.000 C 
ATOM      7  C   UNL     1       0.725   3.324  20.063  0.00  0.00    +0.000 C 
ATOM      8  C   UNL     1       1.598   2.750  18.941  0.00  0.00    +0.000 C 
ATOM      9  C   UNL     1       1.868   3.712  17.787  0.00  0.00    +0.000 C 
ENDROOT
BRANCH   2  10
ATOM     10  C   UNL     1       5.524   4.942  17.802  0.00  0.00    +0.000 A 
ATOM     11  C   UNL     1       6.424   4.495  18.754  0.00  0.00    +0.000 A 
ATOM     12  N   UNL     1       7.489   5.240  19.157  0.00  0.00    +0.000 NA
ATOM     13  C   UNL     1       7.608   6.467  18.601  0.00  0.00    +0.000 A 
ATOM     14  C   UNL     1       8.590   7.353  19.027  0.00  0.00    +0.000 A 
ATOM     15  C   UNL     1       8.671   8.653  18.514  0.00  0.00    +0.000 A 
ATOM     16  C   UNL     1       7.763   9.075  17.552  0.00  0.00    +0.000 A 
ATOM     17  C   UNL     1       6.795   8.185  17.094  0.00  0.00    +0.000 A 
ATOM     18  C   UNL     1       6.709   6.898  17.600  0.00  0.00    +0.000 A 
ATOM     19  N   UNL     1       5.715   6.116  17.164  0.00  0.00    +0.000 NA
ENDBRANCH   2  10
BRANCH   7  20
ATOM     20  O   UNL     1       0.903   2.513  21.229  0.00  0.00    +0.000 OA
ATOM     21  H   UNL     1       0.055   2.481  21.704  0.00  0.00    +0.000 HD
ENDBRANCH   7  20
TORSDOF 2
ENDMDL
MODEL 7
REMARK VINA RESULT:      -6.5      3.598      7.276
REMARK  Name = 
REMARK  2 active torsions:
REMARK  status: ('A' for Active; 'I' for Inactive)
REMARK    1  A    between atoms: C_2  and  C_3
REMARK    2  A    between atoms: C_17  and  O_18
REMARK                            x       y       z     vdW  Elec       q    Type
REMARK                         _______ _______ _______ _____ _____    ______ ____
ROOT
ATOM      1  O   UNL     1       2.419   4.565  17.518  0.00  0.00    +0.000 OA
ATOM      2  C   UNL     1       3.121   5.464  17.995  0.00  0.00    +0.000 C 
ATOM      3  N   UNL     1       4.526   5.340  18.088  0.00  0.00    +0.000 N 
ATOM      4  C   UNL     1       5.468   6.389  18.495  0.00  0.00    +0.000 C 
ATOM      5  C   UNL     1       6.349   6.906  17.361  0.00  0.00    +0.000 C 
ATOM      6  C   UNL     1       7.467   5.926  17.032  0.00  0.00    +0.000 C 
ATOM      7  C   UNL     1       7.064   4.820  16.056  0.00  0.00    +0.000 C 
ATOM      8  C   UNL     1       5.645   4.253  16.170  0.00  0.00    +0.000 C 
ATOM      9  C   UNL     1       5.133   4.097  17.599  0.00  0.00    +0.000 C 
ENDROOT
BRANCH   2  10
ATOM     10  C   UNL     1       2.414   6.710  18.415  0.00  0.00    +0.000 A 
ATOM     11  C   UNL     1       2.268   7.758  17.523  0.00  0.00    +0.000 A 
ATOM     12  N   UNL     1       1.783   8.973  17.900  0.00  0.00    +0.000 NA
ATOM     13  C   UNL     1       1.479   9.118  19.209  0.00  0.00    +0.000 A 
ATOM     14  C   UNL     1       1.089  10.351  19.721  0.00  0.00    +0.000 A 
ATOM     15  C   UNL     1       0.850  10.529  21.088  0.00  0.00    +0.000 A 
ATOM     16  C   UNL     1       0.993   9.460  21.961  0.00  0.00    +0.000 A 
ATOM     17  C   UNL     1       1.352   8.213  21.457  0.00  0.00    +0.000 A 
ATOM     18  C   UNL     1       1.592   8.031  20.104  0.00  0.00    +0.000 A 
ATOM     19  N   UNL     1       1.998   6.824  19.694  0.00  0.00    +0.000 NA
ENDBRANCH   2  10
BRANCH   7  20
ATOM     20  O   UNL     1       7.249   5.303  14.722  0.00  0.00    +0.000 OA
ATOM     21  H   UNL     1       7.664   6.182  14.775  0.00  0.00    +0.000 HD
ENDBRANCH   7  20
TORSDOF 2
ENDMDL
MODEL 8
REMARK VINA RESULT:      -6.5      1.372      1.435
REMARK  Name = 
REMARK  2 active torsions:
REMARK  status: ('A' for Active; 'I' for Inactive)
REMARK    1  A    between atoms: C_2  and  C_3
REMARK    2  A    between atoms: C_17  and  O_18
REMARK                            x       y       z     vdW  Elec       q    Type
REMARK                         _______ _______ _______ _____ _____    ______ ____
ROOT
ATOM      1  O   UNL     1       5.825   4.967  19.707  0.00  0.00    +0.000 OA
ATOM      2  C   UNL     1       5.492   4.168  18.825  0.00  0.00    +0.000 C 
ATOM      3  N   UNL     1       4.518   3.169  19.056  0.00  0.00    +0.000 N 
ATOM      4  C   UNL     1       3.940   2.267  18.053  0.00  0.00    +0.000 C 
ATOM      5  C   UNL     1       2.474   2.552  17.733  0.00  0.00    +0.000 C 
ATOM      6  C   UNL     1       1.554   2.041  18.833  0.00  0.00    +0.000 C 
ATOM      7  C   UNL     1       1.366   3.015  19.997  0.00  0.00    +0.000 C 
ATOM      8  C   UNL     1       2.577   3.850  20.428  0.00  0.00    +0.000 C 
ATOM      9  C   UNL     1       3.910   3.109  20.390  0.00  0.00    +0.000 C 
ENDROOT
BRANCH   2  10
ATOM     10  C   UNL     1       6.129   4.346  17.486  0.00  0.00    +0.000 A 
ATOM     11  C   UNL     1       7.075   5.337  17.296  0.00  0.00    +0.000 A 
ATOM     12  N   UNL     1       7.564   5.651  16.066  0.00  0.00    +0.000 NA
ATOM     13  C   UNL     1       7.049   4.963  15.021  0.00  0.00    +0.000 A 
ATOM     14  C   UNL     1       7.391   5.286  13.713  0.00  0.00    +0.000 A 
ATOM     15  C   UNL     1       6.803   4.632  12.624  0.00  0.00    +0.000 A 
ATOM     16  C   UNL     1       5.863   3.634  12.841  0.00  0.00    +0.000 A 
ATOM     17  C   UNL     1       5.536   3.280  14.148  0.00  0.00    +0.000 A 
ATOM     18  C   UNL     1       6.114   3.925  15.229  0.00  0.00    +0.000 A 
ATOM     19  N   UNL     1       5.707   3.582  16.457  0.00  0.00    +0.000 NA
ENDBRANCH   2  10
BRANCH   7  20
ATOM     20  O   UNL     1       0.296   3.908  19.673  0.00  0.00    +0.000 OA
ATOM     21  H   UNL     1       0.413   4.195  18.751  0.00  0.00    +0.000 HD
ENDBRANCH   7  20
TORSDOF 2
ENDMDL
MODEL 9
REMARK VINA RESULT:      -6.4      4.638      8.078
REMARK  Name = 
REMARK  2 active torsions:
REMARK  status: ('A' for Active; 'I' for Inactive)
REMARK    1  A    between atoms: C_2  and  C_3
REMARK    2  A    between atoms: C_17  and  O_18
REMARK                            x       y       z     vdW  Elec       q    Type
REMARK                         _______ _______ _______ _____ _____    ______ ____
ROOT
ATOM      1  O   UNL     1       3.304   8.821  17.243  0.00  0.00    +0.000 OA
ATOM      2  C   UNL     1       2.654   8.059  17.967  0.00  0.00    +0.000 C 
ATOM      3  N   UNL     1       2.932   6.674  18.027  0.00  0.00    +0.000 N 
ATOM      4  C   UNL     1       2.332   5.704  18.951  0.00  0.00    +0.000 C 
ATOM      5  C   UNL     1       3.299   5.171  20.005  0.00  0.00    +0.000 C 
ATOM      6  C   UNL     1       4.250   4.137  19.419  0.00  0.00    +0.000 C 
ATOM      7  C   UNL     1       5.490   4.733  18.754  0.00  0.00    +0.000 C 
ATOM      8  C   UNL     1       5.324   6.047  17.984  0.00  0.00    +0.000 C 
ATOM      9  C   UNL     1       4.025   6.163  17.192  0.00  0.00    +0.000 C 
ENDROOT
BRANCH   2  10
ATOM     10  C   UNL     1       1.599   8.684  18.819  0.00  0.00    +0.000 A 
ATOM     11  C   UNL     1       0.768   9.655  18.289  0.00  0.00    +0.000 A 
ATOM     12  N   UNL     1      -0.095  10.373  19.059  0.00  0.00    +0.000 NA
ATOM     13  C   UNL     1      -0.077  10.112  20.386  0.00  0.00    +0.000 A 
ATOM     14  C   UNL     1      -0.832  10.869  21.275  0.00  0.00    +0.000 A 
ATOM     15  C   UNL     1      -0.757  10.658  22.656  0.00  0.00    +0.000 A 
ATOM     16  C   UNL     1       0.078   9.671  23.162  0.00  0.00    +0.000 A 
ATOM     17  C   UNL     1       0.815   8.885  22.279  0.00  0.00    +0.000 A 
ATOM     18  C   UNL     1       0.746   9.091  20.911  0.00  0.00    +0.000 A 
ATOM     19  N   UNL     1       1.529   8.346  20.123  0.00  0.00    +0.000 NA
ENDBRANCH   2  10
BRANCH   7  20
ATOM     20  O   UNL     1       6.495   4.923  19.755  0.00  0.00    +0.000 OA
ATOM     21  H   UNL     1       7.330   5.140  19.305  0.00  0.00    +0.000 HD
ENDBRANCH   7  20
TORSDOF 2
ENDMDL
