MODEL 1
REMARK VINA RESULT:      -7.9      0.000      0.000
REMARK  Name = 
REMARK  8 active torsions:
REMARK  status: ('A' for Active; 'I' for Inactive)
REMARK    1  A    between atoms: C_1  and  S_2
REMARK    2  A    between atoms: S_2  and  C_5
REMARK    3  A    between atoms: C_8  and  O_9
REMARK    4  A    between atoms: O_9  and  C_10
REMARK    5  A    between atoms: C_10  and  C_11
REMARK    6  A    between atoms: C_14  and  C_15
REMARK    7  A    between atoms: N_20  and  C_21
REMARK    8  A    between atoms: C_24  and  C_25
REMARK                            x       y       z     vdW  Elec       q    Type
REMARK                         _______ _______ _______ _____ _____    ______ ____
ROOT
ATOM      1  C   UNL     1       3.062   7.494  17.835  0.00  0.00    +0.000 C 
ATOM      2  O   UNL     1       3.377   7.874  16.704  0.00  0.00    +0.000 OA
ATOM      3  N   UNL     1       2.276   8.273  18.663  0.00  0.00    +0.000 N 
ATOM      4  C   UNL     1       1.663   9.502  18.133  0.00  0.00    +0.000 C 
ATOM      5  C   UNL     1       0.243   9.705  18.695  0.00  0.00    +0.000 C 
ATOM      6  N   UNL     1       0.224   9.573  20.164  0.00  0.00    +0.000 N 
ATOM      7  C   UNL     1       0.886   8.374  20.699  0.00  0.00    +0.000 C 
ATOM      8  C   UNL     1       2.300   8.220  20.121  0.00  0.00    +0.000 C 
ENDROOT
BRANCH   6   9
ATOM      9  C   UNL     1      -0.172  10.587  21.012  0.00  0.00    +0.000 A 
ATOM     10  C   UNL     1      -0.005  11.929  20.628  0.00  0.00    +0.000 A 
ATOM     11  C   UNL     1      -0.398  12.989  21.455  0.00  0.00    +0.000 A 
ATOM     12  C   UNL     1      -0.972  12.728  22.698  0.00  0.00    +0.000 A 
ATOM     13  C   UNL     1      -1.138  11.408  23.111  0.00  0.00    +0.000 A 
ATOM     14  C   UNL     1      -0.749  10.364  22.276  0.00  0.00    +0.000 A 
ATOM     15  F   UNL     1      -0.984   9.109  22.701  0.00  0.00    +0.000 F 
BRANCH  12  16
ATOM     16  C   UNL     1      -1.379  13.806  23.545  0.00  0.00    +0.000 C 
ATOM     17  N   UNL     1      -1.709  14.679  24.234  0.00  0.00    +0.000 NA
ENDBRANCH  12  16
ENDBRANCH   6   9
BRANCH   1  22
ATOM     18  C   UNL     1       2.930   4.069  19.344  0.00  0.00    +0.000 A 
ATOM     19  C   UNL     1       4.260   3.700  19.471  0.00  0.00    +0.000 A 
ATOM     20  C   UNL     1       5.245   4.547  18.978  0.00  0.00    +0.000 A 
ATOM     21  C   UNL     1       4.929   5.749  18.311  0.00  0.00    +0.000 A 
ATOM     22  C   UNL     1       3.577   6.152  18.251  0.00  0.00    +0.000 A 
ATOM     23  C   UNL     1       2.583   5.286  18.754  0.00  0.00    +0.000 A 
BRANCH  18  25
ATOM     24  C   UNL     1       2.163   2.662  21.633  0.00  0.00    +0.000 C 
ATOM     25  S   UNL     1       1.667   2.991  19.965  0.00  0.00    +0.000 S 
ATOM     26  O   UNL     1       1.763   1.743  19.228  0.00  0.00    +0.000 OA
ATOM     27  O   UNL     1       0.436   3.757  19.978  0.00  0.00    +0.000 OA
ENDBRANCH  18  25
BRANCH  21  28
ATOM     28  O   UNL     1       5.931   6.503  17.724  0.00  0.00    +0.000 OA
BRANCH  28  29
ATOM     29  C   UNL     1       6.726   5.754  16.780  0.00  0.00    +0.000 C 
BRANCH  29  30
ATOM     30  C   UNL     1       5.961   5.402  15.541  0.00  0.00    +0.000 C 
ATOM     31  C   UNL     1       6.715   4.743  14.409  0.00  0.00    +0.000 C 
ATOM     32  C   UNL     1       5.687   3.962  15.173  0.00  0.00    +0.000 C 
ENDBRANCH  29  30
ENDBRANCH  28  29
ENDBRANCH  21  28
ENDBRANCH   1  22
TORSDOF 7
ENDMDL
MODEL 2
REMARK VINA RESULT:      -7.7      0.876      1.216
REMARK  Name = 
REMARK  8 active torsions:
REMARK  status: ('A' for Active; 'I' for Inactive)
REMARK    1  A    between atoms: C_1  and  S_2
REMARK    2  A    between atoms: S_2  and  C_5
REMARK    3  A    between atoms: C_8  and  O_9
REMARK    4  A    between atoms: O_9  and  C_10
REMARK    5  A    between atoms: C_10  and  C_11
REMARK    6  A    between atoms: C_14  and  C_15
REMARK    7  A    between atoms: N_20  and  C_21
REMARK    8  A    between atoms: C_24  and  C_25
REMARK                            x       y       z     vdW  Elec       q    Type
REMARK                         _______ _______ _______ _____ _____    ______ ____
ROOT
ATOM      1  C   UNL     1       2.959   7.542  17.785  0.00  0.00    +0.000 C 
ATOM      2  O   UNL     1       3.233   7.883  16.631  0.00  0.00    +0.000 OA
ATOM      3  N   UNL     1       2.204   8.351  18.614  0.00  0.00    +0.000 N 
ATOM      4  C   UNL     1       1.575   9.564  18.065  0.00  0.00    +0.000 C 
ATOM      5  C   UNL     1       0.177   9.790  18.670  0.00  0.00    +0.000 C 
ATOM      6  N   UNL     1       0.210   9.707  20.142  0.00  0.00    +0.000 N 
ATOM      7  C   UNL     1       0.889   8.524  20.694  0.00  0.00    +0.000 C 
ATOM      8  C   UNL     1       2.281   8.347  20.071  0.00  0.00    +0.000 C 
ENDROOT
BRANCH   6   9
ATOM      9  C   UNL     1      -0.154  10.750  20.969  0.00  0.00    +0.000 A 
ATOM     10  C   UNL     1      -0.869  10.491  22.152  0.00  0.00    +0.000 A 
ATOM     11  C   UNL     1      -1.253  11.518  23.024  0.00  0.00    +0.000 A 
ATOM     12  C   UNL     1      -0.930  12.841  22.727  0.00  0.00    +0.000 A 
ATOM     13  C   UNL     1      -0.234  13.129  21.556  0.00  0.00    +0.000 A 
ATOM     14  C   UNL     1       0.148  12.098  20.703  0.00  0.00    +0.000 A 
ATOM     15  F   UNL     1       0.867  12.427  19.613  0.00  0.00    +0.000 F 
BRANCH  12  16
ATOM     16  C   UNL     1      -1.316  13.894  23.615  0.00  0.00    +0.000 C 
ATOM     17  N   UNL     1      -1.629  14.749  24.334  0.00  0.00    +0.000 NA
ENDBRANCH  12  16
ENDBRANCH   6   9
BRANCH   1  22
ATOM     18  C   UNL     1       2.856   4.143  19.355  0.00  0.00    +0.000 A 
ATOM     19  C   UNL     1       4.189   3.791  19.494  0.00  0.00    +0.000 A 
ATOM     20  C   UNL     1       5.168   4.639  18.989  0.00  0.00    +0.000 A 
ATOM     21  C   UNL     1       4.842   5.826  18.299  0.00  0.00    +0.000 A 
ATOM     22  C   UNL     1       3.486   6.214  18.227  0.00  0.00    +0.000 A 
ATOM     23  C   UNL     1       2.499   5.346  18.742  0.00  0.00    +0.000 A 
BRANCH  18  25
ATOM     24  C   UNL     1       2.176   2.645  21.614  0.00  0.00    +0.000 C 
ATOM     25  S   UNL     1       1.601   3.064  19.990  0.00  0.00    +0.000 S 
ATOM     26  O   UNL     1       1.630   1.851  19.193  0.00  0.00    +0.000 OA
ATOM     27  O   UNL     1       0.392   3.854  20.104  0.00  0.00    +0.000 OA
ENDBRANCH  18  25
BRANCH  21  28
ATOM     28  O   UNL     1       5.838   6.579  17.703  0.00  0.00    +0.000 OA
BRANCH  28  29
ATOM     29  C   UNL     1       6.668   5.812  16.804  0.00  0.00    +0.000 C 
BRANCH  29  30
ATOM     30  C   UNL     1       5.960   5.464  15.531  0.00  0.00    +0.000 C 
ATOM     31  C   UNL     1       6.748   4.747  14.458  0.00  0.00    +0.000 C 
ATOM     32  C   UNL     1       5.647   4.027  15.179  0.00  0.00    +0.000 C 
ENDBRANCH  29  30
ENDBRANCH  28  29
ENDBRANCH  21  28
ENDBRANCH   1  22
TORSDOF 7
ENDMDL
MODEL 3
REMARK VINA RESULT:      -7.7      2.060      4.109
REMARK  Name = 
REMARK  8 active torsions:
REMARK  status: ('A' for Active; 'I' for Inactive)
REMARK    1  A    between atoms: C_1  and  S_2
REMARK    2  A    between atoms: S_2  and  C_5
REMARK    3  A    between atoms: C_8  and  O_9
REMARK    4  A    between atoms: O_9  and  C_10
REMARK    5  A    between atoms: C_10  and  C_11
REMARK    6  A    between atoms: C_14  and  C_15
REMARK    7  A    between atoms: N_20  and  C_21
REMARK    8  A    between atoms: C_24  and  C_25
REMARK                            x       y       z     vdW  Elec       q    Type
REMARK                         _______ _______ _______ _____ _____    ______ ____
ROOT
ATOM      1  C   UNL     1       2.941   7.505  17.661  0.00  0.00    +0.000 C 
ATOM      2  O   UNL     1       3.080   7.813  16.474  0.00  0.00    +0.000 OA
ATOM      3  N   UNL     1       2.205   8.292  18.527  0.00  0.00    +0.000 N 
ATOM      4  C   UNL     1       1.434   9.428  17.995  0.00  0.00    +0.000 C 
ATOM      5  C   UNL     1       0.085   9.576  18.722  0.00  0.00    +0.000 C 
ATOM      6  N   UNL     1       0.261   9.564  20.187  0.00  0.00    +0.000 N 
ATOM      7  C   UNL     1       1.078   8.461  20.715  0.00  0.00    +0.000 C 
ATOM      8  C   UNL     1       2.416   8.360  19.970  0.00  0.00    +0.000 C 
ENDROOT
BRANCH   6   9
ATOM      9  C   UNL     1      -0.106  10.613  21.005  0.00  0.00    +0.000 A 
ATOM     10  C   UNL     1      -0.946  10.383  22.108  0.00  0.00    +0.000 A 
ATOM     11  C   UNL     1      -1.338  11.416  22.968  0.00  0.00    +0.000 A 
ATOM     12  C   UNL     1      -0.897  12.718  22.739  0.00  0.00    +0.000 A 
ATOM     13  C   UNL     1      -0.074  12.979  21.646  0.00  0.00    +0.000 A 
ATOM     14  C   UNL     1       0.314  11.940  20.804  0.00  0.00    +0.000 A 
ATOM     15  F   UNL     1       1.154  12.239  19.796  0.00  0.00    +0.000 F 
BRANCH  12  16
ATOM     16  C   UNL     1      -1.290  13.778  23.615  0.00  0.00    +0.000 C 
ATOM     17  N   UNL     1      -1.608  14.637  24.327  0.00  0.00    +0.000 NA
ENDBRANCH  12  16
ENDBRANCH   6   9
BRANCH   1  22
ATOM     18  C   UNL     1       5.790   5.176  18.361  0.00  0.00    +0.000 A 
ATOM     19  C   UNL     1       5.187   3.938  18.518  0.00  0.00    +0.000 A 
ATOM     20  C   UNL     1       3.800   3.852  18.481  0.00  0.00    +0.000 A 
ATOM     21  C   UNL     1       2.986   4.995  18.335  0.00  0.00    +0.000 A 
ATOM     22  C   UNL     1       3.609   6.241  18.101  0.00  0.00    +0.000 A 
ATOM     23  C   UNL     1       5.018   6.319  18.140  0.00  0.00    +0.000 A 
BRANCH  18  25
ATOM     24  C   UNL     1       7.891   6.962  17.913  0.00  0.00    +0.000 C 
ATOM     25  S   UNL     1       7.557   5.295  18.412  0.00  0.00    +0.000 S 
ATOM     26  O   UNL     1       8.080   4.419  17.380  0.00  0.00    +0.000 OA
ATOM     27  O   UNL     1       7.944   5.129  19.799  0.00  0.00    +0.000 OA
ENDBRANCH  18  25
BRANCH  21  28
ATOM     28  O   UNL     1       1.610   4.884  18.429  0.00  0.00    +0.000 OA
BRANCH  28  29
ATOM     29  C   UNL     1       1.182   3.691  19.120  0.00  0.00    +0.000 C 
BRANCH  29  30
ATOM     30  C   UNL     1       1.047   3.904  20.597  0.00  0.00    +0.000 C 
ATOM     31  C   UNL     1       1.192   2.701  21.500  0.00  0.00    +0.000 C 
ATOM     32  C   UNL     1       2.240   3.774  21.517  0.00  0.00    +0.000 C 
ENDBRANCH  29  30
ENDBRANCH  28  29
ENDBRANCH  21  28
ENDBRANCH   1  22
TORSDOF 7
ENDMDL
MODEL 4
REMARK VINA RESULT:      -7.5      4.569      9.284
REMARK  Name = 
REMARK  8 active torsions:
REMARK  status: ('A' for Active; 'I' for Inactive)
REMARK    1  A    between atoms: C_1  and  S_2
REMARK    2  A    between atoms: S_2  and  C_5
REMARK    3  A    between atoms: C_8  and  O_9
REMARK    4  A    between atoms: O_9  and  C_10
REMARK    5  A    between atoms: C_10  and  C_11
REMARK    6  A    between atoms: C_14  and  C_15
REMARK    7  A    between atoms: N_20  and  C_21
REMARK    8  A    between atoms: C_24  and  C_25
REMARK                            x       y       z     vdW  Elec       q    Type
REMARK                         _______ _______ _______ _____ _____    ______ ____
ROOT
ATOM      1  C   UNL     1      -0.962  11.596  19.925  0.00  0.00    +0.000 C 
ATOM      2  O   UNL     1      -1.465  12.113  18.924  0.00  0.00    +0.000 OA
ATOM      3  N   UNL     1      -0.200  10.447  19.836  0.00  0.00    +0.000 N 
ATOM      4  C   UNL     1       0.160   9.918  18.509  0.00  0.00    +0.000 C 
ATOM      5  C   UNL     1       1.594   9.356  18.502  0.00  0.00    +0.000 C 
ATOM      6  N   UNL     1       1.813   8.432  19.630  0.00  0.00    +0.000 N 
ATOM      7  C   UNL     1       1.401   8.936  20.949  0.00  0.00    +0.000 C 
ATOM      8  C   UNL     1      -0.036   9.473  20.911  0.00  0.00    +0.000 C 
ENDROOT
BRANCH   6   9
ATOM      9  C   UNL     1       2.161   7.107  19.469  0.00  0.00    +0.000 A 
ATOM     10  C   UNL     1       1.753   6.153  20.418  0.00  0.00    +0.000 A 
ATOM     11  C   UNL     1       2.078   4.797  20.291  0.00  0.00    +0.000 A 
ATOM     12  C   UNL     1       2.830   4.359  19.202  0.00  0.00    +0.000 A 
ATOM     13  C   UNL     1       3.260   5.283  18.253  0.00  0.00    +0.000 A 
ATOM     14  C   UNL     1       2.922   6.627  18.387  0.00  0.00    +0.000 A 
ATOM     15  F   UNL     1       3.316   7.467  17.413  0.00  0.00    +0.000 F 
BRANCH  12  16
ATOM     16  C   UNL     1       3.162   2.975  19.064  0.00  0.00    +0.000 C 
ATOM     17  N   UNL     1       3.431   1.852  18.954  0.00  0.00    +0.000 NA
ENDBRANCH  12  16
ENDBRANCH   6   9
BRANCH   1  22
ATOM     18  C   UNL     1      -3.003  12.945  22.761  0.00  0.00    +0.000 A 
ATOM     19  C   UNL     1      -2.133  13.785  23.438  0.00  0.00    +0.000 A 
ATOM     20  C   UNL     1      -0.809  13.864  23.022  0.00  0.00    +0.000 A 
ATOM     21  C   UNL     1      -0.314  13.080  21.959  0.00  0.00    +0.000 A 
ATOM     22  C   UNL     1      -1.223  12.283  21.228  0.00  0.00    +0.000 A 
ATOM     23  C   UNL     1      -2.566  12.209  21.658  0.00  0.00    +0.000 A 
BRANCH  18  25
ATOM     24  C   UNL     1      -5.139  14.510  23.655  0.00  0.00    +0.000 C 
ATOM     25  S   UNL     1      -4.691  12.834  23.290  0.00  0.00    +0.000 S 
ATOM     26  O   UNL     1      -4.705  12.098  24.541  0.00  0.00    +0.000 OA
ATOM     27  O   UNL     1      -5.456  12.378  22.146  0.00  0.00    +0.000 OA
ENDBRANCH  18  25
BRANCH  21  28
ATOM     28  O   UNL     1       1.036  13.093  21.656  0.00  0.00    +0.000 OA
BRANCH  28  29
ATOM     29  C   UNL     1       1.495  14.371  21.167  0.00  0.00    +0.000 C 
BRANCH  29  30
ATOM     30  C   UNL     1       2.430  14.236  20.005  0.00  0.00    +0.000 C 
ATOM     31  C   UNL     1       2.234  13.063  19.073  0.00  0.00    +0.000 C 
ATOM     32  C   UNL     1       1.952  14.453  18.587  0.00  0.00    +0.000 C 
ENDBRANCH  29  30
ENDBRANCH  28  29
ENDBRANCH  21  28
ENDBRANCH   1  22
TORSDOF 7
ENDMDL
MODEL 5
REMARK VINA RESULT:      -7.5      1.888      3.905
REMARK  Name = 
REMARK  8 active torsions:
REMARK  status: ('A' for Active; 'I' for Inactive)
REMARK    1  A    between atoms: C_1  and  S_2
REMARK    2  A    between atoms: S_2  and  C_5
REMARK    3  A    between atoms: C_8  and  O_9
REMARK    4  A    between atoms: O_9  and  C_10
REMARK    5  A    between atoms: C_10  and  C_11
REMARK    6  A    between atoms: C_14  and  C_15
REMARK    7  A    between atoms: N_20  and  C_21
REMARK    8  A    between atoms: C_24  and  C_25
REMARK                            x       y       z     vdW  Elec       q    Type
REMARK                         _______ _______ _______ _____ _____    ______ ____
ROOT
ATOM      1  C   UNL     1       2.820   7.800  17.802  0.00  0.00    +0.000 C 
ATOM      2  O   UNL     1       2.971   8.146  16.626  0.00  0.00    +0.000 OA
ATOM      3  N   UNL     1       2.034   8.530  18.672  0.00  0.00    +0.000 N 
ATOM      4  C   UNL     1       1.227   9.648  18.154  0.00  0.00    +0.000 C 
ATOM      5  C   UNL     1      -0.143   9.719  18.856  0.00  0.00    +0.000 C 
ATOM      6  N   UNL     1       0.004   9.673  20.323  0.00  0.00    +0.000 N 
ATOM      7  C   UNL     1       0.856   8.591  20.839  0.00  0.00    +0.000 C 
ATOM      8  C   UNL     1       2.212   8.567  20.120  0.00  0.00    +0.000 C 
ENDROOT
BRANCH   6   9
ATOM      9  C   UNL     1      -0.424  10.682  21.160  0.00  0.00    +0.000 A 
ATOM     10  C   UNL     1      -0.400  12.017  20.720  0.00  0.00    +0.000 A 
ATOM     11  C   UNL     1      -0.830  13.072  21.534  0.00  0.00    +0.000 A 
ATOM     12  C   UNL     1      -1.296  12.814  22.822  0.00  0.00    +0.000 A 
ATOM     13  C   UNL     1      -1.318  11.503  23.291  0.00  0.00    +0.000 A 
ATOM     14  C   UNL     1      -0.895  10.463  22.468  0.00  0.00    +0.000 A 
ATOM     15  F   UNL     1      -0.990   9.210  22.951  0.00  0.00    +0.000 F 
BRANCH  12  16
ATOM     16  C   UNL     1      -1.740  13.887  23.657  0.00  0.00    +0.000 C 
ATOM     17  N   UNL     1      -2.099  14.758  24.335  0.00  0.00    +0.000 NA
ENDBRANCH  12  16
ENDBRANCH   6   9
BRANCH   1  22
ATOM     18  C   UNL     1       5.717   5.464  18.232  0.00  0.00    +0.000 A 
ATOM     19  C   UNL     1       5.131   4.250  18.555  0.00  0.00    +0.000 A 
ATOM     20  C   UNL     1       3.753   4.189  18.726  0.00  0.00    +0.000 A 
ATOM     21  C   UNL     1       2.938   5.336  18.624  0.00  0.00    +0.000 A 
ATOM     22  C   UNL     1       3.533   6.553  18.222  0.00  0.00    +0.000 A 
ATOM     23  C   UNL     1       4.933   6.606  18.051  0.00  0.00    +0.000 A 
BRANCH  18  25
ATOM     24  C   UNL     1       7.780   7.259  17.656  0.00  0.00    +0.000 C 
ATOM     25  S   UNL     1       7.474   5.551  18.019  0.00  0.00    +0.000 S 
ATOM     26  O   UNL     1       7.804   4.788  16.828  0.00  0.00    +0.000 OA
ATOM     27  O   UNL     1       8.065   5.226  19.302  0.00  0.00    +0.000 OA
ENDBRANCH  18  25
BRANCH  21  28
ATOM     28  O   UNL     1       1.590   5.260  18.924  0.00  0.00    +0.000 OA
BRANCH  28  29
ATOM     29  C   UNL     1       1.333   4.922  20.304  0.00  0.00    +0.000 C 
BRANCH  29  30
ATOM     30  C   UNL     1       0.667   3.589  20.453  0.00  0.00    +0.000 C 
ATOM     31  C   UNL     1       0.808   2.600  19.319  0.00  0.00    +0.000 C 
ATOM     32  C   UNL     1       1.479   2.326  20.632  0.00  0.00    +0.000 C 
ENDBRANCH  29  30
ENDBRANCH  28  29
ENDBRANCH  21  28
ENDBRANCH   1  22
TORSDOF 7
ENDMDL
MODEL 6
REMARK VINA RESULT:      -7.4      5.312      9.700
REMARK  Name = 
REMARK  8 active torsions:
REMARK  status: ('A' for Active; 'I' for Inactive)
REMARK    1  A    between atoms: C_1  and  S_2
REMARK    2  A    between atoms: S_2  and  C_5
REMARK    3  A    between atoms: C_8  and  O_9
REMARK    4  A    between atoms: O_9  and  C_10
REMARK    5  A    between atoms: C_10  and  C_11
REMARK    6  A    between atoms: C_14  and  C_15
REMARK    7  A    between atoms: N_20  and  C_21
REMARK    8  A    between atoms: C_24  and  C_25
REMARK                            x       y       z     vdW  Elec       q    Type
REMARK                         _______ _______ _______ _____ _____    ______ ____
ROOT
ATOM      1  C   UNL     1      -1.836  13.025  19.981  0.00  0.00    +0.000 C 
ATOM      2  O   UNL     1      -1.413  14.177  19.852  0.00  0.00    +0.000 OA
ATOM      3  N   UNL     1      -1.004  11.932  19.828  0.00  0.00    +0.000 N 
ATOM      4  C   UNL     1       0.445  12.141  19.672  0.00  0.00    +0.000 C 
ATOM      5  C   UNL     1       1.249  11.057  20.415  0.00  0.00    +0.000 C 
ATOM      6  N   UNL     1       0.767   9.705  20.075  0.00  0.00    +0.000 N 
ATOM      7  C   UNL     1      -0.687   9.510  20.175  0.00  0.00    +0.000 C 
ATOM      8  C   UNL     1      -1.445  10.604  19.411  0.00  0.00    +0.000 C 
ENDROOT
BRANCH   6   9
ATOM      9  C   UNL     1       1.560   8.742  19.487  0.00  0.00    +0.000 A 
ATOM     10  C   UNL     1       1.866   7.561  20.186  0.00  0.00    +0.000 A 
ATOM     11  C   UNL     1       2.662   6.555  19.625  0.00  0.00    +0.000 A 
ATOM     12  C   UNL     1       3.179   6.709  18.340  0.00  0.00    +0.000 A 
ATOM     13  C   UNL     1       2.904   7.874  17.628  0.00  0.00    +0.000 A 
ATOM     14  C   UNL     1       2.104   8.863  18.195  0.00  0.00    +0.000 A 
ATOM     15  F   UNL     1       1.825   9.943  17.442  0.00  0.00    +0.000 F 
BRANCH  12  16
ATOM     16  C   UNL     1       3.989   5.684  17.760  0.00  0.00    +0.000 C 
ATOM     17  N   UNL     1       4.647   4.851  17.291  0.00  0.00    +0.000 NA
ENDBRANCH  12  16
ENDBRANCH   6   9
BRANCH   1  22
ATOM     18  C   UNL     1      -4.871  12.849  22.169  0.00  0.00    +0.000 A 
ATOM     19  C   UNL     1      -5.856  12.331  21.344  0.00  0.00    +0.000 A 
ATOM     20  C   UNL     1      -5.565  12.103  20.004  0.00  0.00    +0.000 A 
ATOM     21  C   UNL     1      -4.309  12.426  19.449  0.00  0.00    +0.000 A 
ATOM     22  C   UNL     1      -3.288  12.884  20.312  0.00  0.00    +0.000 A 
ATOM     23  C   UNL     1      -3.593  13.112  21.671  0.00  0.00    +0.000 A 
BRANCH  18  25
ATOM     24  C   UNL     1      -6.998  13.339  23.913  0.00  0.00    +0.000 C 
ATOM     25  S   UNL     1      -5.237  13.148  23.877  0.00  0.00    +0.000 S 
ATOM     26  O   UNL     1      -4.654  14.432  24.226  0.00  0.00    +0.000 OA
ATOM     27  O   UNL     1      -4.875  11.944  24.597  0.00  0.00    +0.000 OA
ENDBRANCH  18  25
BRANCH  21  28
ATOM     28  O   UNL     1      -4.098  12.302  18.088  0.00  0.00    +0.000 OA
BRANCH  28  29
ATOM     29  C   UNL     1      -4.754  11.150  17.514  0.00  0.00    +0.000 C 
BRANCH  29  30
ATOM     30  C   UNL     1      -4.136  10.729  16.216  0.00  0.00    +0.000 C 
ATOM     31  C   UNL     1      -2.716  11.161  15.937  0.00  0.00    +0.000 C 
ATOM     32  C   UNL     1      -3.018   9.711  16.176  0.00  0.00    +0.000 C 
ENDBRANCH  29  30
ENDBRANCH  28  29
ENDBRANCH  21  28
ENDBRANCH   1  22
TORSDOF 7
ENDMDL
MODEL 7
REMARK VINA RESULT:      -7.4      4.431      9.151
REMARK  Name = 
REMARK  8 active torsions:
REMARK  status: ('A' for Active; 'I' for Inactive)
REMARK    1  A    between atoms: C_1  and  S_2
REMARK    2  A    between atoms: S_2  and  C_5
REMARK    3  A    between atoms: C_8  and  O_9
REMARK    4  A    between atoms: O_9  and  C_10
REMARK    5  A    between atoms: C_10  and  C_11
REMARK    6  A    between atoms: C_14  and  C_15
REMARK    7  A    between atoms: N_20  and  C_21
REMARK    8  A    between atoms: C_24  and  C_25
REMARK                            x       y       z     vdW  Elec       q    Type
REMARK                         _______ _______ _______ _____ _____    ______ ____
ROOT
ATOM      1  C   UNL     1      -1.044  11.621  19.853  0.00  0.00    +0.000 C 
ATOM      2  O   UNL     1      -1.591  12.154  18.883  0.00  0.00    +0.000 OA
ATOM      3  N   UNL     1      -0.250  10.500  19.705  0.00  0.00    +0.000 N 
ATOM      4  C   UNL     1       0.089  10.026  18.352  0.00  0.00    +0.000 C 
ATOM      5  C   UNL     1       1.539   9.511  18.288  0.00  0.00    +0.000 C 
ATOM      6  N   UNL     1       1.818   8.558  19.379  0.00  0.00    +0.000 N 
ATOM      7  C   UNL     1       1.428   9.006  20.724  0.00  0.00    +0.000 C 
ATOM      8  C   UNL     1      -0.026   9.498  20.742  0.00  0.00    +0.000 C 
ENDROOT
BRANCH   6   9
ATOM      9  C   UNL     1       2.202   7.250  19.164  0.00  0.00    +0.000 A 
ATOM     10  C   UNL     1       2.974   6.921  18.036  0.00  0.00    +0.000 A 
ATOM     11  C   UNL     1       3.391   5.609  17.782  0.00  0.00    +0.000 A 
ATOM     12  C   UNL     1       3.039   4.583  18.659  0.00  0.00    +0.000 A 
ATOM     13  C   UNL     1       2.263   4.877  19.777  0.00  0.00    +0.000 A 
ATOM     14  C   UNL     1       1.862   6.188  20.021  0.00  0.00    +0.000 A 
ATOM     15  F   UNL     1       1.161   6.423  21.146  0.00  0.00    +0.000 F 
BRANCH  12  16
ATOM     16  C   UNL     1       3.465   3.242  18.407  0.00  0.00    +0.000 C 
ATOM     17  N   UNL     1       3.812   2.153  18.205  0.00  0.00    +0.000 NA
ENDBRANCH  12  16
ENDBRANCH   6   9
BRANCH   1  22
ATOM     18  C   UNL     1      -3.056  12.920  22.732  0.00  0.00    +0.000 A 
ATOM     19  C   UNL     1      -2.159  13.691  23.455  0.00  0.00    +0.000 A 
ATOM     20  C   UNL     1      -0.829  13.734  23.054  0.00  0.00    +0.000 A 
ATOM     21  C   UNL     1      -0.356  12.980  21.960  0.00  0.00    +0.000 A 
ATOM     22  C   UNL     1      -1.290  12.256  21.185  0.00  0.00    +0.000 A 
ATOM     23  C   UNL     1      -2.638  12.218  21.600  0.00  0.00    +0.000 A 
BRANCH  18  25
ATOM     24  C   UNL     1      -5.174  14.548  23.552  0.00  0.00    +0.000 C 
ATOM     25  S   UNL     1      -4.753  12.855  23.242  0.00  0.00    +0.000 S 
ATOM     26  O   UNL     1      -4.796  12.156  24.514  0.00  0.00    +0.000 OA
ATOM     27  O   UNL     1      -5.511  12.379  22.102  0.00  0.00    +0.000 OA
ENDBRANCH  18  25
BRANCH  21  28
ATOM     28  O   UNL     1       0.996  12.951  21.668  0.00  0.00    +0.000 OA
BRANCH  28  29
ATOM     29  C   UNL     1       1.380  13.910  20.659  0.00  0.00    +0.000 C 
BRANCH  29  30
ATOM     30  C   UNL     1       2.320  13.330  19.647  0.00  0.00    +0.000 C 
ATOM     31  C   UNL     1       1.880  13.316  18.201  0.00  0.00    +0.000 C 
ATOM     32  C   UNL     1       3.008  14.208  18.626  0.00  0.00    +0.000 C 
ENDBRANCH  29  30
ENDBRANCH  28  29
ENDBRANCH  21  28
ENDBRANCH   1  22
TORSDOF 7
ENDMDL
MODEL 8
REMARK VINA RESULT:      -7.3      1.172      1.493
REMARK  Name = 
REMARK  8 active torsions:
REMARK  status: ('A' for Active; 'I' for Inactive)
REMARK    1  A    between atoms: C_1  and  S_2
REMARK    2  A    between atoms: S_2  and  C_5
REMARK    3  A    between atoms: C_8  and  O_9
REMARK    4  A    between atoms: O_9  and  C_10
REMARK    5  A    between atoms: C_10  and  C_11
REMARK    6  A    between atoms: C_14  and  C_15
REMARK    7  A    between atoms: N_20  and  C_21
REMARK    8  A    between atoms: C_24  and  C_25
REMARK                            x       y       z     vdW  Elec       q    Type
REMARK                         _______ _______ _______ _____ _____    ______ ____
ROOT
ATOM      1  C   UNL     1       2.879   7.764  17.855  0.00  0.00    +0.000 C 
ATOM      2  O   UNL     1       3.212   8.155  16.733  0.00  0.00    +0.000 OA
ATOM      3  N   UNL     1       2.018   8.500  18.647  0.00  0.00    +0.000 N 
ATOM      4  C   UNL     1       1.353   9.687  18.085  0.00  0.00    +0.000 C 
ATOM      5  C   UNL     1      -0.096   9.809  18.593  0.00  0.00    +0.000 C 
ATOM      6  N   UNL     1      -0.161   9.685  20.062  0.00  0.00    +0.000 N 
ATOM      7  C   UNL     1       0.551   8.530  20.630  0.00  0.00    +0.000 C 
ATOM      8  C   UNL     1       1.992   8.458  20.106  0.00  0.00    +0.000 C 
ENDROOT
BRANCH   6   9
ATOM      9  C   UNL     1      -0.648  10.678  20.886  0.00  0.00    +0.000 A 
ATOM     10  C   UNL     1      -0.613  10.512  22.282  0.00  0.00    +0.000 A 
ATOM     11  C   UNL     1      -1.091  11.496  23.156  0.00  0.00    +0.000 A 
ATOM     12  C   UNL     1      -1.622  12.681  22.649  0.00  0.00    +0.000 A 
ATOM     13  C   UNL     1      -1.682  12.868  21.271  0.00  0.00    +0.000 A 
ATOM     14  C   UNL     1      -1.196  11.884  20.413  0.00  0.00    +0.000 A 
ATOM     15  F   UNL     1      -1.228  12.141  19.092  0.00  0.00    +0.000 F 
BRANCH  12  16
ATOM     16  C   UNL     1      -2.107  13.691  23.537  0.00  0.00    +0.000 C 
ATOM     17  N   UNL     1      -2.500  14.512  24.257  0.00  0.00    +0.000 NA
ENDBRANCH  12  16
ENDBRANCH   6   9
BRANCH   1  22
ATOM     18  C   UNL     1       2.945   4.423  19.547  0.00  0.00    +0.000 A 
ATOM     19  C   UNL     1       4.290   4.091  19.592  0.00  0.00    +0.000 A 
ATOM     20  C   UNL     1       5.215   4.930  18.982  0.00  0.00    +0.000 A 
ATOM     21  C   UNL     1       4.820   6.088  18.279  0.00  0.00    +0.000 A 
ATOM     22  C   UNL     1       3.457   6.458  18.301  0.00  0.00    +0.000 A 
ATOM     23  C   UNL     1       2.525   5.600  18.922  0.00  0.00    +0.000 A 
BRANCH  18  25
ATOM     24  C   UNL     1       1.578   2.016  19.169  0.00  0.00    +0.000 C 
ATOM     25  S   UNL     1       1.759   3.354  20.316  0.00  0.00    +0.000 S 
ATOM     26  O   UNL     1       0.495   4.067  20.355  0.00  0.00    +0.000 OA
ATOM     27  O   UNL     1       2.374   2.858  21.531  0.00  0.00    +0.000 OA
ENDBRANCH  18  25
BRANCH  21  28
ATOM     28  O   UNL     1       5.756   6.829  17.580  0.00  0.00    +0.000 OA
BRANCH  28  29
ATOM     29  C   UNL     1       6.566   6.029  16.693  0.00  0.00    +0.000 C 
BRANCH  29  30
ATOM     30  C   UNL     1       5.808   5.566  15.487  0.00  0.00    +0.000 C 
ATOM     31  C   UNL     1       6.558   4.774  14.442  0.00  0.00    +0.000 C 
ATOM     32  C   UNL     1       5.505   4.100  15.270  0.00  0.00    +0.000 C 
ENDBRANCH  29  30
ENDBRANCH  28  29
ENDBRANCH  21  28
ENDBRANCH   1  22
TORSDOF 7
ENDMDL
MODEL 9
REMARK VINA RESULT:      -7.3      5.250      9.628
REMARK  Name = 
REMARK  8 active torsions:
REMARK  status: ('A' for Active; 'I' for Inactive)
REMARK    1  A    between atoms: C_1  and  S_2
REMARK    2  A    between atoms: S_2  and  C_5
REMARK    3  A    between atoms: C_8  and  O_9
REMARK    4  A    between atoms: O_9  and  C_10
REMARK    5  A    between atoms: C_10  and  C_11
REMARK    6  A    between atoms: C_14  and  C_15
REMARK    7  A    between atoms: N_20  and  C_21
REMARK    8  A    between atoms: C_24  and  C_25
REMARK                            x       y       z     vdW  Elec       q    Type
REMARK                         _______ _______ _______ _____ _____    ______ ____
ROOT
ATOM      1  C   UNL     1      -2.030  12.993  20.085  0.00  0.00    +0.000 C 
ATOM      2  O   UNL     1      -1.618  14.157  20.074  0.00  0.00    +0.000 OA
ATOM      3  N   UNL     1      -1.173  11.925  19.901  0.00  0.00    +0.000 N 
ATOM      4  C   UNL     1       0.280  12.161  19.856  0.00  0.00    +0.000 C 
ATOM      5  C   UNL     1       1.051  11.031  20.562  0.00  0.00    +0.000 C 
ATOM      6  N   UNL     1       0.613   9.705  20.087  0.00  0.00    +0.000 N 
ATOM      7  C   UNL     1      -0.841   9.486  20.078  0.00  0.00    +0.000 C 
ATOM      8  C   UNL     1      -1.566  10.630  19.354  0.00  0.00    +0.000 C 
ENDROOT
BRANCH   6   9
ATOM      9  C   UNL     1       1.457   8.800  19.478  0.00  0.00    +0.000 A 
ATOM     10  C   UNL     1       1.960   9.064  18.192  0.00  0.00    +0.000 A 
ATOM     11  C   UNL     1       2.824   8.176  17.539  0.00  0.00    +0.000 A 
ATOM     12  C   UNL     1       3.207   6.990  18.162  0.00  0.00    +0.000 A 
ATOM     13  C   UNL     1       2.714   6.695  19.431  0.00  0.00    +0.000 A 
ATOM     14  C   UNL     1       1.862   7.590  20.072  0.00  0.00    +0.000 A 
ATOM     15  F   UNL     1       1.460   7.281  21.319  0.00  0.00    +0.000 F 
BRANCH  12  16
ATOM     16  C   UNL     1       4.092   6.081  17.502  0.00  0.00    +0.000 C 
ATOM     17  N   UNL     1       4.809   5.342  16.967  0.00  0.00    +0.000 NA
ENDBRANCH  12  16
ENDBRANCH   6   9
BRANCH   1  22
ATOM     18  C   UNL     1      -5.209  12.718  22.047  0.00  0.00    +0.000 A 
ATOM     19  C   UNL     1      -6.118  12.182  21.149  0.00  0.00    +0.000 A 
ATOM     20  C   UNL     1      -5.726  11.973  19.832  0.00  0.00    +0.000 A 
ATOM     21  C   UNL     1      -4.442  12.334  19.372  0.00  0.00    +0.000 A 
ATOM     22  C   UNL     1      -3.498  12.811  20.309  0.00  0.00    +0.000 A 
ATOM     23  C   UNL     1      -3.906  13.020  21.644  0.00  0.00    +0.000 A 
BRANCH  18  25
ATOM     24  C   UNL     1      -5.389  14.716  23.992  0.00  0.00    +0.000 C 
ATOM     25  S   UNL     1      -5.705  12.993  23.726  0.00  0.00    +0.000 S 
ATOM     26  O   UNL     1      -4.792  12.247  24.574  0.00  0.00    +0.000 OA
ATOM     27  O   UNL     1      -7.134  12.758  23.781  0.00  0.00    +0.000 OA
ENDBRANCH  18  25
BRANCH  21  28
ATOM     28  O   UNL     1      -4.130  12.228  18.028  0.00  0.00    +0.000 OA
BRANCH  28  29
ATOM     29  C   UNL     1      -4.693  11.052  17.406  0.00  0.00    +0.000 C 
BRANCH  29  30
ATOM     30  C   UNL     1      -4.091  10.772  16.064  0.00  0.00    +0.000 C 
ATOM     31  C   UNL     1      -2.645  11.155  15.844  0.00  0.00    +0.000 C 
ATOM     32  C   UNL     1      -3.032   9.706  15.888  0.00  0.00    +0.000 C 
ENDBRANCH  29  30
ENDBRANCH  28  29
ENDBRANCH  21  28
ENDBRANCH   1  22
TORSDOF 7
ENDMDL
