MODEL 1
REMARK VINA RESULT:      -7.9      0.000      0.000
REMARK  Name = 
REMARK  1 active torsions:
REMARK  status: ('A' for Active; 'I' for Inactive)
REMARK    1  A    between atoms: O_1  and  C_2
REMARK                            x       y       z     vdW  Elec       q    Type
REMARK                         _______ _______ _______ _____ _____    ______ ____
ROOT
ATOM      1  C   UNL     1       1.342  10.108  18.514  0.00  0.00    +0.000 A 
ATOM      2  N   UNL     1       0.578  11.022  19.047  0.00  0.00    +0.000 NA
ATOM      3  C   UNL     1       0.234  10.509  20.253  0.00  0.00    +0.000 A 
ATOM      4  C   UNL     1       0.798   9.259  20.460  0.00  0.00    +0.000 A 
ATOM      5  N   UNL     1       1.531   8.972  19.300  0.00  0.00    +0.000 N 
ATOM      6  C   UNL     1       2.321   7.853  18.929  0.00  0.00    +0.000 A 
ATOM      7  N   UNL     1       2.501   6.792  19.710  0.00  0.00    +0.000 NA
ATOM      8  C   UNL     1       3.414   6.006  19.019  0.00  0.00    +0.000 A 
ATOM      9  C   UNL     1       4.071   4.812  19.379  0.00  0.00    +0.000 A 
ATOM     10  C   UNL     1       5.052   4.289  18.518  0.00  0.00    +0.000 A 
ATOM     11  C   UNL     1       5.290   4.864  17.264  0.00  0.00    +0.000 A 
ATOM     12  C   UNL     1       4.608   6.032  16.886  0.00  0.00    +0.000 A 
ATOM     13  F   UNL     1       4.879   6.593  15.699  0.00  0.00    +0.000 F 
ATOM     14  C   UNL     1       3.714   6.582  17.800  0.00  0.00    +0.000 A 
ATOM     15  O   UNL     1       3.007   7.753  17.725  0.00  0.00    +0.000 OA
ATOM     16  C   UNL     1       0.639   8.483  21.724  0.00  0.00    +0.000 C 
ATOM     17  C   UNL     1      -0.519   9.080  22.577  0.00  0.00    +0.000 C 
ATOM     18  C   UNL     1      -0.516  10.623  22.621  0.00  0.00    +0.000 C 
ATOM     19  C   UNL     1      -0.654  11.219  21.214  0.00  0.00    +0.000 C 
ENDROOT
BRANCH   1  20
ATOM     20  O   UNL     1       1.871  10.317  17.320  0.00  0.00    +0.000 OA
ATOM     21  H   UNL     1       1.334  11.066  17.015  0.00  0.00    +0.000 HD
ENDBRANCH   1  20
TORSDOF 1
ENDMDL
MODEL 2
REMARK VINA RESULT:      -7.7      5.171      7.784
REMARK  Name = 
REMARK  1 active torsions:
REMARK  status: ('A' for Active; 'I' for Inactive)
REMARK    1  A    between atoms: O_1  and  C_2
REMARK                            x       y       z     vdW  Elec       q    Type
REMARK                         _______ _______ _______ _____ _____    ______ ____
ROOT
ATOM      1  C   UNL     1       6.541   5.715  16.852  0.00  0.00    +0.000 A 
ATOM      2  N   UNL     1       7.427   6.002  15.937  0.00  0.00    +0.000 NA
ATOM      3  C   UNL     1       7.061   5.251  14.871  0.00  0.00    +0.000 A 
ATOM      4  C   UNL     1       5.932   4.492  15.139  0.00  0.00    +0.000 A 
ATOM      5  N   UNL     1       5.581   4.781  16.465  0.00  0.00    +0.000 N 
ATOM      6  C   UNL     1       4.522   4.319  17.289  0.00  0.00    +0.000 A 
ATOM      7  N   UNL     1       3.608   3.443  16.884  0.00  0.00    +0.000 NA
ATOM      8  C   UNL     1       2.714   3.361  17.945  0.00  0.00    +0.000 A 
ATOM      9  C   UNL     1       1.487   2.680  18.075  0.00  0.00    +0.000 A 
ATOM     10  C   UNL     1       0.722   2.874  19.239  0.00  0.00    +0.000 A 
ATOM     11  C   UNL     1       1.219   3.625  20.311  0.00  0.00    +0.000 A 
ATOM     12  C   UNL     1       2.461   4.272  20.199  0.00  0.00    +0.000 A 
ATOM     13  F   UNL     1       2.902   5.022  21.219  0.00  0.00    +0.000 F 
ATOM     14  C   UNL     1       3.150   4.143  18.997  0.00  0.00    +0.000 A 
ATOM     15  O   UNL     1       4.314   4.744  18.595  0.00  0.00    +0.000 OA
ATOM     16  C   UNL     1       5.271   3.614  14.129  0.00  0.00    +0.000 C 
ATOM     17  C   UNL     1       6.218   3.388  12.914  0.00  0.00    +0.000 C 
ATOM     18  C   UNL     1       6.944   4.670  12.455  0.00  0.00    +0.000 C 
ATOM     19  C   UNL     1       7.807   5.253  13.582  0.00  0.00    +0.000 C 
ENDROOT
BRANCH   1  20
ATOM     20  O   UNL     1       6.605   6.312  18.030  0.00  0.00    +0.000 OA
ATOM     21  H   UNL     1       7.444   5.955  18.366  0.00  0.00    +0.000 HD
ENDBRANCH   1  20
TORSDOF 1
ENDMDL
MODEL 3
REMARK VINA RESULT:      -7.5      4.743      6.281
REMARK  Name = 
REMARK  1 active torsions:
REMARK  status: ('A' for Active; 'I' for Inactive)
REMARK    1  A    between atoms: O_1  and  C_2
REMARK                            x       y       z     vdW  Elec       q    Type
REMARK                         _______ _______ _______ _____ _____    ______ ____
ROOT
ATOM      1  C   UNL     1       5.622   5.652  18.221  0.00  0.00    +0.000 A 
ATOM      2  N   UNL     1       5.036   5.672  19.387  0.00  0.00    +0.000 NA
ATOM      3  C   UNL     1       3.922   4.921  19.214  0.00  0.00    +0.000 A 
ATOM      4  C   UNL     1       3.827   4.434  17.919  0.00  0.00    +0.000 A 
ATOM      5  N   UNL     1       4.950   4.925  17.240  0.00  0.00    +0.000 N 
ATOM      6  C   UNL     1       5.397   4.764  15.903  0.00  0.00    +0.000 A 
ATOM      7  N   UNL     1       4.744   4.045  14.994  0.00  0.00    +0.000 NA
ATOM      8  C   UNL     1       5.575   4.060  13.880  0.00  0.00    +0.000 A 
ATOM      9  C   UNL     1       5.479   3.395  12.642  0.00  0.00    +0.000 A 
ATOM     10  C   UNL     1       6.543   3.502  11.729  0.00  0.00    +0.000 A 
ATOM     11  C   UNL     1       7.624   4.354  11.980  0.00  0.00    +0.000 A 
ATOM     12  C   UNL     1       7.703   5.050  13.197  0.00  0.00    +0.000 A 
ATOM     13  F   UNL     1       8.766   5.829  13.439  0.00  0.00    +0.000 F 
ATOM     14  C   UNL     1       6.684   4.848  14.123  0.00  0.00    +0.000 A 
ATOM     15  O   UNL     1       6.570   5.316  15.405  0.00  0.00    +0.000 OA
ATOM     16  C   UNL     1       2.733   3.529  17.458  0.00  0.00    +0.000 C 
ATOM     17  C   UNL     1       1.565   3.534  18.488  0.00  0.00    +0.000 C 
ATOM     18  C   UNL     1       2.039   3.475  19.955  0.00  0.00    +0.000 C 
ATOM     19  C   UNL     1       2.932   4.675  20.298  0.00  0.00    +0.000 C 
ENDROOT
BRANCH   1  20
ATOM     20  O   UNL     1       6.772   6.286  18.059  0.00  0.00    +0.000 OA
ATOM     21  H   UNL     1       7.396   5.606  18.361  0.00  0.00    +0.000 HD
ENDBRANCH   1  20
TORSDOF 1
ENDMDL
MODEL 4
REMARK VINA RESULT:      -7.4      2.478      6.274
REMARK  Name = 
REMARK  1 active torsions:
REMARK  status: ('A' for Active; 'I' for Inactive)
REMARK    1  A    between atoms: O_1  and  C_2
REMARK                            x       y       z     vdW  Elec       q    Type
REMARK                         _______ _______ _______ _____ _____    ______ ____
ROOT
ATOM      1  C   UNL     1       2.836   6.941  18.320  0.00  0.00    +0.000 A 
ATOM      2  N   UNL     1       3.329   5.839  17.823  0.00  0.00    +0.000 NA
ATOM      3  C   UNL     1       3.060   4.900  18.761  0.00  0.00    +0.000 A 
ATOM      4  C   UNL     1       2.390   5.438  19.850  0.00  0.00    +0.000 A 
ATOM      5  N   UNL     1       2.245   6.804  19.575  0.00  0.00    +0.000 N 
ATOM      6  C   UNL     1       1.644   7.862  20.306  0.00  0.00    +0.000 A 
ATOM      7  N   UNL     1       1.069   7.696  21.493  0.00  0.00    +0.000 NA
ATOM      8  C   UNL     1       0.522   8.939  21.788  0.00  0.00    +0.000 A 
ATOM      9  C   UNL     1      -0.296   9.364  22.854  0.00  0.00    +0.000 A 
ATOM     10  C   UNL     1      -0.811  10.673  22.836  0.00  0.00    +0.000 A 
ATOM     11  C   UNL     1      -0.422  11.586  21.849  0.00  0.00    +0.000 A 
ATOM     12  C   UNL     1       0.425  11.176  20.806  0.00  0.00    +0.000 A 
ATOM     13  F   UNL     1       0.753  12.051  19.846  0.00  0.00    +0.000 F 
ATOM     14  C   UNL     1       0.840   9.847  20.797  0.00  0.00    +0.000 A 
ATOM     15  O   UNL     1       1.572   9.173  19.855  0.00  0.00    +0.000 OA
ATOM     16  C   UNL     1       1.915   4.625  21.009  0.00  0.00    +0.000 C 
ATOM     17  C   UNL     1       2.596   3.225  20.995  0.00  0.00    +0.000 C 
ATOM     18  C   UNL     1       2.663   2.589  19.591  0.00  0.00    +0.000 C 
ATOM     19  C   UNL     1       3.457   3.472  18.619  0.00  0.00    +0.000 C 
ENDROOT
BRANCH   1  20
ATOM     20  O   UNL     1       2.916   8.062  17.623  0.00  0.00    +0.000 OA
ATOM     21  H   UNL     1       3.221   7.719  16.767  0.00  0.00    +0.000 HD
ENDBRANCH   1  20
TORSDOF 1
ENDMDL
MODEL 5
REMARK VINA RESULT:      -7.3      2.628      6.872
REMARK  Name = 
REMARK  1 active torsions:
REMARK  status: ('A' for Active; 'I' for Inactive)
REMARK    1  A    between atoms: O_1  and  C_2
REMARK                            x       y       z     vdW  Elec       q    Type
REMARK                         _______ _______ _______ _____ _____    ______ ____
ROOT
ATOM      1  C   UNL     1       3.051   5.233  20.115  0.00  0.00    +0.000 A 
ATOM      2  N   UNL     1       3.887   4.347  19.646  0.00  0.00    +0.000 NA
ATOM      3  C   UNL     1       4.375   4.915  18.517  0.00  0.00    +0.000 A 
ATOM      4  C   UNL     1       3.827   6.169  18.293  0.00  0.00    +0.000 A 
ATOM      5  N   UNL     1       2.930   6.389  19.347  0.00  0.00    +0.000 N 
ATOM      6  C   UNL     1       2.084   7.485  19.660  0.00  0.00    +0.000 A 
ATOM      7  N   UNL     1       2.007   8.586  18.918  0.00  0.00    +0.000 NA
ATOM      8  C   UNL     1       1.166   9.428  19.635  0.00  0.00    +0.000 A 
ATOM      9  C   UNL     1       0.785  10.766  19.416  0.00  0.00    +0.000 A 
ATOM     10  C   UNL     1       0.002  11.418  20.386  0.00  0.00    +0.000 A 
ATOM     11  C   UNL     1      -0.502  10.722  21.491  0.00  0.00    +0.000 A 
ATOM     12  C   UNL     1      -0.156   9.376  21.691  0.00  0.00    +0.000 A 
ATOM     13  F   UNL     1      -0.613   8.737  22.777  0.00  0.00    +0.000 F 
ATOM     14  C   UNL     1       0.700   8.785  20.767  0.00  0.00    +0.000 A 
ATOM     15  O   UNL     1       1.267   7.538  20.782  0.00  0.00    +0.000 OA
ATOM     16  C   UNL     1       4.224   7.049  17.155  0.00  0.00    +0.000 C 
ATOM     17  C   UNL     1       5.014   6.229  16.093  0.00  0.00    +0.000 C 
ATOM     18  C   UNL     1       6.047   5.263  16.709  0.00  0.00    +0.000 C 
ATOM     19  C   UNL     1       5.371   4.244  17.636  0.00  0.00    +0.000 C 
ENDROOT
BRANCH   1  20
ATOM     20  O   UNL     1       2.410   4.988  21.246  0.00  0.00    +0.000 OA
ATOM     21  H   UNL     1       3.003   4.333  21.650  0.00  0.00    +0.000 HD
ENDBRANCH   1  20
TORSDOF 1
ENDMDL
MODEL 6
REMARK VINA RESULT:      -7.3      2.622      6.413
REMARK  Name = 
REMARK  1 active torsions:
REMARK  status: ('A' for Active; 'I' for Inactive)
REMARK    1  A    between atoms: O_1  and  C_2
REMARK                            x       y       z     vdW  Elec       q    Type
REMARK                         _______ _______ _______ _____ _____    ______ ____
ROOT
ATOM      1  C   UNL     1       2.214   8.749  18.011  0.00  0.00    +0.000 A 
ATOM      2  N   UNL     1       2.838   7.821  17.338  0.00  0.00    +0.000 NA
ATOM      3  C   UNL     1       2.842   6.751  18.169  0.00  0.00    +0.000 A 
ATOM      4  C   UNL     1       2.209   7.031  19.370  0.00  0.00    +0.000 A 
ATOM      5  N   UNL     1       1.795   8.367  19.284  0.00  0.00    +0.000 N 
ATOM      6  C   UNL     1       1.099   9.206  20.193  0.00  0.00    +0.000 A 
ATOM      7  N   UNL     1       0.692   8.807  21.394  0.00  0.00    +0.000 NA
ATOM      8  C   UNL     1      -0.031   9.885  21.890  0.00  0.00    +0.000 A 
ATOM      9  C   UNL     1      -0.792  10.029  23.067  0.00  0.00    +0.000 A 
ATOM     10  C   UNL     1      -1.529  11.211  23.259  0.00  0.00    +0.000 A 
ATOM     11  C   UNL     1      -1.416  12.284  22.367  0.00  0.00    +0.000 A 
ATOM     12  C   UNL     1      -0.627  12.157  21.212  0.00  0.00    +0.000 A 
ATOM     13  F   UNL     1      -0.564  13.178  20.346  0.00  0.00    +0.000 F 
ATOM     14  C   UNL     1       0.013  10.939  20.998  0.00  0.00    +0.000 A 
ATOM     15  O   UNL     1       0.748  10.522  19.920  0.00  0.00    +0.000 OA
ATOM     16  C   UNL     1       2.012   6.022  20.452  0.00  0.00    +0.000 C 
ATOM     17  C   UNL     1       2.924   4.785  20.203  0.00  0.00    +0.000 C 
ATOM     18  C   UNL     1       2.952   4.330  18.729  0.00  0.00    +0.000 C 
ATOM     19  C   UNL     1       3.468   5.448  17.813  0.00  0.00    +0.000 C 
ENDROOT
BRANCH   1  20
ATOM     20  O   UNL     1       2.020   9.935  17.458  0.00  0.00    +0.000 OA
ATOM     21  H   UNL     1       2.697  10.459  17.916  0.00  0.00    +0.000 HD
ENDBRANCH   1  20
TORSDOF 1
ENDMDL
MODEL 7
REMARK VINA RESULT:      -7.2      2.500      7.001
REMARK  Name = 
REMARK  1 active torsions:
REMARK  status: ('A' for Active; 'I' for Inactive)
REMARK    1  A    between atoms: O_1  and  C_2
REMARK                            x       y       z     vdW  Elec       q    Type
REMARK                         _______ _______ _______ _____ _____    ______ ____
ROOT
ATOM      1  C   UNL     1       4.010   5.054  19.277  0.00  0.00    +0.000 A 
ATOM      2  N   UNL     1       4.875   4.177  18.844  0.00  0.00    +0.000 NA
ATOM      3  C   UNL     1       5.250   4.650  17.630  0.00  0.00    +0.000 A 
ATOM      4  C   UNL     1       4.602   5.835  17.318  0.00  0.00    +0.000 A 
ATOM      5  N   UNL     1       3.760   6.111  18.404  0.00  0.00    +0.000 N 
ATOM      6  C   UNL     1       2.862   7.179  18.661  0.00  0.00    +0.000 A 
ATOM      7  N   UNL     1       2.660   8.186  17.818  0.00  0.00    +0.000 NA
ATOM      8  C   UNL     1       1.809   9.046  18.502  0.00  0.00    +0.000 A 
ATOM      9  C   UNL     1       1.322  10.326  18.174  0.00  0.00    +0.000 A 
ATOM     10  C   UNL     1       0.559  11.028  19.124  0.00  0.00    +0.000 A 
ATOM     11  C   UNL     1       0.176  10.425  20.328  0.00  0.00    +0.000 A 
ATOM     12  C   UNL     1       0.628   9.132  20.641  0.00  0.00    +0.000 A 
ATOM     13  F   UNL     1       0.287   8.586  21.816  0.00  0.00    +0.000 F 
ATOM     14  C   UNL     1       1.463   8.501  19.724  0.00  0.00    +0.000 A 
ATOM     15  O   UNL     1       2.115   7.300  19.827  0.00  0.00    +0.000 OA
ATOM     16  C   UNL     1       4.863   6.612  16.070  0.00  0.00    +0.000 C 
ATOM     17  C   UNL     1       5.639   5.734  15.045  0.00  0.00    +0.000 C 
ATOM     18  C   UNL     1       6.774   4.906  15.682  0.00  0.00    +0.000 C 
ATOM     19  C   UNL     1       6.232   3.953  16.755  0.00  0.00    +0.000 C 
ENDROOT
BRANCH   1  20
ATOM     20  O   UNL     1       3.462   4.892  20.469  0.00  0.00    +0.000 OA
ATOM     21  H   UNL     1       2.707   4.324  20.244  0.00  0.00    +0.000 HD
ENDBRANCH   1  20
TORSDOF 1
ENDMDL
MODEL 8
REMARK VINA RESULT:      -7.1      2.101      3.061
REMARK  Name = 
REMARK  1 active torsions:
REMARK  status: ('A' for Active; 'I' for Inactive)
REMARK    1  A    between atoms: O_1  and  C_2
REMARK                            x       y       z     vdW  Elec       q    Type
REMARK                         _______ _______ _______ _____ _____    ______ ____
ROOT
ATOM      1  C   UNL     1       1.640   7.242  20.648  0.00  0.00    +0.000 A 
ATOM      2  N   UNL     1       0.784   8.030  21.240  0.00  0.00    +0.000 NA
ATOM      3  C   UNL     1       0.713   9.114  20.430  0.00  0.00    +0.000 A 
ATOM      4  C   UNL     1       1.541   8.986  19.325  0.00  0.00    +0.000 A 
ATOM      5  N   UNL     1       2.176   7.745  19.464  0.00  0.00    +0.000 N 
ATOM      6  C   UNL     1       3.122   7.066  18.651  0.00  0.00    +0.000 A 
ATOM      7  N   UNL     1       3.600   7.562  17.514  0.00  0.00    +0.000 NA
ATOM      8  C   UNL     1       4.391   6.543  16.998  0.00  0.00    +0.000 A 
ATOM      9  C   UNL     1       5.076   6.430  15.772  0.00  0.00    +0.000 A 
ATOM     10  C   UNL     1       5.710   5.215  15.457  0.00  0.00    +0.000 A 
ATOM     11  C   UNL     1       5.776   4.174  16.391  0.00  0.00    +0.000 A 
ATOM     12  C   UNL     1       5.127   4.299  17.630  0.00  0.00    +0.000 A 
ATOM     13  F   UNL     1       5.165   3.276  18.495  0.00  0.00    +0.000 F 
ATOM     14  C   UNL     1       4.424   5.475  17.874  0.00  0.00    +0.000 A 
ATOM     15  O   UNL     1       3.632   5.807  18.942  0.00  0.00    +0.000 OA
ATOM     16  C   UNL     1       1.622  10.002  18.235  0.00  0.00    +0.000 C 
ATOM     17  C   UNL     1       0.969  11.337  18.698  0.00  0.00    +0.000 C 
ATOM     18  C   UNL     1      -0.357  11.140  19.462  0.00  0.00    +0.000 C 
ATOM     19  C   UNL     1      -0.150  10.292  20.724  0.00  0.00    +0.000 C 
ENDROOT
BRANCH   1  20
ATOM     20  O   UNL     1       1.919   6.066  21.183  0.00  0.00    +0.000 OA
ATOM     21  H   UNL     1       2.832   5.942  20.876  0.00  0.00    +0.000 HD
ENDBRANCH   1  20
TORSDOF 1
ENDMDL
MODEL 9
REMARK VINA RESULT:      -7.0      0.903      1.023
REMARK  Name = 
REMARK  1 active torsions:
REMARK  status: ('A' for Active; 'I' for Inactive)
REMARK    1  A    between atoms: O_1  and  C_2
REMARK                            x       y       z     vdW  Elec       q    Type
REMARK                         _______ _______ _______ _____ _____    ______ ____
ROOT
ATOM      1  C   UNL     1       1.491   9.597  18.697  0.00  0.00    +0.000 A 
ATOM      2  N   UNL     1       0.881  10.684  19.083  0.00  0.00    +0.000 NA
ATOM      3  C   UNL     1       0.401  10.378  20.313  0.00  0.00    +0.000 A 
ATOM      4  C   UNL     1       0.724   9.082  20.683  0.00  0.00    +0.000 A 
ATOM      5  N   UNL     1       1.442   8.543  19.607  0.00  0.00    +0.000 N 
ATOM      6  C   UNL     1       2.034   7.269  19.403  0.00  0.00    +0.000 A 
ATOM      7  N   UNL     1       1.989   6.289  20.300  0.00  0.00    +0.000 NA
ATOM      8  C   UNL     1       2.776   5.283  19.752  0.00  0.00    +0.000 A 
ATOM      9  C   UNL     1       3.193   4.043  20.275  0.00  0.00    +0.000 A 
ATOM     10  C   UNL     1       4.100   3.264  19.534  0.00  0.00    +0.000 A 
ATOM     11  C   UNL     1       4.489   3.643  18.244  0.00  0.00    +0.000 A 
ATOM     12  C   UNL     1       4.043   4.861  17.705  0.00  0.00    +0.000 A 
ATOM     13  F   UNL     1       4.459   5.228  16.485  0.00  0.00    +0.000 F 
ATOM     14  C   UNL     1       3.225   5.657  18.500  0.00  0.00    +0.000 A 
ATOM     15  O   UNL     1       2.741   6.916  18.261  0.00  0.00    +0.000 OA
ATOM     16  C   UNL     1       0.376   8.493  22.010  0.00  0.00    +0.000 C 
ATOM     17  C   UNL     1      -0.692   9.374  22.723  0.00  0.00    +0.000 C 
ATOM     18  C   UNL     1      -0.415  10.888  22.606  0.00  0.00    +0.000 C 
ATOM     19  C   UNL     1      -0.385  11.335  21.139  0.00  0.00    +0.000 C 
ENDROOT
BRANCH   1  20
ATOM     20  O   UNL     1       2.099   9.575  17.522  0.00  0.00    +0.000 OA
ATOM     21  H   UNL     1       2.911  10.065  17.731  0.00  0.00    +0.000 HD
ENDBRANCH   1  20
TORSDOF 1
ENDMDL
