MODEL 1
REMARK VINA RESULT:      -8.8      0.000      0.000
REMARK  Name = 
REMARK  7 active torsions:
REMARK  status: ('A' for Active; 'I' for Inactive)
REMARK    1  A    between atoms: C_1  and  C_2
REMARK    2  A    between atoms: C_5  and  C_6
REMARK    3  A    between atoms: N_8  and  C_9
REMARK    4  A    between atoms: C_13  and  C_14
REMARK    5  A    between atoms: C_14  and  N_15
REMARK    6  A    between atoms: C_18  and  C_19
REMARK    7  A    between atoms: N_21  and  C_22
REMARK                            x       y       z     vdW  Elec       q    Type
REMARK                         _______ _______ _______ _____ _____    ______ ____
ROOT
ATOM      1  C   UNL     1       0.431   9.799  19.670  0.00  0.00    +0.000 A 
ATOM      2  C   UNL     1       0.970  10.324  18.491  0.00  0.00    +0.000 A 
ATOM      3  C   UNL     1       1.963   9.645  17.793  0.00  0.00    +0.000 A 
ATOM      4  C   UNL     1       2.444   8.435  18.275  0.00  0.00    +0.000 A 
ATOM      5  C   UNL     1       1.953   7.903  19.477  0.00  0.00    +0.000 A 
ATOM      6  C   UNL     1       0.959   8.607  20.183  0.00  0.00    +0.000 A 
ENDROOT
BRANCH   1   9
ATOM      7  C   UNL     1      -0.497  11.396  21.321  0.00  0.00    +0.000 C 
ATOM      8  O   UNL     1       0.565  11.867  21.724  0.00  0.00    +0.000 OA
ATOM      9  N   UNL     1      -0.646  10.417  20.350  0.00  0.00    +0.000 N 
ATOM     10  H   UNL     1      -1.569  10.277  19.960  0.00  0.00    +0.000 HD
BRANCH   7  15
ATOM     11  C   UNL     1      -5.414  13.389  23.618  0.00  0.00    +0.000 C 
ATOM     12  C   UNL     1      -4.129  12.905  23.014  0.00  0.00    +0.000 A 
ATOM     13  C   UNL     1      -3.234  12.149  23.775  0.00  0.00    +0.000 A 
ATOM     14  C   UNL     1      -2.048  11.689  23.209  0.00  0.00    +0.000 A 
ATOM     15  C   UNL     1      -1.737  11.988  21.874  0.00  0.00    +0.000 A 
ATOM     16  C   UNL     1      -2.626  12.740  21.103  0.00  0.00    +0.000 A 
ATOM     17  C   UNL     1      -3.820  13.196  21.675  0.00  0.00    +0.000 A 
ENDBRANCH   7  15
ENDBRANCH   1   9
BRANCH   5  18
ATOM     18  C   UNL     1       2.525   6.602  20.003  0.00  0.00    +0.000 C 
BRANCH  18  19
ATOM     19  N   UNL     1       1.777   5.379  19.620  0.00  0.00    +0.000 NA
ATOM     20  C   UNL     1       1.782   5.217  18.153  0.00  0.00    +0.000 C 
ATOM     21  C   UNL     1       1.241   3.859  17.685  0.00  0.00    +0.000 C 
ATOM     22  C   UNL     1       1.946   2.681  18.367  0.00  0.00    +0.000 C 
ATOM     23  C   UNL     1       1.840   2.880  19.880  0.00  0.00    +0.000 C 
ATOM     24  C   UNL     1       2.402   4.235  20.308  0.00  0.00    +0.000 C 
BRANCH  22  25
ATOM     25  C   UNL     1       3.393   2.510  17.886  0.00  0.00    +0.000 C 
ATOM     26  O   UNL     1       4.053   1.498  18.092  0.00  0.00    +0.000 OA
ATOM     27  N   UNL     1       3.907   3.607  17.220  0.00  0.00    +0.000 N 
ATOM     28  H   UNL     1       3.411   4.485  17.300  0.00  0.00    +0.000 HD
BRANCH  27  29
ATOM     29  C   UNL     1       5.293   3.645  16.750  0.00  0.00    +0.000 C 
ATOM     30  C   UNL     1       5.412   4.401  15.421  0.00  0.00    +0.000 C 
ATOM     31  C   UNL     1       5.247   5.913  15.567  0.00  0.00    +0.000 C 
ATOM     32  C   UNL     1       6.166   6.490  16.640  0.00  0.00    +0.000 C 
ATOM     33  C   UNL     1       6.022   5.756  17.969  0.00  0.00    +0.000 C 
ATOM     34  C   UNL     1       6.229   4.252  17.806  0.00  0.00    +0.000 C 
ENDBRANCH  27  29
ENDBRANCH  22  25
ENDBRANCH  18  19
ENDBRANCH   5  18
TORSDOF 6
ENDMDL
MODEL 2
REMARK VINA RESULT:      -8.6      1.453      2.025
REMARK  Name = 
REMARK  7 active torsions:
REMARK  status: ('A' for Active; 'I' for Inactive)
REMARK    1  A    between atoms: C_1  and  C_2
REMARK    2  A    between atoms: C_5  and  C_6
REMARK    3  A    between atoms: N_8  and  C_9
REMARK    4  A    between atoms: C_13  and  C_14
REMARK    5  A    between atoms: C_14  and  N_15
REMARK    6  A    between atoms: C_18  and  C_19
REMARK    7  A    between atoms: N_21  and  C_22
REMARK                            x       y       z     vdW  Elec       q    Type
REMARK                         _______ _______ _______ _____ _____    ______ ____
ROOT
ATOM      1  C   UNL     1       1.127   8.007  20.236  0.00  0.00    +0.000 A 
ATOM      2  C   UNL     1       1.884   8.097  19.063  0.00  0.00    +0.000 A 
ATOM      3  C   UNL     1       2.690   7.044  18.648  0.00  0.00    +0.000 A 
ATOM      4  C   UNL     1       2.764   5.886  19.411  0.00  0.00    +0.000 A 
ATOM      5  C   UNL     1       2.049   5.781  20.614  0.00  0.00    +0.000 A 
ATOM      6  C   UNL     1       1.248   6.861  21.032  0.00  0.00    +0.000 A 
ENDROOT
BRANCH   1   9
ATOM      7  C   UNL     1       0.464   9.920  21.664  0.00  0.00    +0.000 C 
ATOM      8  O   UNL     1       1.473   9.971  22.366  0.00  0.00    +0.000 OA
ATOM      9  N   UNL     1       0.224   9.023  20.634  0.00  0.00    +0.000 N 
ATOM     10  H   UNL     1      -0.539   9.224  20.001  0.00  0.00    +0.000 HD
BRANCH   7  15
ATOM     11  C   UNL     1      -3.742  13.753  22.685  0.00  0.00    +0.000 C 
ATOM     12  C   UNL     1      -2.628  12.785  22.414  0.00  0.00    +0.000 A 
ATOM     13  C   UNL     1      -2.261  11.845  23.381  0.00  0.00    +0.000 A 
ATOM     14  C   UNL     1      -1.236  10.939  23.122  0.00  0.00    +0.000 A 
ATOM     15  C   UNL     1      -0.558  10.967  21.894  0.00  0.00    +0.000 A 
ATOM     16  C   UNL     1      -0.919  11.900  20.920  0.00  0.00    +0.000 A 
ATOM     17  C   UNL     1      -1.953  12.806  21.182  0.00  0.00    +0.000 A 
ENDBRANCH   7  15
ENDBRANCH   1   9
BRANCH   5  18
ATOM     18  C   UNL     1       2.180   4.524  21.449  0.00  0.00    +0.000 C 
BRANCH  18  19
ATOM     19  N   UNL     1       2.266   3.257  20.681  0.00  0.00    +0.000 NA
ATOM     20  C   UNL     1       1.318   3.282  19.550  0.00  0.00    +0.000 C 
ATOM     21  C   UNL     1       1.509   2.119  18.567  0.00  0.00    +0.000 C 
ATOM     22  C   UNL     1       2.953   2.005  18.066  0.00  0.00    +0.000 C 
ATOM     23  C   UNL     1       3.869   1.914  19.288  0.00  0.00    +0.000 C 
ATOM     24  C   UNL     1       3.661   3.096  20.235  0.00  0.00    +0.000 C 
BRANCH  22  25
ATOM     25  C   UNL     1       3.333   3.151  17.118  0.00  0.00    +0.000 C 
ATOM     26  O   UNL     1       2.507   3.802  16.488  0.00  0.00    +0.000 OA
ATOM     27  N   UNL     1       4.692   3.376  17.010  0.00  0.00    +0.000 N 
ATOM     28  H   UNL     1       5.320   2.659  17.352  0.00  0.00    +0.000 HD
BRANCH  27  29
ATOM     29  C   UNL     1       5.238   4.385  16.100  0.00  0.00    +0.000 C 
ATOM     30  C   UNL     1       4.994   5.804  16.628  0.00  0.00    +0.000 C 
ATOM     31  C   UNL     1       5.876   6.165  17.823  0.00  0.00    +0.000 C 
ATOM     32  C   UNL     1       7.354   5.903  17.547  0.00  0.00    +0.000 C 
ATOM     33  C   UNL     1       7.597   4.481  17.052  0.00  0.00    +0.000 C 
ATOM     34  C   UNL     1       6.733   4.154  15.835  0.00  0.00    +0.000 C 
ENDBRANCH  27  29
ENDBRANCH  22  25
ENDBRANCH  18  19
ENDBRANCH   5  18
TORSDOF 6
ENDMDL
MODEL 3
REMARK VINA RESULT:      -8.6      0.901      1.070
REMARK  Name = 
REMARK  7 active torsions:
REMARK  status: ('A' for Active; 'I' for Inactive)
REMARK    1  A    between atoms: C_1  and  C_2
REMARK    2  A    between atoms: C_5  and  C_6
REMARK    3  A    between atoms: N_8  and  C_9
REMARK    4  A    between atoms: C_13  and  C_14
REMARK    5  A    between atoms: C_14  and  N_15
REMARK    6  A    between atoms: C_18  and  C_19
REMARK    7  A    between atoms: N_21  and  C_22
REMARK                            x       y       z     vdW  Elec       q    Type
REMARK                         _______ _______ _______ _____ _____    ______ ____
ROOT
ATOM      1  C   UNL     1       0.675   9.826  19.930  0.00  0.00    +0.000 A 
ATOM      2  C   UNL     1       0.968  10.220  18.621  0.00  0.00    +0.000 A 
ATOM      3  C   UNL     1       1.742   9.419  17.787  0.00  0.00    +0.000 A 
ATOM      4  C   UNL     1       2.248   8.215  18.259  0.00  0.00    +0.000 A 
ATOM      5  C   UNL     1       2.007   7.812  19.581  0.00  0.00    +0.000 A 
ATOM      6  C   UNL     1       1.235   8.639  20.420  0.00  0.00    +0.000 A 
ENDROOT
BRANCH   1   9
ATOM      7  C   UNL     1       0.188  11.718  21.453  0.00  0.00    +0.000 C 
ATOM      8  O   UNL     1       1.297  12.250  21.430  0.00  0.00    +0.000 OA
ATOM      9  N   UNL     1      -0.187  10.571  20.770  0.00  0.00    +0.000 N 
ATOM     10  H   UNL     1      -1.175  10.365  20.702  0.00  0.00    +0.000 HD
BRANCH   7  15
ATOM     11  C   UNL     1      -3.670  14.565  24.682  0.00  0.00    +0.000 C 
ATOM     12  C   UNL     1      -2.694  13.819  23.820  0.00  0.00    +0.000 A 
ATOM     13  C   UNL     1      -1.540  14.453  23.353  0.00  0.00    +0.000 A 
ATOM     14  C   UNL     1      -0.630  13.755  22.565  0.00  0.00    +0.000 A 
ATOM     15  C   UNL     1      -0.865  12.414  22.226  0.00  0.00    +0.000 A 
ATOM     16  C   UNL     1      -2.014  11.770  22.691  0.00  0.00    +0.000 A 
ATOM     17  C   UNL     1      -2.926  12.474  23.487  0.00  0.00    +0.000 A 
ENDBRANCH   7  15
ENDBRANCH   1   9
BRANCH   5  18
ATOM     18  C   UNL     1       2.606   6.514  20.084  0.00  0.00    +0.000 C 
BRANCH  18  19
ATOM     19  N   UNL     1       1.852   5.287  19.728  0.00  0.00    +0.000 NA
ATOM     20  C   UNL     1       1.783   5.138  18.261  0.00  0.00    +0.000 C 
ATOM     21  C   UNL     1       1.231   3.779  17.810  0.00  0.00    +0.000 C 
ATOM     22  C   UNL     1       1.982   2.602  18.443  0.00  0.00    +0.000 C 
ATOM     23  C   UNL     1       1.953   2.787  19.961  0.00  0.00    +0.000 C 
ATOM     24  C   UNL     1       2.523   4.144  20.373  0.00  0.00    +0.000 C 
BRANCH  22  25
ATOM     25  C   UNL     1       3.405   2.451  17.886  0.00  0.00    +0.000 C 
ATOM     26  O   UNL     1       3.975   1.370  17.788  0.00  0.00    +0.000 OA
ATOM     27  N   UNL     1       4.007   3.642  17.526  0.00  0.00    +0.000 N 
ATOM     28  H   UNL     1       3.591   4.503  17.858  0.00  0.00    +0.000 HD
BRANCH  27  29
ATOM     29  C   UNL     1       5.386   3.693  17.039  0.00  0.00    +0.000 C 
ATOM     30  C   UNL     1       5.459   4.291  15.629  0.00  0.00    +0.000 C 
ATOM     31  C   UNL     1       5.218   5.800  15.598  0.00  0.00    +0.000 C 
ATOM     32  C   UNL     1       6.113   6.545  16.584  0.00  0.00    +0.000 C 
ATOM     33  C   UNL     1       6.015   5.968  17.991  0.00  0.00    +0.000 C 
ATOM     34  C   UNL     1       6.296   4.466  18.005  0.00  0.00    +0.000 C 
ENDBRANCH  27  29
ENDBRANCH  22  25
ENDBRANCH  18  19
ENDBRANCH   5  18
TORSDOF 6
ENDMDL
MODEL 4
REMARK VINA RESULT:      -8.4      2.459      3.308
REMARK  Name = 
REMARK  7 active torsions:
REMARK  status: ('A' for Active; 'I' for Inactive)
REMARK    1  A    between atoms: C_1  and  C_2
REMARK    2  A    between atoms: C_5  and  C_6
REMARK    3  A    between atoms: N_8  and  C_9
REMARK    4  A    between atoms: C_13  and  C_14
REMARK    5  A    between atoms: C_14  and  N_15
REMARK    6  A    between atoms: C_18  and  C_19
REMARK    7  A    between atoms: N_21  and  C_22
REMARK                            x       y       z     vdW  Elec       q    Type
REMARK                         _______ _______ _______ _____ _____    ______ ____
ROOT
ATOM      1  C   UNL     1       0.151  10.484  20.574  0.00  0.00    +0.000 A 
ATOM      2  C   UNL     1      -0.230   9.894  21.783  0.00  0.00    +0.000 A 
ATOM      3  C   UNL     1       0.234   8.634  22.144  0.00  0.00    +0.000 A 
ATOM      4  C   UNL     1       1.077   7.936  21.289  0.00  0.00    +0.000 A 
ATOM      5  C   UNL     1       1.444   8.483  20.050  0.00  0.00    +0.000 A 
ATOM      6  C   UNL     1       0.955   9.753  19.689  0.00  0.00    +0.000 A 
ENDROOT
BRANCH   1   9
ATOM      7  C   UNL     1       0.491  12.937  20.566  0.00  0.00    +0.000 C 
ATOM      8  O   UNL     1       1.540  12.970  21.208  0.00  0.00    +0.000 OA
ATOM      9  N   UNL     1      -0.226  11.802  20.222  0.00  0.00    +0.000 N 
ATOM     10  H   UNL     1      -0.944  11.895  19.516  0.00  0.00    +0.000 HD
BRANCH   7  15
ATOM     11  C   UNL     1      -1.136  18.120  18.588  0.00  0.00    +0.000 C 
ATOM     12  C   UNL     1      -0.745  16.762  19.091  0.00  0.00    +0.000 A 
ATOM     13  C   UNL     1       0.416  16.144  18.619  0.00  0.00    +0.000 A 
ATOM     14  C   UNL     1       0.784  14.890  19.097  0.00  0.00    +0.000 A 
ATOM     15  C   UNL     1      -0.009  14.232  20.048  0.00  0.00    +0.000 A 
ATOM     16  C   UNL     1      -1.170  14.841  20.529  0.00  0.00    +0.000 A 
ATOM     17  C   UNL     1      -1.535  16.105  20.049  0.00  0.00    +0.000 A 
ENDBRANCH   7  15
ENDBRANCH   1   9
BRANCH   5  18
ATOM     18  C   UNL     1       2.330   7.683  19.118  0.00  0.00    +0.000 C 
BRANCH  18  19
ATOM     19  N   UNL     1       2.171   6.210  19.198  0.00  0.00    +0.000 NA
ATOM     20  C   UNL     1       1.865   5.656  17.865  0.00  0.00    +0.000 C 
ATOM     21  C   UNL     1       1.921   4.124  17.811  0.00  0.00    +0.000 C 
ATOM     22  C   UNL     1       3.246   3.566  18.343  0.00  0.00    +0.000 C 
ATOM     23  C   UNL     1       3.461   4.125  19.751  0.00  0.00    +0.000 C 
ATOM     24  C   UNL     1       3.414   5.653  19.761  0.00  0.00    +0.000 C 
BRANCH  22  25
ATOM     25  C   UNL     1       4.421   3.855  17.399  0.00  0.00    +0.000 C 
ATOM     26  O   UNL     1       4.360   3.696  16.185  0.00  0.00    +0.000 OA
ATOM     27  N   UNL     1       5.570   4.287  18.033  0.00  0.00    +0.000 N 
ATOM     28  H   UNL     1       5.636   4.160  19.035  0.00  0.00    +0.000 HD
BRANCH  27  29
ATOM     29  C   UNL     1       6.808   4.546  17.295  0.00  0.00    +0.000 C 
ATOM     30  C   UNL     1       6.685   5.799  16.418  0.00  0.00    +0.000 C 
ATOM     31  C   UNL     1       6.695   7.101  17.218  0.00  0.00    +0.000 C 
ATOM     32  C   UNL     1       7.885   7.182  18.170  0.00  0.00    +0.000 C 
ATOM     33  C   UNL     1       7.987   5.949  19.061  0.00  0.00    +0.000 C 
ATOM     34  C   UNL     1       8.013   4.661  18.240  0.00  0.00    +0.000 C 
ENDBRANCH  27  29
ENDBRANCH  22  25
ENDBRANCH  18  19
ENDBRANCH   5  18
TORSDOF 6
ENDMDL
MODEL 5
REMARK VINA RESULT:      -8.3      2.688      3.611
REMARK  Name = 
REMARK  7 active torsions:
REMARK  status: ('A' for Active; 'I' for Inactive)
REMARK    1  A    between atoms: C_1  and  C_2
REMARK    2  A    between atoms: C_5  and  C_6
REMARK    3  A    between atoms: N_8  and  C_9
REMARK    4  A    between atoms: C_13  and  C_14
REMARK    5  A    between atoms: C_14  and  N_15
REMARK    6  A    between atoms: C_18  and  C_19
REMARK    7  A    between atoms: N_21  and  C_22
REMARK                            x       y       z     vdW  Elec       q    Type
REMARK                         _______ _______ _______ _____ _____    ______ ____
ROOT
ATOM      1  C   UNL     1       0.409  10.635  20.307  0.00  0.00    +0.000 A 
ATOM      2  C   UNL     1      -0.363  10.315  21.429  0.00  0.00    +0.000 A 
ATOM      3  C   UNL     1      -0.253   9.072  22.043  0.00  0.00    +0.000 A 
ATOM      4  C   UNL     1       0.623   8.123  21.533  0.00  0.00    +0.000 A 
ATOM      5  C   UNL     1       1.380   8.399  20.384  0.00  0.00    +0.000 A 
ATOM      6  C   UNL     1       1.248   9.655  19.762  0.00  0.00    +0.000 A 
ENDROOT
BRANCH   1   9
ATOM      7  C   UNL     1       0.865  13.070  20.336  0.00  0.00    +0.000 C 
ATOM      8  O   UNL     1       1.365  13.140  21.458  0.00  0.00    +0.000 OA
ATOM      9  N   UNL     1       0.391  11.923  19.719  0.00  0.00    +0.000 N 
ATOM     10  H   UNL     1       0.208  11.964  18.725  0.00  0.00    +0.000 HD
BRANCH   7  15
ATOM     11  C   UNL     1       1.030  18.068  17.434  0.00  0.00    +0.000 C 
ATOM     12  C   UNL     1       0.965  16.758  18.163  0.00  0.00    +0.000 A 
ATOM     13  C   UNL     1       2.132  16.031  18.410  0.00  0.00    +0.000 A 
ATOM     14  C   UNL     1       2.071  14.822  19.098  0.00  0.00    +0.000 A 
ATOM     15  C   UNL     1       0.838  14.320  19.542  0.00  0.00    +0.000 A 
ATOM     16  C   UNL     1      -0.334  15.040  19.303  0.00  0.00    +0.000 A 
ATOM     17  C   UNL     1      -0.268  16.258  18.615  0.00  0.00    +0.000 A 
ENDBRANCH   7  15
ENDBRANCH   1   9
BRANCH   5  18
ATOM     18  C   UNL     1       2.296   7.330  19.824  0.00  0.00    +0.000 C 
BRANCH  18  19
ATOM     19  N   UNL     1       1.666   6.005  19.604  0.00  0.00    +0.000 NA
ATOM     20  C   UNL     1       1.885   5.560  18.214  0.00  0.00    +0.000 C 
ATOM     21  C   UNL     1       1.477   4.102  17.967  0.00  0.00    +0.000 C 
ATOM     22  C   UNL     1       2.132   3.134  18.959  0.00  0.00    +0.000 C 
ATOM     23  C   UNL     1       1.805   3.617  20.374  0.00  0.00    +0.000 C 
ATOM     24  C   UNL     1       2.239   5.067  20.586  0.00  0.00    +0.000 C 
BRANCH  22  25
ATOM     25  C   UNL     1       3.639   2.978  18.714  0.00  0.00    +0.000 C 
ATOM     26  O   UNL     1       4.360   2.261  19.399  0.00  0.00    +0.000 OA
ATOM     27  N   UNL     1       4.129   3.736  17.667  0.00  0.00    +0.000 N 
ATOM     28  H   UNL     1       3.546   4.482  17.309  0.00  0.00    +0.000 HD
BRANCH  27  29
ATOM     29  C   UNL     1       5.554   3.763  17.333  0.00  0.00    +0.000 C 
ATOM     30  C   UNL     1       5.774   4.064  15.846  0.00  0.00    +0.000 C 
ATOM     31  C   UNL     1       5.491   5.519  15.474  0.00  0.00    +0.000 C 
ATOM     32  C   UNL     1       6.240   6.498  16.375  0.00  0.00    +0.000 C 
ATOM     33  C   UNL     1       5.994   6.215  17.853  0.00  0.00    +0.000 C 
ATOM     34  C   UNL     1       6.319   4.766  18.209  0.00  0.00    +0.000 C 
ENDBRANCH  27  29
ENDBRANCH  22  25
ENDBRANCH  18  19
ENDBRANCH   5  18
TORSDOF 6
ENDMDL
MODEL 6
REMARK VINA RESULT:      -8.2      1.866      2.606
REMARK  Name = 
REMARK  7 active torsions:
REMARK  status: ('A' for Active; 'I' for Inactive)
REMARK    1  A    between atoms: C_1  and  C_2
REMARK    2  A    between atoms: C_5  and  C_6
REMARK    3  A    between atoms: N_8  and  C_9
REMARK    4  A    between atoms: C_13  and  C_14
REMARK    5  A    between atoms: C_14  and  N_15
REMARK    6  A    between atoms: C_18  and  C_19
REMARK    7  A    between atoms: N_21  and  C_22
REMARK                            x       y       z     vdW  Elec       q    Type
REMARK                         _______ _______ _______ _____ _____    ______ ____
ROOT
ATOM      1  C   UNL     1       1.678   8.127  20.238  0.00  0.00    +0.000 A 
ATOM      2  C   UNL     1       2.147   7.996  18.926  0.00  0.00    +0.000 A 
ATOM      3  C   UNL     1       2.440   6.747  18.392  0.00  0.00    +0.000 A 
ATOM      4  C   UNL     1       2.281   5.607  19.169  0.00  0.00    +0.000 A 
ATOM      5  C   UNL     1       1.853   5.709  20.502  0.00  0.00    +0.000 A 
ATOM      6  C   UNL     1       1.575   6.981  21.036  0.00  0.00    +0.000 A 
ENDROOT
BRANCH   1   9
ATOM      7  C   UNL     1       0.118  10.042  20.427  0.00  0.00    +0.000 C 
ATOM      8  O   UNL     1      -0.726   9.660  19.617  0.00  0.00    +0.000 OA
ATOM      9  N   UNL     1       1.281   9.374  20.778  0.00  0.00    +0.000 N 
ATOM     10  H   UNL     1       1.772   9.687  21.606  0.00  0.00    +0.000 HD
BRANCH   7  15
ATOM     11  C   UNL     1      -0.692  15.015  23.261  0.00  0.00    +0.000 C 
ATOM     12  C   UNL     1      -0.517  13.723  22.520  0.00  0.00    +0.000 A 
ATOM     13  C   UNL     1       0.331  13.657  21.411  0.00  0.00    +0.000 A 
ATOM     14  C   UNL     1       0.502  12.454  20.732  0.00  0.00    +0.000 A 
ATOM     15  C   UNL     1      -0.179  11.300  21.150  0.00  0.00    +0.000 A 
ATOM     16  C   UNL     1      -1.026  11.354  22.259  0.00  0.00    +0.000 A 
ATOM     17  C   UNL     1      -1.192  12.565  22.942  0.00  0.00    +0.000 A 
ENDBRANCH   7  15
ENDBRANCH   1   9
BRANCH   5  18
ATOM     18  C   UNL     1       1.730   4.454  21.341  0.00  0.00    +0.000 C 
BRANCH  18  19
ATOM     19  N   UNL     1       2.068   3.188  20.644  0.00  0.00    +0.000 NA
ATOM     20  C   UNL     1       1.193   3.002  19.471  0.00  0.00    +0.000 C 
ATOM     21  C   UNL     1       1.629   1.847  18.560  0.00  0.00    +0.000 C 
ATOM     22  C   UNL     1       3.097   1.959  18.133  0.00  0.00    +0.000 C 
ATOM     23  C   UNL     1       3.947   2.078  19.399  0.00  0.00    +0.000 C 
ATOM     24  C   UNL     1       3.493   3.247  20.272  0.00  0.00    +0.000 C 
BRANCH  22  25
ATOM     25  C   UNL     1       3.330   3.110  17.145  0.00  0.00    +0.000 C 
ATOM     26  O   UNL     1       2.427   3.644  16.512  0.00  0.00    +0.000 OA
ATOM     27  N   UNL     1       4.654   3.483  17.005  0.00  0.00    +0.000 N 
ATOM     28  H   UNL     1       5.364   2.853  17.355  0.00  0.00    +0.000 HD
BRANCH  27  29
ATOM     29  C   UNL     1       5.068   4.519  16.056  0.00  0.00    +0.000 C 
ATOM     30  C   UNL     1       4.877   5.923  16.643  0.00  0.00    +0.000 C 
ATOM     31  C   UNL     1       5.900   6.271  17.724  0.00  0.00    +0.000 C 
ATOM     32  C   UNL     1       7.334   6.035  17.256  0.00  0.00    +0.000 C 
ATOM     33  C   UNL     1       7.527   4.628  16.702  0.00  0.00    +0.000 C 
ATOM     34  C   UNL     1       6.519   4.314  15.598  0.00  0.00    +0.000 C 
ENDBRANCH  27  29
ENDBRANCH  22  25
ENDBRANCH  18  19
ENDBRANCH   5  18
TORSDOF 6
ENDMDL
MODEL 7
REMARK VINA RESULT:      -8.2      1.702      1.863
REMARK  Name = 
REMARK  7 active torsions:
REMARK  status: ('A' for Active; 'I' for Inactive)
REMARK    1  A    between atoms: C_1  and  C_2
REMARK    2  A    between atoms: C_5  and  C_6
REMARK    3  A    between atoms: N_8  and  C_9
REMARK    4  A    between atoms: C_13  and  C_14
REMARK    5  A    between atoms: C_14  and  N_15
REMARK    6  A    between atoms: C_18  and  C_19
REMARK    7  A    between atoms: N_21  and  C_22
REMARK                            x       y       z     vdW  Elec       q    Type
REMARK                         _______ _______ _______ _____ _____    ______ ____
ROOT
ATOM      1  C   UNL     1       0.432   9.883  19.338  0.00  0.00    +0.000 A 
ATOM      2  C   UNL     1       1.177   9.955  18.157  0.00  0.00    +0.000 A 
ATOM      3  C   UNL     1       2.129   8.988  17.851  0.00  0.00    +0.000 A 
ATOM      4  C   UNL     1       2.361   7.941  18.733  0.00  0.00    +0.000 A 
ATOM      5  C   UNL     1       1.658   7.865  19.946  0.00  0.00    +0.000 A 
ATOM      6  C   UNL     1       0.708   8.858  20.251  0.00  0.00    +0.000 A 
ENDROOT
BRANCH   1   9
ATOM      7  C   UNL     1      -1.710  11.014  18.817  0.00  0.00    +0.000 C 
ATOM      8  O   UNL     1      -1.944  10.458  17.745  0.00  0.00    +0.000 OA
ATOM      9  N   UNL     1      -0.610  10.796  19.632  0.00  0.00    +0.000 N 
ATOM     10  H   UNL     1      -0.647  11.153  20.578  0.00  0.00    +0.000 HD
BRANCH   7  15
ATOM     11  C   UNL     1      -5.611  14.619  21.099  0.00  0.00    +0.000 C 
ATOM     12  C   UNL     1      -4.609  13.694  20.474  0.00  0.00    +0.000 A 
ATOM     13  C   UNL     1      -3.255  13.797  20.804  0.00  0.00    +0.000 A 
ATOM     14  C   UNL     1      -2.328  12.929  20.233  0.00  0.00    +0.000 A 
ATOM     15  C   UNL     1      -2.742  11.950  19.318  0.00  0.00    +0.000 A 
ATOM     16  C   UNL     1      -4.094  11.836  18.984  0.00  0.00    +0.000 A 
ATOM     17  C   UNL     1      -5.023  12.708  19.563  0.00  0.00    +0.000 A 
ENDBRANCH   7  15
ENDBRANCH   1   9
BRANCH   5  18
ATOM     18  C   UNL     1       1.960   6.735  20.910  0.00  0.00    +0.000 C 
BRANCH  18  19
ATOM     19  N   UNL     1       1.542   5.385  20.457  0.00  0.00    +0.000 NA
ATOM     20  C   UNL     1       1.794   5.231  19.012  0.00  0.00    +0.000 C 
ATOM     21  C   UNL     1       1.615   3.793  18.509  0.00  0.00    +0.000 C 
ATOM     22  C   UNL     1       2.438   2.783  19.317  0.00  0.00    +0.000 C 
ATOM     23  C   UNL     1       2.074   2.953  20.793  0.00  0.00    +0.000 C 
ATOM     24  C   UNL     1       2.279   4.393  21.260  0.00  0.00    +0.000 C 
BRANCH  22  25
ATOM     25  C   UNL     1       3.945   2.915  19.054  0.00  0.00    +0.000 C 
ATOM     26  O   UNL     1       4.799   2.460  19.806  0.00  0.00    +0.000 OA
ATOM     27  N   UNL     1       4.265   3.615  17.906  0.00  0.00    +0.000 N 
ATOM     28  H   UNL     1       3.539   4.169  17.471  0.00  0.00    +0.000 HD
BRANCH  27  29
ATOM     29  C   UNL     1       5.653   3.894  17.535  0.00  0.00    +0.000 C 
ATOM     30  C   UNL     1       5.835   3.895  16.012  0.00  0.00    +0.000 C 
ATOM     31  C   UNL     1       5.232   5.124  15.331  0.00  0.00    +0.000 C 
ATOM     32  C   UNL     1       5.711   6.426  15.967  0.00  0.00    +0.000 C 
ATOM     33  C   UNL     1       5.500   6.434  17.477  0.00  0.00    +0.000 C 
ATOM     34  C   UNL     1       6.143   5.218  18.141  0.00  0.00    +0.000 C 
ENDBRANCH  27  29
ENDBRANCH  22  25
ENDBRANCH  18  19
ENDBRANCH   5  18
TORSDOF 6
ENDMDL
MODEL 8
REMARK VINA RESULT:      -8.1      3.005     10.346
REMARK  Name = 
REMARK  7 active torsions:
REMARK  status: ('A' for Active; 'I' for Inactive)
REMARK    1  A    between atoms: C_1  and  C_2
REMARK    2  A    between atoms: C_5  and  C_6
REMARK    3  A    between atoms: N_8  and  C_9
REMARK    4  A    between atoms: C_13  and  C_14
REMARK    5  A    between atoms: C_14  and  N_15
REMARK    6  A    between atoms: C_18  and  C_19
REMARK    7  A    between atoms: N_21  and  C_22
REMARK                            x       y       z     vdW  Elec       q    Type
REMARK                         _______ _______ _______ _____ _____    ______ ____
ROOT
ATOM      1  C   UNL     1       2.992   5.175  18.497  0.00  0.00    +0.000 A 
ATOM      2  C   UNL     1       2.435   4.044  19.104  0.00  0.00    +0.000 A 
ATOM      3  C   UNL     1       1.645   4.158  20.242  0.00  0.00    +0.000 A 
ATOM      4  C   UNL     1       1.413   5.408  20.802  0.00  0.00    +0.000 A 
ATOM      5  C   UNL     1       1.992   6.556  20.241  0.00  0.00    +0.000 A 
ATOM      6  C   UNL     1       2.803   6.426  19.098  0.00  0.00    +0.000 A 
ENDROOT
BRANCH   1   9
ATOM      7  C   UNL     1       5.080   4.841  17.206  0.00  0.00    +0.000 C 
ATOM      8  O   UNL     1       5.839   4.634  18.151  0.00  0.00    +0.000 OA
ATOM      9  N   UNL     1       3.720   5.102  17.285  0.00  0.00    +0.000 N 
ATOM     10  H   UNL     1       3.178   5.038  16.434  0.00  0.00    +0.000 HD
BRANCH   7  15
ATOM     11  C   UNL     1       7.269   4.044  11.914  0.00  0.00    +0.000 C 
ATOM     12  C   UNL     1       6.705   4.286  13.284  0.00  0.00    +0.000 A 
ATOM     13  C   UNL     1       5.435   3.807  13.616  0.00  0.00    +0.000 A 
ATOM     14  C   UNL     1       4.919   4.021  14.891  0.00  0.00    +0.000 A 
ATOM     15  C   UNL     1       5.663   4.725  15.849  0.00  0.00    +0.000 A 
ATOM     16  C   UNL     1       6.934   5.205  15.528  0.00  0.00    +0.000 A 
ATOM     17  C   UNL     1       7.452   4.984  14.247  0.00  0.00    +0.000 A 
ENDBRANCH   7  15
ENDBRANCH   1   9
BRANCH   5  18
ATOM     18  C   UNL     1       1.758   7.903  20.896  0.00  0.00    +0.000 C 
BRANCH  18  19
ATOM     19  N   UNL     1       0.804   8.794  20.190  0.00  0.00    +0.000 NA
ATOM     20  C   UNL     1       0.167   9.718  21.148  0.00  0.00    +0.000 C 
ATOM     21  C   UNL     1      -0.651  10.829  20.475  0.00  0.00    +0.000 C 
ATOM     22  C   UNL     1       0.160  11.602  19.429  0.00  0.00    +0.000 C 
ATOM     23  C   UNL     1       0.731  10.590  18.434  0.00  0.00    +0.000 C 
ATOM     24  C   UNL     1       1.550   9.509  19.139  0.00  0.00    +0.000 C 
BRANCH  22  25
ATOM     25  C   UNL     1       1.240  12.487  20.066  0.00  0.00    +0.000 C 
ATOM     26  O   UNL     1       1.602  12.369  21.232  0.00  0.00    +0.000 OA
ATOM     27  N   UNL     1       1.758  13.453  19.224  0.00  0.00    +0.000 N 
ATOM     28  H   UNL     1       1.252  13.659  18.372  0.00  0.00    +0.000 HD
BRANCH  27  29
ATOM     29  C   UNL     1       2.748  14.428  19.683  0.00  0.00    +0.000 C 
ATOM     30  C   UNL     1       3.907  14.559  18.687  0.00  0.00    +0.000 C 
ATOM     31  C   UNL     1       3.525  15.303  17.409  0.00  0.00    +0.000 C 
ATOM     32  C   UNL     1       2.865  16.648  17.701  0.00  0.00    +0.000 C 
ATOM     33  C   UNL     1       1.694  16.510  18.667  0.00  0.00    +0.000 C 
ATOM     34  C   UNL     1       2.107  15.797  19.954  0.00  0.00    +0.000 C 
ENDBRANCH  27  29
ENDBRANCH  22  25
ENDBRANCH  18  19
ENDBRANCH   5  18
TORSDOF 6
ENDMDL
MODEL 9
REMARK VINA RESULT:      -8.1      2.639      3.946
REMARK  Name = 
REMARK  7 active torsions:
REMARK  status: ('A' for Active; 'I' for Inactive)
REMARK    1  A    between atoms: C_1  and  C_2
REMARK    2  A    between atoms: C_5  and  C_6
REMARK    3  A    between atoms: N_8  and  C_9
REMARK    4  A    between atoms: C_13  and  C_14
REMARK    5  A    between atoms: C_14  and  N_15
REMARK    6  A    between atoms: C_18  and  C_19
REMARK    7  A    between atoms: N_21  and  C_22
REMARK                            x       y       z     vdW  Elec       q    Type
REMARK                         _______ _______ _______ _____ _____    ______ ____
ROOT
ATOM      1  C   UNL     1       0.836  10.263  20.261  0.00  0.00    +0.000 A 
ATOM      2  C   UNL     1      -0.241  10.160  21.147  0.00  0.00    +0.000 A 
ATOM      3  C   UNL     1      -0.495   8.976  21.831  0.00  0.00    +0.000 A 
ATOM      4  C   UNL     1       0.320   7.870  21.627  0.00  0.00    +0.000 A 
ATOM      5  C   UNL     1       1.383   7.930  20.713  0.00  0.00    +0.000 A 
ATOM      6  C   UNL     1       1.620   9.129  20.015  0.00  0.00    +0.000 A 
ENDROOT
BRANCH   1   9
ATOM      7  C   UNL     1       1.517  12.645  20.295  0.00  0.00    +0.000 C 
ATOM      8  O   UNL     1       1.577  12.792  21.515  0.00  0.00    +0.000 OA
ATOM      9  N   UNL     1       1.177  11.480  19.623  0.00  0.00    +0.000 N 
ATOM     10  H   UNL     1       1.376  11.433  18.632  0.00  0.00    +0.000 HD
BRANCH   7  15
ATOM     11  C   UNL     1       2.755  17.207  16.966  0.00  0.00    +0.000 C 
ATOM     12  C   UNL     1       2.466  16.024  17.843  0.00  0.00    +0.000 A 
ATOM     13  C   UNL     1       1.397  16.059  18.742  0.00  0.00    +0.000 A 
ATOM     14  C   UNL     1       1.123  14.956  19.545  0.00  0.00    +0.000 A 
ATOM     15  C   UNL     1       1.921  13.804  19.466  0.00  0.00    +0.000 A 
ATOM     16  C   UNL     1       2.991  13.758  18.570  0.00  0.00    +0.000 A 
ATOM     17  C   UNL     1       3.260  14.868  17.759  0.00  0.00    +0.000 A 
ENDBRANCH   7  15
ENDBRANCH   1   9
BRANCH   5  18
ATOM     18  C   UNL     1       2.230   6.696  20.477  0.00  0.00    +0.000 C 
BRANCH  18  19
ATOM     19  N   UNL     1       1.530   5.559  19.829  0.00  0.00    +0.000 NA
ATOM     20  C   UNL     1       1.811   5.546  18.381  0.00  0.00    +0.000 C 
ATOM     21  C   UNL     1       1.325   4.274  17.675  0.00  0.00    +0.000 C 
ATOM     22  C   UNL     1       1.847   2.997  18.343  0.00  0.00    +0.000 C 
ATOM     23  C   UNL     1       1.459   3.047  19.822  0.00  0.00    +0.000 C 
ATOM     24  C   UNL     1       1.973   4.320  20.494  0.00  0.00    +0.000 C 
BRANCH  22  25
ATOM     25  C   UNL     1       3.353   2.799  18.126  0.00  0.00    +0.000 C 
ATOM     26  O   UNL     1       4.009   1.946  18.715  0.00  0.00    +0.000 OA
ATOM     27  N   UNL     1       3.922   3.681  17.227  0.00  0.00    +0.000 N 
ATOM     28  H   UNL     1       3.391   4.503  16.970  0.00  0.00    +0.000 HD
BRANCH  27  29
ATOM     29  C   UNL     1       5.359   3.680  16.949  0.00  0.00    +0.000 C 
ATOM     30  C   UNL     1       5.656   4.212  15.541  0.00  0.00    +0.000 C 
ATOM     31  C   UNL     1       5.464   5.723  15.412  0.00  0.00    +0.000 C 
ATOM     32  C   UNL     1       6.224   6.493  16.489  0.00  0.00    +0.000 C 
ATOM     33  C   UNL     1       5.903   5.982  17.889  0.00  0.00    +0.000 C 
ATOM     34  C   UNL     1       6.138   4.477  18.006  0.00  0.00    +0.000 C 
ENDBRANCH  27  29
ENDBRANCH  22  25
ENDBRANCH  18  19
ENDBRANCH   5  18
TORSDOF 6
ENDMDL
