MODEL 1
REMARK VINA RESULT:      -8.0      0.000      0.000
REMARK  Name = 
REMARK  7 active torsions:
REMARK  status: ('A' for Active; 'I' for Inactive)
REMARK    1  A    between atoms: C_1  and  C_2
REMARK    2  A    between atoms: C_2  and  O_3
REMARK    3  A    between atoms: O_3  and  C_4
REMARK    4  A    between atoms: C_6  and  C_7
REMARK    5  A    between atoms: C_8  and  C_9
REMARK    6  A    between atoms: C_16  and  N_17
REMARK    7  A    between atoms: C_24  and  O_25
REMARK                            x       y       z     vdW  Elec       q    Type
REMARK                         _______ _______ _______ _____ _____    ______ ____
ROOT
ATOM      1  C   UNL     1       8.374   9.105  17.591  0.00  0.00    +0.000 C 
ATOM      2  C   UNL     1       8.884   9.939  18.513  0.00  0.00    +0.000 C 
ENDROOT
BRANCH   2   3
ATOM      3  C   UNL     1       9.442  11.265  18.210  0.00  0.00    +0.000 A 
ATOM      4  C   UNL     1      10.770  11.388  17.836  0.00  0.00    +0.000 A 
ATOM      5  C   UNL     1      11.258  12.651  17.527  0.00  0.00    +0.000 A 
ATOM      6  C   UNL     1      10.416  13.765  17.606  0.00  0.00    +0.000 A 
ATOM      7  C   UNL     1      10.891  15.049  17.269  0.00  0.00    +0.000 A 
ATOM      8  C   UNL     1      10.058  16.164  17.344  0.00  0.00    +0.000 A 
ATOM      9  C   UNL     1       8.748  16.005  17.771  0.00  0.00    +0.000 A 
ATOM     10  C   UNL     1       8.296  14.720  18.109  0.00  0.00    +0.000 A 
ATOM     11  C   UNL     1       9.082  13.570  18.025  0.00  0.00    +0.000 A 
ATOM     12  N   UNL     1       8.615  12.331  18.305  0.00  0.00    +0.000 NA
BRANCH  10  13
ATOM     13  N   UNL     1       6.934  14.593  18.575  0.00  0.00    +0.000 N 
ATOM     14  O   UNL     1       6.060  14.445  17.705  0.00  0.00    +0.000 OA
ATOM     15  O   UNL     1       6.720  14.746  19.785  0.00  0.00    +0.000 OA
ENDBRANCH  10  13
ENDBRANCH   2   3
BRANCH   1  18
ATOM     16  C   UNL     1       6.140   6.064  17.416  0.00  0.00    +0.000 A 
ATOM     17  C   UNL     1       6.739   7.302  17.141  0.00  0.00    +0.000 A 
ATOM     18  C   UNL     1       7.820   7.777  17.895  0.00  0.00    +0.000 A 
ATOM     19  C   UNL     1       8.293   6.989  18.950  0.00  0.00    +0.000 A 
ATOM     20  C   UNL     1       7.724   5.740  19.218  0.00  0.00    +0.000 A 
ATOM     21  C   UNL     1       6.655   5.275  18.448  0.00  0.00    +0.000 A 
BRANCH  21  22
ATOM     22  O   UNL     1       6.144   4.038  18.716  0.00  0.00    +0.000 OA
ATOM     23  H   UNL     1       6.349   3.444  17.976  0.00  0.00    +0.000 HD
ENDBRANCH  21  22
BRANCH  16  24
ATOM     24  O   UNL     1       5.103   5.764  16.574  0.00  0.00    +0.000 OA
BRANCH  24  26
ATOM     25  C   UNL     1       5.794   4.175  14.951  0.00  0.00    +0.000 C 
ATOM     26  C   UNL     1       5.406   5.627  15.187  0.00  0.00    +0.000 C 
ENDBRANCH  24  26
ENDBRANCH  16  24
ENDBRANCH   1  18
TORSDOF 6
ENDMDL
MODEL 2
REMARK VINA RESULT:      -7.8      0.940      1.122
REMARK  Name = 
REMARK  7 active torsions:
REMARK  status: ('A' for Active; 'I' for Inactive)
REMARK    1  A    between atoms: C_1  and  C_2
REMARK    2  A    between atoms: C_2  and  O_3
REMARK    3  A    between atoms: O_3  and  C_4
REMARK    4  A    between atoms: C_6  and  C_7
REMARK    5  A    between atoms: C_8  and  C_9
REMARK    6  A    between atoms: C_16  and  N_17
REMARK    7  A    between atoms: C_24  and  O_25
REMARK                            x       y       z     vdW  Elec       q    Type
REMARK                         _______ _______ _______ _____ _____    ______ ____
ROOT
ATOM      1  C   UNL     1       8.203   9.215  17.602  0.00  0.00    +0.000 C 
ATOM      2  C   UNL     1       8.961   9.927  18.454  0.00  0.00    +0.000 C 
ENDROOT
BRANCH   2   3
ATOM      3  C   UNL     1       9.506  11.259  18.159  0.00  0.00    +0.000 A 
ATOM      4  C   UNL     1      10.831  11.397  17.778  0.00  0.00    +0.000 A 
ATOM      5  C   UNL     1      11.308  12.666  17.477  0.00  0.00    +0.000 A 
ATOM      6  C   UNL     1      10.458  13.773  17.571  0.00  0.00    +0.000 A 
ATOM      7  C   UNL     1      10.921  15.063  17.244  0.00  0.00    +0.000 A 
ATOM      8  C   UNL     1      10.080  16.171  17.334  0.00  0.00    +0.000 A 
ATOM      9  C   UNL     1       8.774  15.998  17.768  0.00  0.00    +0.000 A 
ATOM     10  C   UNL     1       8.334  14.706  18.097  0.00  0.00    +0.000 A 
ATOM     11  C   UNL     1       9.129  13.564  17.998  0.00  0.00    +0.000 A 
ATOM     12  N   UNL     1       8.672  12.318  18.269  0.00  0.00    +0.000 NA
BRANCH  10  13
ATOM     13  N   UNL     1       6.977  14.565  18.571  0.00  0.00    +0.000 N 
ATOM     14  O   UNL     1       6.103  14.379  17.708  0.00  0.00    +0.000 OA
ATOM     15  O   UNL     1       6.763  14.743  19.778  0.00  0.00    +0.000 OA
ENDBRANCH  10  13
ENDBRANCH   2   3
BRANCH   1  18
ATOM     16  C   UNL     1       5.834   6.274  17.639  0.00  0.00    +0.000 A 
ATOM     17  C   UNL     1       6.422   7.516  17.355  0.00  0.00    +0.000 A 
ATOM     18  C   UNL     1       7.661   7.880  17.896  0.00  0.00    +0.000 A 
ATOM     19  C   UNL     1       8.309   6.977  18.745  0.00  0.00    +0.000 A 
ATOM     20  C   UNL     1       7.749   5.724  19.015  0.00  0.00    +0.000 A 
ATOM     21  C   UNL     1       6.518   5.371  18.458  0.00  0.00    +0.000 A 
BRANCH  21  22
ATOM     22  O   UNL     1       6.015   4.128  18.716  0.00  0.00    +0.000 OA
ATOM     23  H   UNL     1       6.525   3.724  19.436  0.00  0.00    +0.000 HD
ENDBRANCH  21  22
BRANCH  16  24
ATOM     24  O   UNL     1       4.627   6.090  17.021  0.00  0.00    +0.000 OA
BRANCH  24  26
ATOM     25  C   UNL     1       2.628   5.097  17.830  0.00  0.00    +0.000 C 
ATOM     26  C   UNL     1       3.454   6.374  17.781  0.00  0.00    +0.000 C 
ENDBRANCH  24  26
ENDBRANCH  16  24
ENDBRANCH   1  18
TORSDOF 6
ENDMDL
MODEL 3
REMARK VINA RESULT:      -7.7      6.627      7.997
REMARK  Name = 
REMARK  7 active torsions:
REMARK  status: ('A' for Active; 'I' for Inactive)
REMARK    1  A    between atoms: C_1  and  C_2
REMARK    2  A    between atoms: C_2  and  O_3
REMARK    3  A    between atoms: O_3  and  C_4
REMARK    4  A    between atoms: C_6  and  C_7
REMARK    5  A    between atoms: C_8  and  C_9
REMARK    6  A    between atoms: C_16  and  N_17
REMARK    7  A    between atoms: C_24  and  O_25
REMARK                            x       y       z     vdW  Elec       q    Type
REMARK                         _______ _______ _______ _____ _____    ______ ____
ROOT
ATOM      1  C   UNL     1       2.404   7.092  19.334  0.00  0.00    +0.000 C 
ATOM      2  C   UNL     1       1.961   8.080  18.538  0.00  0.00    +0.000 C 
ENDROOT
BRANCH   2   3
ATOM      3  C   UNL     1       1.450   9.369  19.027  0.00  0.00    +0.000 A 
ATOM      4  C   UNL     1       1.534  10.496  18.226  0.00  0.00    +0.000 A 
ATOM      5  C   UNL     1       1.014  11.692  18.706  0.00  0.00    +0.000 A 
ATOM      6  C   UNL     1       0.431  11.742  19.977  0.00  0.00    +0.000 A 
ATOM      7  C   UNL     1      -0.123  12.942  20.465  0.00  0.00    +0.000 A 
ATOM      8  C   UNL     1      -0.707  13.000  21.730  0.00  0.00    +0.000 A 
ATOM      9  C   UNL     1      -0.725  11.860  22.521  0.00  0.00    +0.000 A 
ATOM     10  C   UNL     1      -0.161  10.677  22.020  0.00  0.00    +0.000 A 
ATOM     11  C   UNL     1       0.410  10.562  20.752  0.00  0.00    +0.000 A 
ATOM     12  N   UNL     1       0.902   9.399  20.264  0.00  0.00    +0.000 NA
BRANCH  10  13
ATOM     13  N   UNL     1      -0.173   9.517  22.880  0.00  0.00    +0.000 N 
ATOM     14  O   UNL     1      -0.879   8.561  22.515  0.00  0.00    +0.000 OA
ATOM     15  O   UNL     1       0.426   9.590  23.961  0.00  0.00    +0.000 OA
ENDBRANCH  10  13
ENDBRANCH   2   3
BRANCH   1  18
ATOM     16  C   UNL     1       4.798   4.264  18.602  0.00  0.00    +0.000 A 
ATOM     17  C   UNL     1       4.247   5.460  19.086  0.00  0.00    +0.000 A 
ATOM     18  C   UNL     1       2.911   5.802  18.844  0.00  0.00    +0.000 A 
ATOM     19  C   UNL     1       2.124   4.922  18.093  0.00  0.00    +0.000 A 
ATOM     20  C   UNL     1       2.651   3.713  17.629  0.00  0.00    +0.000 A 
ATOM     21  C   UNL     1       3.983   3.382  17.889  0.00  0.00    +0.000 A 
BRANCH  21  22
ATOM     22  O   UNL     1       4.457   2.179  17.448  0.00  0.00    +0.000 OA
ATOM     23  H   UNL     1       4.055   1.977  16.588  0.00  0.00    +0.000 HD
ENDBRANCH  21  22
BRANCH  16  24
ATOM     24  O   UNL     1       6.115   4.098  18.938  0.00  0.00    +0.000 OA
BRANCH  24  26
ATOM     25  C   UNL     1       7.285   4.607  16.936  0.00  0.00    +0.000 C 
ATOM     26  C   UNL     1       7.052   5.018  18.382  0.00  0.00    +0.000 C 
ENDBRANCH  24  26
ENDBRANCH  16  24
ENDBRANCH   1  18
TORSDOF 6
ENDMDL
MODEL 4
REMARK VINA RESULT:      -7.6      6.321      9.372
REMARK  Name = 
REMARK  7 active torsions:
REMARK  status: ('A' for Active; 'I' for Inactive)
REMARK    1  A    between atoms: C_1  and  C_2
REMARK    2  A    between atoms: C_2  and  O_3
REMARK    3  A    between atoms: O_3  and  C_4
REMARK    4  A    between atoms: C_6  and  C_7
REMARK    5  A    between atoms: C_8  and  C_9
REMARK    6  A    between atoms: C_16  and  N_17
REMARK    7  A    between atoms: C_24  and  O_25
REMARK                            x       y       z     vdW  Elec       q    Type
REMARK                         _______ _______ _______ _____ _____    ______ ____
ROOT
ATOM      1  C   UNL     1       1.938   7.934  19.294  0.00  0.00    +0.000 C 
ATOM      2  C   UNL     1       2.667   6.844  19.591  0.00  0.00    +0.000 C 
ENDROOT
BRANCH   2   3
ATOM      3  C   UNL     1       3.329   5.995  18.590  0.00  0.00    +0.000 A 
ATOM      4  C   UNL     1       2.646   4.931  18.025  0.00  0.00    +0.000 A 
ATOM      5  C   UNL     1       3.289   4.167  17.060  0.00  0.00    +0.000 A 
ATOM      6  C   UNL     1       4.603   4.472  16.686  0.00  0.00    +0.000 A 
ATOM      7  C   UNL     1       5.258   3.721  15.690  0.00  0.00    +0.000 A 
ATOM      8  C   UNL     1       6.566   4.021  15.311  0.00  0.00    +0.000 A 
ATOM      9  C   UNL     1       7.232   5.064  15.938  0.00  0.00    +0.000 A 
ATOM     10  C   UNL     1       6.565   5.794  16.933  0.00  0.00    +0.000 A 
ATOM     11  C   UNL     1       5.249   5.551  17.328  0.00  0.00    +0.000 A 
ATOM     12  N   UNL     1       4.602   6.300  18.252  0.00  0.00    +0.000 NA
BRANCH  10  13
ATOM     13  N   UNL     1       7.297   6.856  17.584  0.00  0.00    +0.000 N 
ATOM     14  O   UNL     1       7.849   6.573  18.660  0.00  0.00    +0.000 OA
ATOM     15  O   UNL     1       7.238   7.989  17.088  0.00  0.00    +0.000 OA
ENDBRANCH  10  13
ENDBRANCH   2   3
BRANCH   1  18
ATOM     16  C   UNL     1       0.093  10.862  20.807  0.00  0.00    +0.000 A 
ATOM     17  C   UNL     1       0.699   9.992  19.889  0.00  0.00    +0.000 A 
ATOM     18  C   UNL     1       1.273   8.781  20.296  0.00  0.00    +0.000 A 
ATOM     19  C   UNL     1       1.238   8.451  21.655  0.00  0.00    +0.000 A 
ATOM     20  C   UNL     1       0.612   9.294  22.578  0.00  0.00    +0.000 A 
ATOM     21  C   UNL     1       0.035  10.493  22.154  0.00  0.00    +0.000 A 
BRANCH  21  22
ATOM     22  O   UNL     1      -0.597  11.278  23.076  0.00  0.00    +0.000 OA
ATOM     23  H   UNL     1      -1.441  10.864  23.318  0.00  0.00    +0.000 HD
ENDBRANCH  21  22
BRANCH  16  24
ATOM     24  O   UNL     1      -0.415  11.994  20.229  0.00  0.00    +0.000 OA
BRANCH  24  26
ATOM     25  C   UNL     1      -2.354  11.900  18.863  0.00  0.00    +0.000 C 
ATOM     26  C   UNL     1      -0.833  11.901  18.869  0.00  0.00    +0.000 C 
ENDBRANCH  24  26
ENDBRANCH  16  24
ENDBRANCH   1  18
TORSDOF 6
ENDMDL
MODEL 5
REMARK VINA RESULT:      -7.6      6.778      8.061
REMARK  Name = 
REMARK  7 active torsions:
REMARK  status: ('A' for Active; 'I' for Inactive)
REMARK    1  A    between atoms: C_1  and  C_2
REMARK    2  A    between atoms: C_2  and  O_3
REMARK    3  A    between atoms: O_3  and  C_4
REMARK    4  A    between atoms: C_6  and  C_7
REMARK    5  A    between atoms: C_8  and  C_9
REMARK    6  A    between atoms: C_16  and  N_17
REMARK    7  A    between atoms: C_24  and  O_25
REMARK                            x       y       z     vdW  Elec       q    Type
REMARK                         _______ _______ _______ _____ _____    ______ ____
ROOT
ATOM      1  C   UNL     1       3.092   7.878  17.701  0.00  0.00    +0.000 C 
ATOM      2  C   UNL     1       2.212   7.966  18.713  0.00  0.00    +0.000 C 
ENDROOT
BRANCH   2   3
ATOM      3  C   UNL     1       1.524   9.204  19.105  0.00  0.00    +0.000 A 
ATOM      4  C   UNL     1       1.476  10.277  18.230  0.00  0.00    +0.000 A 
ATOM      5  C   UNL     1       0.792  11.421  18.618  0.00  0.00    +0.000 A 
ATOM      6  C   UNL     1       0.179  11.477  19.875  0.00  0.00    +0.000 A 
ATOM      7  C   UNL     1      -0.541  12.622  20.271  0.00  0.00    +0.000 A 
ATOM      8  C   UNL     1      -1.156  12.685  21.521  0.00  0.00    +0.000 A 
ATOM      9  C   UNL     1      -1.041  11.609  22.388  0.00  0.00    +0.000 A 
ATOM     10  C   UNL     1      -0.314  10.481  21.978  0.00  0.00    +0.000 A 
ATOM     11  C   UNL     1       0.296  10.359  20.729  0.00  0.00    +0.000 A 
ATOM     12  N   UNL     1       0.949   9.243  20.329  0.00  0.00    +0.000 NA
BRANCH  10  13
ATOM     13  N   UNL     1      -0.192   9.389  22.916  0.00  0.00    +0.000 N 
ATOM     14  O   UNL     1      -0.849   8.364  22.665  0.00  0.00    +0.000 OA
ATOM     15  O   UNL     1       0.465   9.582  23.948  0.00  0.00    +0.000 OA
ENDBRANCH  10  13
ENDBRANCH   2   3
BRANCH   1  18
ATOM     16  C   UNL     1       4.035   4.222  17.592  0.00  0.00    +0.000 A 
ATOM     17  C   UNL     1       3.382   5.428  17.889  0.00  0.00    +0.000 A 
ATOM     18  C   UNL     1       3.783   6.640  17.312  0.00  0.00    +0.000 A 
ATOM     19  C   UNL     1       4.867   6.630  16.428  0.00  0.00    +0.000 A 
ATOM     20  C   UNL     1       5.510   5.432  16.101  0.00  0.00    +0.000 A 
ATOM     21  C   UNL     1       5.090   4.230  16.676  0.00  0.00    +0.000 A 
BRANCH  21  22
ATOM     22  O   UNL     1       5.718   3.074  16.309  0.00  0.00    +0.000 OA
ATOM     23  H   UNL     1       6.678   3.216  16.330  0.00  0.00    +0.000 HD
ENDBRANCH  21  22
BRANCH  16  24
ATOM     24  O   UNL     1       3.504   3.142  18.245  0.00  0.00    +0.000 OA
BRANCH  24  26
ATOM     25  C   UNL     1       1.346   2.322  18.798  0.00  0.00    +0.000 C 
ATOM     26  C   UNL     1       2.346   2.538  17.672  0.00  0.00    +0.000 C 
ENDBRANCH  24  26
ENDBRANCH  16  24
ENDBRANCH   1  18
TORSDOF 6
ENDMDL
MODEL 6
REMARK VINA RESULT:      -7.6      6.700      8.392
REMARK  Name = 
REMARK  7 active torsions:
REMARK  status: ('A' for Active; 'I' for Inactive)
REMARK    1  A    between atoms: C_1  and  C_2
REMARK    2  A    between atoms: C_2  and  O_3
REMARK    3  A    between atoms: O_3  and  C_4
REMARK    4  A    between atoms: C_6  and  C_7
REMARK    5  A    between atoms: C_8  and  C_9
REMARK    6  A    between atoms: C_16  and  N_17
REMARK    7  A    between atoms: C_24  and  O_25
REMARK                            x       y       z     vdW  Elec       q    Type
REMARK                         _______ _______ _______ _____ _____    ______ ____
ROOT
ATOM      1  C   UNL     1       2.243   6.828  19.403  0.00  0.00    +0.000 C 
ATOM      2  C   UNL     1       2.019   8.152  19.337  0.00  0.00    +0.000 C 
ENDROOT
BRANCH   2   3
ATOM      3  C   UNL     1       1.180   8.896  20.287  0.00  0.00    +0.000 A 
ATOM      4  C   UNL     1       1.221   8.587  21.637  0.00  0.00    +0.000 A 
ATOM      5  C   UNL     1       0.439   9.329  22.512  0.00  0.00    +0.000 A 
ATOM      6  C   UNL     1      -0.375  10.357  22.023  0.00  0.00    +0.000 A 
ATOM      7  C   UNL     1      -1.154  11.135  22.903  0.00  0.00    +0.000 A 
ATOM      8  C   UNL     1      -1.966  12.162  22.424  0.00  0.00    +0.000 A 
ATOM      9  C   UNL     1      -2.017  12.407  21.059  0.00  0.00    +0.000 A 
ATOM     10  C   UNL     1      -1.240  11.616  20.199  0.00  0.00    +0.000 A 
ATOM     11  C   UNL     1      -0.391  10.596  20.632  0.00  0.00    +0.000 A 
ATOM     12  N   UNL     1       0.391   9.877  19.793  0.00  0.00    +0.000 NA
BRANCH  10  13
ATOM     13  N   UNL     1      -1.336  11.880  18.782  0.00  0.00    +0.000 N 
ATOM     14  O   UNL     1      -0.621  12.793  18.336  0.00  0.00    +0.000 OA
ATOM     15  O   UNL     1      -2.190  11.260  18.134  0.00  0.00    +0.000 OA
ENDBRANCH  10  13
ENDBRANCH   2   3
BRANCH   1  18
ATOM     16  C   UNL     1       5.002   6.071  16.936  0.00  0.00    +0.000 A 
ATOM     17  C   UNL     1       4.195   6.716  17.886  0.00  0.00    +0.000 A 
ATOM     18  C   UNL     1       3.080   6.083  18.450  0.00  0.00    +0.000 A 
ATOM     19  C   UNL     1       2.773   4.782  18.038  0.00  0.00    +0.000 A 
ATOM     20  C   UNL     1       3.584   4.117  17.113  0.00  0.00    +0.000 A 
ATOM     21  C   UNL     1       4.700   4.757  16.569  0.00  0.00    +0.000 A 
BRANCH  21  22
ATOM     22  O   UNL     1       5.488   4.068  15.694  0.00  0.00    +0.000 OA
ATOM     23  H   UNL     1       6.121   4.682  15.287  0.00  0.00    +0.000 HD
ENDBRANCH  21  22
BRANCH  16  24
ATOM     24  O   UNL     1       6.046   6.841  16.500  0.00  0.00    +0.000 OA
BRANCH  24  26
ATOM     25  C   UNL     1       7.718   8.140  17.573  0.00  0.00    +0.000 C 
ATOM     26  C   UNL     1       7.279   6.731  17.208  0.00  0.00    +0.000 C 
ENDBRANCH  24  26
ENDBRANCH  16  24
ENDBRANCH   1  18
TORSDOF 6
ENDMDL
MODEL 7
REMARK VINA RESULT:      -7.6      6.798      8.461
REMARK  Name = 
REMARK  7 active torsions:
REMARK  status: ('A' for Active; 'I' for Inactive)
REMARK    1  A    between atoms: C_1  and  C_2
REMARK    2  A    between atoms: C_2  and  O_3
REMARK    3  A    between atoms: O_3  and  C_4
REMARK    4  A    between atoms: C_6  and  C_7
REMARK    5  A    between atoms: C_8  and  C_9
REMARK    6  A    between atoms: C_16  and  N_17
REMARK    7  A    between atoms: C_24  and  O_25
REMARK                            x       y       z     vdW  Elec       q    Type
REMARK                         _______ _______ _______ _____ _____    ______ ____
ROOT
ATOM      1  C   UNL     1       2.286   6.603  20.035  0.00  0.00    +0.000 C 
ATOM      2  C   UNL     1       1.877   7.837  19.694  0.00  0.00    +0.000 C 
ENDROOT
BRANCH   2   3
ATOM      3  C   UNL     1       1.094   8.720  20.571  0.00  0.00    +0.000 A 
ATOM      4  C   UNL     1       1.168   8.572  21.947  0.00  0.00    +0.000 A 
ATOM      5  C   UNL     1       0.440   9.441  22.748  0.00  0.00    +0.000 A 
ATOM      6  C   UNL     1      -0.354  10.434  22.163  0.00  0.00    +0.000 A 
ATOM      7  C   UNL     1      -1.077  11.339  22.965  0.00  0.00    +0.000 A 
ATOM      8  C   UNL     1      -1.869  12.332  22.389  0.00  0.00    +0.000 A 
ATOM      9  C   UNL     1      -1.955  12.415  21.007  0.00  0.00    +0.000 A 
ATOM     10  C   UNL     1      -1.233  11.499  20.226  0.00  0.00    +0.000 A 
ATOM     11  C   UNL     1      -0.407  10.506  20.754  0.00  0.00    +0.000 A 
ATOM     12  N   UNL     1       0.323   9.664  19.986  0.00  0.00    +0.000 NA
BRANCH  10  13
ATOM     13  N   UNL     1      -1.366  11.597  18.791  0.00  0.00    +0.000 N 
ATOM     14  O   UNL     1      -2.153  10.802  18.250  0.00  0.00    +0.000 OA
ATOM     15  O   UNL     1      -0.620  12.382  18.192  0.00  0.00    +0.000 OA
ENDBRANCH  10  13
ENDBRANCH   2   3
BRANCH   1  18
ATOM     16  C   UNL     1       5.227   4.720  18.597  0.00  0.00    +0.000 A 
ATOM     17  C   UNL     1       4.424   5.515  19.427  0.00  0.00    +0.000 A 
ATOM     18  C   UNL     1       3.065   5.719  19.155  0.00  0.00    +0.000 A 
ATOM     19  C   UNL     1       2.516   5.116  18.018  0.00  0.00    +0.000 A 
ATOM     20  C   UNL     1       3.298   4.298  17.196  0.00  0.00    +0.000 A 
ATOM     21  C   UNL     1       4.648   4.095  17.489  0.00  0.00    +0.000 A 
BRANCH  21  22
ATOM     22  O   UNL     1       5.375   3.265  16.684  0.00  0.00    +0.000 OA
ATOM     23  H   UNL     1       5.015   2.366  16.751  0.00  0.00    +0.000 HD
ENDBRANCH  21  22
BRANCH  16  24
ATOM     24  O   UNL     1       6.526   4.632  19.021  0.00  0.00    +0.000 OA
BRANCH  24  26
ATOM     25  C   UNL     1       7.522   6.567  18.074  0.00  0.00    +0.000 C 
ATOM     26  C   UNL     1       7.540   5.047  18.108  0.00  0.00    +0.000 C 
ENDBRANCH  24  26
ENDBRANCH  16  24
ENDBRANCH   1  18
TORSDOF 6
ENDMDL
MODEL 8
REMARK VINA RESULT:      -7.5      7.078      8.593
REMARK  Name = 
REMARK  7 active torsions:
REMARK  status: ('A' for Active; 'I' for Inactive)
REMARK    1  A    between atoms: C_1  and  C_2
REMARK    2  A    between atoms: C_2  and  O_3
REMARK    3  A    between atoms: O_3  and  C_4
REMARK    4  A    between atoms: C_6  and  C_7
REMARK    5  A    between atoms: C_8  and  C_9
REMARK    6  A    between atoms: C_16  and  N_17
REMARK    7  A    between atoms: C_24  and  O_25
REMARK                            x       y       z     vdW  Elec       q    Type
REMARK                         _______ _______ _______ _____ _____    ______ ____
ROOT
ATOM      1  C   UNL     1       2.252   7.010  20.014  0.00  0.00    +0.000 C 
ATOM      2  C   UNL     1       1.875   8.277  19.768  0.00  0.00    +0.000 C 
ENDROOT
BRANCH   2   3
ATOM      3  C   UNL     1       0.980   9.056  20.635  0.00  0.00    +0.000 A 
ATOM      4  C   UNL     1       0.933   8.796  21.995  0.00  0.00    +0.000 A 
ATOM      5  C   UNL     1       0.099   9.570  22.790  0.00  0.00    +0.000 A 
ATOM      6  C   UNL     1      -0.679  10.581  22.213  0.00  0.00    +0.000 A 
ATOM      7  C   UNL     1      -1.510  11.391  23.013  0.00  0.00    +0.000 A 
ATOM      8  C   UNL     1      -2.286  12.401  22.446  0.00  0.00    +0.000 A 
ATOM      9  C   UNL     1      -2.248  12.595  21.073  0.00  0.00    +0.000 A 
ATOM     10  C   UNL     1      -1.421  11.773  20.293  0.00  0.00    +0.000 A 
ATOM     11  C   UNL     1      -0.605  10.768  20.817  0.00  0.00    +0.000 A 
ATOM     12  N   UNL     1       0.227  10.019  20.056  0.00  0.00    +0.000 NA
BRANCH  10  13
ATOM     13  N   UNL     1      -1.425  11.985  18.865  0.00  0.00    +0.000 N 
ATOM     14  O   UNL     1      -2.203  11.280  18.200  0.00  0.00    +0.000 OA
ATOM     15  O   UNL     1      -0.591  12.769  18.393  0.00  0.00    +0.000 OA
ENDBRANCH  10  13
ENDBRANCH   2   3
BRANCH   1  18
ATOM     16  C   UNL     1       4.598   4.282  18.866  0.00  0.00    +0.000 A 
ATOM     17  C   UNL     1       3.703   5.042  19.634  0.00  0.00    +0.000 A 
ATOM     18  C   UNL     1       3.145   6.230  19.144  0.00  0.00    +0.000 A 
ATOM     19  C   UNL     1       3.506   6.657  17.862  0.00  0.00    +0.000 A 
ATOM     20  C   UNL     1       4.374   5.894  17.074  0.00  0.00    +0.000 A 
ATOM     21  C   UNL     1       4.914   4.706  17.573  0.00  0.00    +0.000 A 
BRANCH  21  22
ATOM     22  O   UNL     1       5.733   3.970  16.766  0.00  0.00    +0.000 OA
ATOM     23  H   UNL     1       5.471   4.107  15.841  0.00  0.00    +0.000 HD
ENDBRANCH  21  22
BRANCH  16  24
ATOM     24  O   UNL     1       5.038   3.154  19.505  0.00  0.00    +0.000 OA
BRANCH  24  26
ATOM     25  C   UNL     1       3.578   1.514  18.602  0.00  0.00    +0.000 C 
ATOM     26  C   UNL     1       4.056   2.190  19.878  0.00  0.00    +0.000 C 
ENDBRANCH  24  26
ENDBRANCH  16  24
ENDBRANCH   1  18
TORSDOF 6
ENDMDL
MODEL 9
REMARK VINA RESULT:      -7.5      6.543      8.209
REMARK  Name = 
REMARK  7 active torsions:
REMARK  status: ('A' for Active; 'I' for Inactive)
REMARK    1  A    between atoms: C_1  and  C_2
REMARK    2  A    between atoms: C_2  and  O_3
REMARK    3  A    between atoms: O_3  and  C_4
REMARK    4  A    between atoms: C_6  and  C_7
REMARK    5  A    between atoms: C_8  and  C_9
REMARK    6  A    between atoms: C_16  and  N_17
REMARK    7  A    between atoms: C_24  and  O_25
REMARK                            x       y       z     vdW  Elec       q    Type
REMARK                         _______ _______ _______ _____ _____    ______ ____
ROOT
ATOM      1  C   UNL     1       2.050   6.248  19.846  0.00  0.00    +0.000 C 
ATOM      2  C   UNL     1       2.474   7.403  19.305  0.00  0.00    +0.000 C 
ENDROOT
BRANCH   2   3
ATOM      3  C   UNL     1       1.695   8.649  19.303  0.00  0.00    +0.000 A 
ATOM      4  C   UNL     1       1.700   9.468  18.186  0.00  0.00    +0.000 A 
ATOM      5  C   UNL     1       0.930  10.623  18.205  0.00  0.00    +0.000 A 
ATOM      6  C   UNL     1       0.178  10.944  19.340  0.00  0.00    +0.000 A 
ATOM      7  C   UNL     1      -0.628  12.099  19.363  0.00  0.00    +0.000 A 
ATOM      8  C   UNL     1      -1.382  12.425  20.490  0.00  0.00    +0.000 A 
ATOM      9  C   UNL     1      -1.320  11.605  21.608  0.00  0.00    +0.000 A 
ATOM     10  C   UNL     1      -0.505  10.464  21.568  0.00  0.00    +0.000 A 
ATOM     11  C   UNL     1       0.246  10.081  20.455  0.00  0.00    +0.000 A 
ATOM     12  N   UNL     1       0.986   8.948  20.415  0.00  0.00    +0.000 NA
BRANCH  10  13
ATOM     13  N   UNL     1      -0.443   9.647  22.758  0.00  0.00    +0.000 N 
ATOM     14  O   UNL     1       0.242  10.084  23.698  0.00  0.00    +0.000 OA
ATOM     15  O   UNL     1      -0.981   8.533  22.724  0.00  0.00    +0.000 OA
ENDBRANCH  10  13
ENDBRANCH   2   3
BRANCH   1  18
ATOM     16  C   UNL     1       4.937   3.864  19.343  0.00  0.00    +0.000 A 
ATOM     17  C   UNL     1       4.160   5.031  19.411  0.00  0.00    +0.000 A 
ATOM     18  C   UNL     1       2.829   5.000  19.844  0.00  0.00    +0.000 A 
ATOM     19  C   UNL     1       2.274   3.767  20.204  0.00  0.00    +0.000 A 
ATOM     20  C   UNL     1       3.044   2.601  20.168  0.00  0.00    +0.000 A 
ATOM     21  C   UNL     1       4.374   2.650  19.745  0.00  0.00    +0.000 A 
BRANCH  21  22
ATOM     22  O   UNL     1       5.107   1.498  19.753  0.00  0.00    +0.000 OA
ATOM     23  H   UNL     1       6.040   1.716  19.594  0.00  0.00    +0.000 HD
ENDBRANCH  21  22
BRANCH  16  24
ATOM     24  O   UNL     1       6.213   4.087  18.901  0.00  0.00    +0.000 OA
BRANCH  24  26
ATOM     25  C   UNL     1       7.372   5.821  17.767  0.00  0.00    +0.000 C 
ATOM     26  C   UNL     1       6.364   4.691  17.618  0.00  0.00    +0.000 C 
ENDBRANCH  24  26
ENDBRANCH  16  24
ENDBRANCH   1  18
TORSDOF 6
ENDMDL
