MODEL 1
REMARK VINA RESULT:      -7.3      0.000      0.000
REMARK  Name = 
REMARK  3 active torsions:
REMARK  status: ('A' for Active; 'I' for Inactive)
REMARK    1  A    between atoms: C_2  and  C_3
REMARK    2  A    between atoms: C_3  and  S_4
REMARK    3  A    between atoms: S_4  and  C_7
REMARK                            x       y       z     vdW  Elec       q    Type
REMARK                         _______ _______ _______ _____ _____    ______ ____
ROOT
ATOM      1  O   UNL     1       2.003   5.263  20.766  0.00  0.00    +0.000 OA
ATOM      2  C   UNL     1       2.767   5.318  19.803  0.00  0.00    +0.000 C 
ATOM      3  N   UNL     1       2.878   6.365  18.906  0.00  0.00    +0.000 N 
ATOM      4  C   UNL     1       2.219   7.596  19.048  0.00  0.00    +0.000 A 
ATOM      5  C   UNL     1       2.220   8.469  17.963  0.00  0.00    +0.000 A 
ATOM      6  C   UNL     1       1.599   9.714  18.086  0.00  0.00    +0.000 A 
ATOM      7  C   UNL     1       1.007  10.057  19.295  0.00  0.00    +0.000 A 
ATOM      8 BR   UNL     1       0.170  11.729  19.522  0.00  0.00    +0.000 Br
ATOM      9  C   UNL     1       1.056   9.140  20.327  0.00  0.00    +0.000 A 
ATOM     10  N   UNL     1       1.653   7.929  20.223  0.00  0.00    +0.000 NA
ATOM     11  H   UNL     1       3.387   6.219  18.039  0.00  0.00    +0.000 HD
ENDROOT
BRANCH   2  12
ATOM     12  C   UNL     1       3.759   4.211  19.616  0.00  0.00    +0.000 C 
BRANCH  12  13
ATOM     13  S   UNL     1       3.565   3.432  18.052  0.00  0.00    +0.000 S 
ATOM     14  O   UNL     1       3.719   1.998  18.193  0.00  0.00    +0.000 OA
ATOM     15  O   UNL     1       2.371   3.991  17.439  0.00  0.00    +0.000 OA
BRANCH  13  16
ATOM     16  C   UNL     1       4.982   4.035  17.159  0.00  0.00    +0.000 A 
ATOM     17  C   UNL     1       4.966   4.021  15.760  0.00  0.00    +0.000 A 
ATOM     18  C   UNL     1       6.106   4.408  15.058  0.00  0.00    +0.000 A 
ATOM     19  C   UNL     1       7.248   4.816  15.751  0.00  0.00    +0.000 A 
ATOM     20  C   UNL     1       7.246   4.857  17.147  0.00  0.00    +0.000 A 
ATOM     21  C   UNL     1       6.109   4.473  17.859  0.00  0.00    +0.000 A 
ENDBRANCH  13  16
ENDBRANCH  12  13
ENDBRANCH   2  12
TORSDOF 3
ENDMDL
MODEL 2
REMARK VINA RESULT:      -7.2      0.100      1.089
REMARK  Name = 
REMARK  3 active torsions:
REMARK  status: ('A' for Active; 'I' for Inactive)
REMARK    1  A    between atoms: C_2  and  C_3
REMARK    2  A    between atoms: C_3  and  S_4
REMARK    3  A    between atoms: S_4  and  C_7
REMARK                            x       y       z     vdW  Elec       q    Type
REMARK                         _______ _______ _______ _____ _____    ______ ____
ROOT
ATOM      1  O   UNL     1       1.976   5.296  20.758  0.00  0.00    +0.000 OA
ATOM      2  C   UNL     1       2.759   5.345  19.811  0.00  0.00    +0.000 C 
ATOM      3  N   UNL     1       2.892   6.389  18.913  0.00  0.00    +0.000 N 
ATOM      4  C   UNL     1       2.234   7.622  19.038  0.00  0.00    +0.000 A 
ATOM      5  C   UNL     1       2.259   8.492  17.950  0.00  0.00    +0.000 A 
ATOM      6  C   UNL     1       1.639   9.739  18.057  0.00  0.00    +0.000 A 
ATOM      7  C   UNL     1       1.022  10.088  19.252  0.00  0.00    +0.000 A 
ATOM      8 BR   UNL     1       0.185  11.762  19.457  0.00  0.00    +0.000 Br
ATOM      9  C   UNL     1       1.048   9.173  20.288  0.00  0.00    +0.000 A 
ATOM     10  N   UNL     1       1.643   7.961  20.199  0.00  0.00    +0.000 NA
ATOM     11  H   UNL     1       3.418   6.240  18.057  0.00  0.00    +0.000 HD
ENDROOT
BRANCH   2  12
ATOM     12  C   UNL     1       3.752   4.235  19.649  0.00  0.00    +0.000 C 
BRANCH  12  13
ATOM     13  S   UNL     1       3.573   3.436  18.093  0.00  0.00    +0.000 S 
ATOM     14  O   UNL     1       3.706   2.003  18.257  0.00  0.00    +0.000 OA
ATOM     15  O   UNL     1       2.396   4.002  17.453  0.00  0.00    +0.000 OA
BRANCH  13  16
ATOM     16  C   UNL     1       5.012   4.008  17.214  0.00  0.00    +0.000 A 
ATOM     17  C   UNL     1       6.136   4.421  17.936  0.00  0.00    +0.000 A 
ATOM     18  C   UNL     1       7.230   4.953  17.256  0.00  0.00    +0.000 A 
ATOM     19  C   UNL     1       7.203   5.060  15.864  0.00  0.00    +0.000 A 
ATOM     20  C   UNL     1       6.089   4.616  15.147  0.00  0.00    +0.000 A 
ATOM     21  C   UNL     1       4.989   4.080  15.819  0.00  0.00    +0.000 A 
ENDBRANCH  13  16
ENDBRANCH  12  13
ENDBRANCH   2  12
TORSDOF 3
ENDMDL
MODEL 3
REMARK VINA RESULT:      -7.1      1.126      1.760
REMARK  Name = 
REMARK  3 active torsions:
REMARK  status: ('A' for Active; 'I' for Inactive)
REMARK    1  A    between atoms: C_2  and  C_3
REMARK    2  A    between atoms: C_3  and  S_4
REMARK    3  A    between atoms: S_4  and  C_7
REMARK                            x       y       z     vdW  Elec       q    Type
REMARK                         _______ _______ _______ _____ _____    ______ ____
ROOT
ATOM      1  O   UNL     1       1.675   5.120  20.175  0.00  0.00    +0.000 OA
ATOM      2  C   UNL     1       2.334   5.216  19.140  0.00  0.00    +0.000 C 
ATOM      3  N   UNL     1       2.495   6.358  18.376  0.00  0.00    +0.000 N 
ATOM      4  C   UNL     1       2.033   7.628  18.754  0.00  0.00    +0.000 A 
ATOM      5  C   UNL     1       2.041   8.640  17.795  0.00  0.00    +0.000 A 
ATOM      6  C   UNL     1       1.616   9.922  18.152  0.00  0.00    +0.000 A 
ATOM      7  C   UNL     1       1.207  10.161  19.457  0.00  0.00    +0.000 A 
ATOM      8 BR   UNL     1       0.640  11.874  19.996  0.00  0.00    +0.000 Br
ATOM      9  C   UNL     1       1.237   9.107  20.351  0.00  0.00    +0.000 A 
ATOM     10  N   UNL     1       1.645   7.859  20.021  0.00  0.00    +0.000 NA
ATOM     11  H   UNL     1       2.885   6.275  17.442  0.00  0.00    +0.000 HD
ENDROOT
BRANCH   2  12
ATOM     12  C   UNL     1       3.137   4.033  18.694  0.00  0.00    +0.000 C 
BRANCH  12  13
ATOM     13  S   UNL     1       4.842   4.234  19.074  0.00  0.00    +0.000 S 
ATOM     14  O   UNL     1       5.055   5.509  19.727  0.00  0.00    +0.000 OA
ATOM     15  O   UNL     1       5.290   2.999  19.698  0.00  0.00    +0.000 OA
BRANCH  13  16
ATOM     16  C   UNL     1       5.574   4.334  17.455  0.00  0.00    +0.000 A 
ATOM     17  C   UNL     1       6.930   4.654  17.335  0.00  0.00    +0.000 A 
ATOM     18  C   UNL     1       7.486   4.821  16.068  0.00  0.00    +0.000 A 
ATOM     19  C   UNL     1       6.692   4.659  14.930  0.00  0.00    +0.000 A 
ATOM     20  C   UNL     1       5.346   4.308  15.057  0.00  0.00    +0.000 A 
ATOM     21  C   UNL     1       4.781   4.137  16.321  0.00  0.00    +0.000 A 
ENDBRANCH  13  16
ENDBRANCH  12  13
ENDBRANCH   2  12
TORSDOF 3
ENDMDL
MODEL 4
REMARK VINA RESULT:      -7.1      1.125      1.470
REMARK  Name = 
REMARK  3 active torsions:
REMARK  status: ('A' for Active; 'I' for Inactive)
REMARK    1  A    between atoms: C_2  and  C_3
REMARK    2  A    between atoms: C_3  and  S_4
REMARK    3  A    between atoms: S_4  and  C_7
REMARK                            x       y       z     vdW  Elec       q    Type
REMARK                         _______ _______ _______ _____ _____    ______ ____
ROOT
ATOM      1  O   UNL     1       1.674   5.098  20.161  0.00  0.00    +0.000 OA
ATOM      2  C   UNL     1       2.345   5.202  19.135  0.00  0.00    +0.000 C 
ATOM      3  N   UNL     1       2.510   6.347  18.379  0.00  0.00    +0.000 N 
ATOM      4  C   UNL     1       2.037   7.614  18.756  0.00  0.00    +0.000 A 
ATOM      5  C   UNL     1       2.052   8.630  17.802  0.00  0.00    +0.000 A 
ATOM      6  C   UNL     1       1.617   9.908  18.158  0.00  0.00    +0.000 A 
ATOM      7  C   UNL     1       1.191  10.140  19.460  0.00  0.00    +0.000 A 
ATOM      8 BR   UNL     1       0.608  11.848  19.998  0.00  0.00    +0.000 Br
ATOM      9  C   UNL     1       1.214   9.082  20.349  0.00  0.00    +0.000 A 
ATOM     10  N   UNL     1       1.632   7.838  20.019  0.00  0.00    +0.000 NA
ATOM     11  H   UNL     1       2.912   6.271  17.449  0.00  0.00    +0.000 HD
ENDROOT
BRANCH   2  12
ATOM     12  C   UNL     1       3.159   4.024  18.695  0.00  0.00    +0.000 C 
BRANCH  12  13
ATOM     13  S   UNL     1       4.864   4.248  19.062  0.00  0.00    +0.000 S 
ATOM     14  O   UNL     1       5.059   5.507  19.751  0.00  0.00    +0.000 OA
ATOM     15  O   UNL     1       5.345   3.004  19.642  0.00  0.00    +0.000 OA
BRANCH  13  16
ATOM     16  C   UNL     1       5.575   4.414  17.438  0.00  0.00    +0.000 A 
ATOM     17  C   UNL     1       4.774   4.187  16.314  0.00  0.00    +0.000 A 
ATOM     18  C   UNL     1       5.348   4.228  15.044  0.00  0.00    +0.000 A 
ATOM     19  C   UNL     1       6.710   4.503  14.902  0.00  0.00    +0.000 A 
ATOM     20  C   UNL     1       7.497   4.759  16.027  0.00  0.00    +0.000 A 
ATOM     21  C   UNL     1       6.931   4.723  17.302  0.00  0.00    +0.000 A 
ENDBRANCH  13  16
ENDBRANCH  12  13
ENDBRANCH   2  12
TORSDOF 3
ENDMDL
MODEL 5
REMARK VINA RESULT:      -7.0      1.662      2.416
REMARK  Name = 
REMARK  3 active torsions:
REMARK  status: ('A' for Active; 'I' for Inactive)
REMARK    1  A    between atoms: C_2  and  C_3
REMARK    2  A    between atoms: C_3  and  S_4
REMARK    3  A    between atoms: S_4  and  C_7
REMARK                            x       y       z     vdW  Elec       q    Type
REMARK                         _______ _______ _______ _____ _____    ______ ____
ROOT
ATOM      1  O   UNL     1       3.120   7.071  17.885  0.00  0.00    +0.000 OA
ATOM      2  C   UNL     1       2.920   6.324  18.842  0.00  0.00    +0.000 C 
ATOM      3  N   UNL     1       2.345   6.678  20.049  0.00  0.00    +0.000 N 
ATOM      4  C   UNL     1       1.773   7.934  20.309  0.00  0.00    +0.000 A 
ATOM      5  C   UNL     1       1.450   8.246  21.628  0.00  0.00    +0.000 A 
ATOM      6  C   UNL     1       0.851   9.476  21.912  0.00  0.00    +0.000 A 
ATOM      7  C   UNL     1       0.579  10.353  20.870  0.00  0.00    +0.000 A 
ATOM      8 BR   UNL     1      -0.242  12.016  21.194  0.00  0.00    +0.000 Br
ATOM      9  C   UNL     1       0.921   9.965  19.588  0.00  0.00    +0.000 A 
ATOM     10  N   UNL     1       1.503   8.778  19.297  0.00  0.00    +0.000 NA
ATOM     11  H   UNL     1       2.415   6.040  20.836  0.00  0.00    +0.000 HD
ENDROOT
BRANCH   2  12
ATOM     12  C   UNL     1       3.215   4.864  18.682  0.00  0.00    +0.000 C 
BRANCH  12  13
ATOM     13  S   UNL     1       4.906   4.511  19.008  0.00  0.00    +0.000 S 
ATOM     14  O   UNL     1       5.517   5.624  19.705  0.00  0.00    +0.000 OA
ATOM     15  O   UNL     1       4.965   3.168  19.562  0.00  0.00    +0.000 OA
BRANCH  13  16
ATOM     16  C   UNL     1       5.599   4.465  17.368  0.00  0.00    +0.000 A 
ATOM     17  C   UNL     1       6.962   4.721  17.193  0.00  0.00    +0.000 A 
ATOM     18  C   UNL     1       7.490   4.774  15.905  0.00  0.00    +0.000 A 
ATOM     19  C   UNL     1       6.661   4.562  14.801  0.00  0.00    +0.000 A 
ATOM     20  C   UNL     1       5.306   4.275  14.985  0.00  0.00    +0.000 A 
ATOM     21  C   UNL     1       4.769   4.218  16.271  0.00  0.00    +0.000 A 
ENDBRANCH  13  16
ENDBRANCH  12  13
ENDBRANCH   2  12
TORSDOF 3
ENDMDL
MODEL 6
REMARK VINA RESULT:      -6.9      1.646      2.200
REMARK  Name = 
REMARK  3 active torsions:
REMARK  status: ('A' for Active; 'I' for Inactive)
REMARK    1  A    between atoms: C_2  and  C_3
REMARK    2  A    between atoms: C_3  and  S_4
REMARK    3  A    between atoms: S_4  and  C_7
REMARK                            x       y       z     vdW  Elec       q    Type
REMARK                         _______ _______ _______ _____ _____    ______ ____
ROOT
ATOM      1  O   UNL     1       3.153   7.037  17.868  0.00  0.00    +0.000 OA
ATOM      2  C   UNL     1       2.940   6.313  18.839  0.00  0.00    +0.000 C 
ATOM      3  N   UNL     1       2.349   6.695  20.030  0.00  0.00    +0.000 N 
ATOM      4  C   UNL     1       1.773   7.956  20.253  0.00  0.00    +0.000 A 
ATOM      5  C   UNL     1       1.433   8.298  21.560  0.00  0.00    +0.000 A 
ATOM      6  C   UNL     1       0.830   9.534  21.808  0.00  0.00    +0.000 A 
ATOM      7  C   UNL     1       0.572  10.386  20.742  0.00  0.00    +0.000 A 
ATOM      8 BR   UNL     1      -0.253  12.057  21.017  0.00  0.00    +0.000 Br
ATOM      9  C   UNL     1       0.931   9.970  19.474  0.00  0.00    +0.000 A 
ATOM     10  N   UNL     1       1.517   8.777  19.218  0.00  0.00    +0.000 NA
ATOM     11  H   UNL     1       2.408   6.074  20.831  0.00  0.00    +0.000 HD
ENDROOT
BRANCH   2  12
ATOM     12  C   UNL     1       3.237   4.850  18.716  0.00  0.00    +0.000 C 
BRANCH  12  13
ATOM     13  S   UNL     1       4.939   4.514  19.002  0.00  0.00    +0.000 S 
ATOM     14  O   UNL     1       5.541   5.608  19.735  0.00  0.00    +0.000 OA
ATOM     15  O   UNL     1       5.029   3.151  19.500  0.00  0.00    +0.000 OA
BRANCH  13  16
ATOM     16  C   UNL     1       5.606   4.546  17.351  0.00  0.00    +0.000 A 
ATOM     17  C   UNL     1       4.766   4.268  16.268  0.00  0.00    +0.000 A 
ATOM     18  C   UNL     1       5.303   4.204  14.983  0.00  0.00    +0.000 A 
ATOM     19  C   UNL     1       6.667   4.427  14.784  0.00  0.00    +0.000 A 
ATOM     20  C   UNL     1       7.494   4.736  15.867  0.00  0.00    +0.000 A 
ATOM     21  C   UNL     1       6.966   4.804  17.157  0.00  0.00    +0.000 A 
ENDBRANCH  13  16
ENDBRANCH  12  13
ENDBRANCH   2  12
TORSDOF 3
ENDMDL
MODEL 7
REMARK VINA RESULT:      -6.8      3.532      6.087
REMARK  Name = 
REMARK  3 active torsions:
REMARK  status: ('A' for Active; 'I' for Inactive)
REMARK    1  A    between atoms: C_2  and  C_3
REMARK    2  A    between atoms: C_3  and  S_4
REMARK    3  A    between atoms: S_4  and  C_7
REMARK                            x       y       z     vdW  Elec       q    Type
REMARK                         _______ _______ _______ _____ _____    ______ ____
ROOT
ATOM      1  O   UNL     1       5.646   4.409  19.209  0.00  0.00    +0.000 OA
ATOM      2  C   UNL     1       4.835   3.626  18.717  0.00  0.00    +0.000 C 
ATOM      3  N   UNL     1       4.650   3.380  17.369  0.00  0.00    +0.000 N 
ATOM      4  C   UNL     1       5.470   3.900  16.355  0.00  0.00    +0.000 A 
ATOM      5  C   UNL     1       5.037   3.780  15.036  0.00  0.00    +0.000 A 
ATOM      6  C   UNL     1       5.848   4.260  14.005  0.00  0.00    +0.000 A 
ATOM      7  C   UNL     1       7.074   4.832  14.318  0.00  0.00    +0.000 A 
ATOM      8 BR   UNL     1       8.214   5.480  12.967  0.00  0.00    +0.000 Br
ATOM      9  C   UNL     1       7.436   4.905  15.650  0.00  0.00    +0.000 A 
ATOM     10  N   UNL     1       6.661   4.447  16.661  0.00  0.00    +0.000 NA
ATOM     11  H   UNL     1       3.821   2.875  17.069  0.00  0.00    +0.000 HD
ENDROOT
BRANCH   2  12
ATOM     12  C   UNL     1       4.030   2.761  19.638  0.00  0.00    +0.000 C 
BRANCH  12  13
ATOM     13  S   UNL     1       2.305   2.981  19.382  0.00  0.00    +0.000 S 
ATOM     14  O   UNL     1       1.944   2.544  18.050  0.00  0.00    +0.000 OA
ATOM     15  O   UNL     1       1.626   2.439  20.548  0.00  0.00    +0.000 OA
BRANCH  13  16
ATOM     16  C   UNL     1       2.146   4.754  19.423  0.00  0.00    +0.000 A 
ATOM     17  C   UNL     1       2.294   5.482  18.238  0.00  0.00    +0.000 A 
ATOM     18  C   UNL     1       2.260   6.874  18.280  0.00  0.00    +0.000 A 
ATOM     19  C   UNL     1       2.069   7.532  19.497  0.00  0.00    +0.000 A 
ATOM     20  C   UNL     1       1.891   6.797  20.672  0.00  0.00    +0.000 A 
ATOM     21  C   UNL     1       1.922   5.403  20.640  0.00  0.00    +0.000 A 
ENDBRANCH  13  16
ENDBRANCH  12  13
ENDBRANCH   2  12
TORSDOF 3
ENDMDL
MODEL 8
REMARK VINA RESULT:      -6.8      1.922      4.027
REMARK  Name = 
REMARK  3 active torsions:
REMARK  status: ('A' for Active; 'I' for Inactive)
REMARK    1  A    between atoms: C_2  and  C_3
REMARK    2  A    between atoms: C_3  and  S_4
REMARK    3  A    between atoms: S_4  and  C_7
REMARK                            x       y       z     vdW  Elec       q    Type
REMARK                         _______ _______ _______ _____ _____    ______ ____
ROOT
ATOM      1  O   UNL     1       4.464   6.468  16.898  0.00  0.00    +0.000 OA
ATOM      2  C   UNL     1       4.153   5.768  17.860  0.00  0.00    +0.000 C 
ATOM      3  N   UNL     1       3.306   6.125  18.893  0.00  0.00    +0.000 N 
ATOM      4  C   UNL     1       2.558   7.313  18.920  0.00  0.00    +0.000 A 
ATOM      5  C   UNL     1       1.937   7.669  20.116  0.00  0.00    +0.000 A 
ATOM      6  C   UNL     1       1.161   8.830  20.164  0.00  0.00    +0.000 A 
ATOM      7  C   UNL     1       1.015   9.594  19.014  0.00  0.00    +0.000 A 
ATOM      8 BR   UNL     1      -0.033  11.159  19.018  0.00  0.00    +0.000 Br
ATOM      9  C   UNL     1       1.655   9.169  17.865  0.00  0.00    +0.000 A 
ATOM     10  N   UNL     1       2.412   8.048  17.803  0.00  0.00    +0.000 NA
ATOM     11  H   UNL     1       3.282   5.554  19.732  0.00  0.00    +0.000 HD
ENDROOT
BRANCH   2  12
ATOM     12  C   UNL     1       4.634   4.349  17.893  0.00  0.00    +0.000 C 
BRANCH  12  13
ATOM     13  S   UNL     1       3.316   3.217  17.621  0.00  0.00    +0.000 S 
ATOM     14  O   UNL     1       2.326   3.814  16.749  0.00  0.00    +0.000 OA
ATOM     15  O   UNL     1       3.915   1.933  17.292  0.00  0.00    +0.000 OA
BRANCH  13  16
ATOM     16  C   UNL     1       2.593   3.092  19.243  0.00  0.00    +0.000 A 
ATOM     17  C   UNL     1       3.391   2.691  20.319  0.00  0.00    +0.000 A 
ATOM     18  C   UNL     1       2.809   2.506  21.572  0.00  0.00    +0.000 A 
ATOM     19  C   UNL     1       1.442   2.730  21.748  0.00  0.00    +0.000 A 
ATOM     20  C   UNL     1       0.657   3.161  20.675  0.00  0.00    +0.000 A 
ATOM     21  C   UNL     1       1.231   3.351  19.417  0.00  0.00    +0.000 A 
ENDBRANCH  13  16
ENDBRANCH  12  13
ENDBRANCH   2  12
TORSDOF 3
ENDMDL
MODEL 9
REMARK VINA RESULT:      -6.7      1.962      3.936
REMARK  Name = 
REMARK  3 active torsions:
REMARK  status: ('A' for Active; 'I' for Inactive)
REMARK    1  A    between atoms: C_2  and  C_3
REMARK    2  A    between atoms: C_3  and  S_4
REMARK    3  A    between atoms: S_4  and  C_7
REMARK                            x       y       z     vdW  Elec       q    Type
REMARK                         _______ _______ _______ _____ _____    ______ ____
ROOT
ATOM      1  O   UNL     1       4.513   6.233  16.876  0.00  0.00    +0.000 OA
ATOM      2  C   UNL     1       4.216   5.568  17.868  0.00  0.00    +0.000 C 
ATOM      3  N   UNL     1       3.386   5.966  18.901  0.00  0.00    +0.000 N 
ATOM      4  C   UNL     1       2.641   7.155  18.897  0.00  0.00    +0.000 A 
ATOM      5  C   UNL     1       2.040   7.556  20.088  0.00  0.00    +0.000 A 
ATOM      6  C   UNL     1       1.267   8.719  20.107  0.00  0.00    +0.000 A 
ATOM      7  C   UNL     1       1.103   9.441  18.931  0.00  0.00    +0.000 A 
ATOM      8 BR   UNL     1       0.058  11.007  18.895  0.00  0.00    +0.000 Br
ATOM      9  C   UNL     1       1.724   8.973  17.789  0.00  0.00    +0.000 A 
ATOM     10  N   UNL     1       2.478   7.849  17.755  0.00  0.00    +0.000 NA
ATOM     11  H   UNL     1       3.375   5.425  19.761  0.00  0.00    +0.000 HD
ENDROOT
BRANCH   2  12
ATOM     12  C   UNL     1       4.696   4.151  17.946  0.00  0.00    +0.000 C 
BRANCH  12  13
ATOM     13  S   UNL     1       3.394   3.014  17.623  0.00  0.00    +0.000 S 
ATOM     14  O   UNL     1       2.447   3.598  16.696  0.00  0.00    +0.000 OA
ATOM     15  O   UNL     1       4.009   1.727  17.340  0.00  0.00    +0.000 OA
BRANCH  13  16
ATOM     16  C   UNL     1       2.591   2.908  19.209  0.00  0.00    +0.000 A 
ATOM     17  C   UNL     1       1.218   3.159  19.299  0.00  0.00    +0.000 A 
ATOM     18  C   UNL     1       0.604   3.165  20.550  0.00  0.00    +0.000 A 
ATOM     19  C   UNL     1       1.356   2.912  21.699  0.00  0.00    +0.000 A 
ATOM     20  C   UNL     1       2.721   2.631  21.598  0.00  0.00    +0.000 A 
ATOM     21  C   UNL     1       3.345   2.621  20.350  0.00  0.00    +0.000 A 
ENDBRANCH  13  16
ENDBRANCH  12  13
ENDBRANCH   2  12
TORSDOF 3
ENDMDL
