MODEL 1
REMARK VINA RESULT:      -7.4      0.000      0.000
REMARK  Name = 
REMARK  11 active torsions:
REMARK  status: ('A' for Active; 'I' for Inactive)
REMARK    1  A    between atoms: C_1  and  C_2
REMARK    2  A    between atoms: C_2  and  C_3
REMARK    3  A    between atoms: C_2  and  O_4
REMARK    4  A    between atoms: O_4  and  C_5
REMARK    5  A    between atoms: C_5  and  C_6
REMARK    6  A    between atoms: C_6  and  C_7
REMARK    7  A    between atoms: C_7  and  N_8
REMARK    8  A    between atoms: C_9  and  C_11
REMARK    9  A    between atoms: C_11  and  N_12
REMARK   10  A    between atoms: C_20  and  S_21
REMARK   11  A    between atoms: S_21  and  N_24
REMARK                            x       y       z     vdW  Elec       q    Type
REMARK                         _______ _______ _______ _____ _____    ______ ____
ROOT
ATOM      1  N   UNL     1       3.082   6.367  18.526  0.00  0.00    +0.000 N 
ATOM      2  C   UNL     1       3.422   5.081  18.920  0.00  0.00    +0.000 C 
ATOM      3  O   UNL     1       4.084   4.318  18.216  0.00  0.00    +0.000 OA
ATOM      4  C   UNL     1       3.027   4.715  20.347  0.00  0.00    +0.000 C 
ATOM      5  O   UNL     1       1.907   5.343  20.938  0.00  0.00    +0.000 OA
ATOM      6  C   UNL     1       1.748   6.649  20.556  0.00  0.00    +0.000 A 
ATOM      7  C   UNL     1       0.901   7.415  21.366  0.00  0.00    +0.000 A 
ATOM      8  C   UNL     1       0.644   8.751  21.049  0.00  0.00    +0.000 A 
ATOM      9  C   UNL     1       1.249   9.317  19.932  0.00  0.00    +0.000 A 
ATOM     10  C   UNL     1       2.063   8.534  19.102  0.00  0.00    +0.000 A 
ATOM     11  C   UNL     1       2.315   7.188  19.394  0.00  0.00    +0.000 A 
ENDROOT
BRANCH   9  12
ATOM     12  S   UNL     1       0.876  11.011  19.486  0.00  0.00    +0.000 S 
ATOM     13  O   UNL     1       0.902  11.791  20.697  0.00  0.00    +0.000 OA
ATOM     14  O   UNL     1       1.744  11.347  18.366  0.00  0.00    +0.000 OA
BRANCH  12  15
ATOM     15  N   UNL     1      -0.739  10.943  18.907  0.00  0.00    +0.000 NA
ATOM     16  C   UNL     1      -1.514  12.206  18.922  0.00  0.00    +0.000 C 
ATOM     17  C   UNL     1      -2.993  12.002  19.258  0.00  0.00    +0.000 C 
ATOM     18  C   UNL     1      -3.850  11.590  18.067  0.00  0.00    +0.000 C 
ATOM     19  C   UNL     1      -3.490  10.222  17.514  0.00  0.00    +0.000 C 
ATOM     20  C   UNL     1      -2.108  10.208  16.880  0.00  0.00    +0.000 C 
ATOM     21  C   UNL     1      -0.954   9.946  17.831  0.00  0.00    +0.000 C 
ENDBRANCH  12  15
ENDBRANCH   9  12
BRANCH   1  22
ATOM     22  C   UNL     1       3.437   6.805  17.171  0.00  0.00    +0.000 C 
BRANCH  22  24
ATOM     23  N   UNL     1       5.061   5.544  15.809  0.00  0.00    +0.000 N 
ATOM     24  C   UNL     1       4.884   6.473  16.808  0.00  0.00    +0.000 C 
ATOM     25  O   UNL     1       5.833   7.041  17.362  0.00  0.00    +0.000 OA
ATOM     26  H   UNL     1       4.242   5.120  15.370  0.00  0.00    +0.000 HD
BRANCH  23  27
ATOM     27  C   UNL     1       6.390   5.138  15.410  0.00  0.00    +0.000 C 
BRANCH  27  28
ATOM     28  C   UNL     1       6.378   3.962  14.438  0.00  0.00    +0.000 C 
BRANCH  28  29
ATOM     29  C   UNL     1       7.193   4.310  13.198  0.00  0.00    +0.000 C 
BRANCH  29  30
ATOM     30  O   UNL     1       6.423   4.079  12.017  0.00  0.00    +0.000 OA
BRANCH  30  32
ATOM     31  C   UNL     1       4.269   3.232  11.417  0.00  0.00    +0.000 C 
ATOM     32  C   UNL     1       5.603   2.908  12.084  0.00  0.00    +0.000 C 
ATOM     33  C   UNL     1       6.256   1.729  11.368  0.00  0.00    +0.000 C 
ENDBRANCH  30  32
ENDBRANCH  29  30
ENDBRANCH  28  29
ENDBRANCH  27  28
ENDBRANCH  23  27
ENDBRANCH  22  24
ENDBRANCH   1  22
TORSDOF 9
ENDMDL
MODEL 2
REMARK VINA RESULT:      -7.3      0.521      1.356
REMARK  Name = 
REMARK  11 active torsions:
REMARK  status: ('A' for Active; 'I' for Inactive)
REMARK    1  A    between atoms: C_1  and  C_2
REMARK    2  A    between atoms: C_2  and  C_3
REMARK    3  A    between atoms: C_2  and  O_4
REMARK    4  A    between atoms: O_4  and  C_5
REMARK    5  A    between atoms: C_5  and  C_6
REMARK    6  A    between atoms: C_6  and  C_7
REMARK    7  A    between atoms: C_7  and  N_8
REMARK    8  A    between atoms: C_9  and  C_11
REMARK    9  A    between atoms: C_11  and  N_12
REMARK   10  A    between atoms: C_20  and  S_21
REMARK   11  A    between atoms: S_21  and  N_24
REMARK                            x       y       z     vdW  Elec       q    Type
REMARK                         _______ _______ _______ _____ _____    ______ ____
ROOT
ATOM      1  N   UNL     1       2.972   6.434  18.589  0.00  0.00    +0.000 N 
ATOM      2  C   UNL     1       3.235   5.159  19.071  0.00  0.00    +0.000 C 
ATOM      3  O   UNL     1       3.876   4.323  18.436  0.00  0.00    +0.000 OA
ATOM      4  C   UNL     1       2.782   4.904  20.505  0.00  0.00    +0.000 C 
ATOM      5  O   UNL     1       1.680   5.622  21.022  0.00  0.00    +0.000 OA
ATOM      6  C   UNL     1       1.599   6.908  20.556  0.00  0.00    +0.000 A 
ATOM      7  C   UNL     1       0.771   7.765  21.291  0.00  0.00    +0.000 A 
ATOM      8  C   UNL     1       0.591   9.089  20.886  0.00  0.00    +0.000 A 
ATOM      9  C   UNL     1       1.255   9.554  19.755  0.00  0.00    +0.000 A 
ATOM     10  C   UNL     1       2.050   8.680  19.000  0.00  0.00    +0.000 A 
ATOM     11  C   UNL     1       2.224   7.344  19.381  0.00  0.00    +0.000 A 
ENDROOT
BRANCH   9  12
ATOM     12  S   UNL     1       0.982  11.233  19.195  0.00  0.00    +0.000 S 
ATOM     13  O   UNL     1       0.983  12.081  20.359  0.00  0.00    +0.000 OA
ATOM     14  O   UNL     1       1.918  11.464  18.104  0.00  0.00    +0.000 OA
BRANCH  12  15
ATOM     15  N   UNL     1      -0.604  11.199  18.538  0.00  0.00    +0.000 NA
ATOM     16  C   UNL     1      -1.106   9.891  18.056  0.00  0.00    +0.000 C 
ATOM     17  C   UNL     1      -1.984  10.006  16.808  0.00  0.00    +0.000 C 
ATOM     18  C   UNL     1      -3.438  10.359  17.100  0.00  0.00    +0.000 C 
ATOM     19  C   UNL     1      -3.609  11.744  17.700  0.00  0.00    +0.000 C 
ATOM     20  C   UNL     1      -3.013  11.840  19.095  0.00  0.00    +0.000 C 
ATOM     21  C   UNL     1      -1.535  12.177  19.154  0.00  0.00    +0.000 C 
ENDBRANCH  12  15
ENDBRANCH   9  12
BRANCH   1  22
ATOM     22  C   UNL     1       3.386   6.768  17.221  0.00  0.00    +0.000 C 
BRANCH  22  24
ATOM     23  N   UNL     1       5.229   5.503  16.178  0.00  0.00    +0.000 N 
ATOM     24  C   UNL     1       4.882   6.555  16.993  0.00  0.00    +0.000 C 
ATOM     25  O   UNL     1       5.723   7.315  17.489  0.00  0.00    +0.000 OA
ATOM     26  H   UNL     1       4.493   4.919  15.777  0.00  0.00    +0.000 HD
BRANCH  23  27
ATOM     27  C   UNL     1       6.619   5.198  15.921  0.00  0.00    +0.000 C 
BRANCH  27  28
ATOM     28  C   UNL     1       6.895   4.920  14.446  0.00  0.00    +0.000 C 
BRANCH  28  29
ATOM     29  C   UNL     1       5.715   4.177  13.832  0.00  0.00    +0.000 C 
BRANCH  29  30
ATOM     30  O   UNL     1       6.163   2.988  13.179  0.00  0.00    +0.000 OA
BRANCH  30  32
ATOM     31  C   UNL     1       6.016   1.486  11.323  0.00  0.00    +0.000 C 
ATOM     32  C   UNL     1       5.805   2.923  11.794  0.00  0.00    +0.000 C 
ATOM     33  C   UNL     1       4.347   3.320  11.577  0.00  0.00    +0.000 C 
ENDBRANCH  30  32
ENDBRANCH  29  30
ENDBRANCH  28  29
ENDBRANCH  27  28
ENDBRANCH  23  27
ENDBRANCH  22  24
ENDBRANCH   1  22
TORSDOF 9
ENDMDL
MODEL 3
REMARK VINA RESULT:      -7.2      2.476      4.237
REMARK  Name = 
REMARK  11 active torsions:
REMARK  status: ('A' for Active; 'I' for Inactive)
REMARK    1  A    between atoms: C_1  and  C_2
REMARK    2  A    between atoms: C_2  and  C_3
REMARK    3  A    between atoms: C_2  and  O_4
REMARK    4  A    between atoms: O_4  and  C_5
REMARK    5  A    between atoms: C_5  and  C_6
REMARK    6  A    between atoms: C_6  and  C_7
REMARK    7  A    between atoms: C_7  and  N_8
REMARK    8  A    between atoms: C_9  and  C_11
REMARK    9  A    between atoms: C_11  and  N_12
REMARK   10  A    between atoms: C_20  and  S_21
REMARK   11  A    between atoms: S_21  and  N_24
REMARK                            x       y       z     vdW  Elec       q    Type
REMARK                         _______ _______ _______ _____ _____    ______ ____
ROOT
ATOM      1  N   UNL     1       3.260   6.027  18.385  0.00  0.00    +0.000 N 
ATOM      2  C   UNL     1       3.563   4.748  18.829  0.00  0.00    +0.000 C 
ATOM      3  O   UNL     1       4.214   3.944  18.162  0.00  0.00    +0.000 OA
ATOM      4  C   UNL     1       3.143   4.444  20.264  0.00  0.00    +0.000 C 
ATOM      5  O   UNL     1       2.033   5.120  20.819  0.00  0.00    +0.000 OA
ATOM      6  C   UNL     1       1.911   6.415  20.388  0.00  0.00    +0.000 A 
ATOM      7  C   UNL     1       1.074   7.231  21.160  0.00  0.00    +0.000 A 
ATOM      8  C   UNL     1       0.854   8.560  20.792  0.00  0.00    +0.000 A 
ATOM      9  C   UNL     1       1.485   9.070  19.662  0.00  0.00    +0.000 A 
ATOM     10  C   UNL     1       2.288   8.237  18.871  0.00  0.00    +0.000 A 
ATOM     11  C   UNL     1       2.503   6.897  19.214  0.00  0.00    +0.000 A 
ENDROOT
BRANCH   9  12
ATOM     12  S   UNL     1       1.159  10.755  19.151  0.00  0.00    +0.000 S 
ATOM     13  O   UNL     1       1.314  11.595  20.311  0.00  0.00    +0.000 OA
ATOM     14  O   UNL     1       1.953  10.987  17.953  0.00  0.00    +0.000 OA
BRANCH  12  15
ATOM     15  N   UNL     1      -0.497  10.740  18.698  0.00  0.00    +0.000 NA
ATOM     16  C   UNL     1      -1.207  12.040  18.697  0.00  0.00    +0.000 C 
ATOM     17  C   UNL     1      -2.664  11.932  19.153  0.00  0.00    +0.000 C 
ATOM     18  C   UNL     1      -3.629  11.501  18.055  0.00  0.00    +0.000 C 
ATOM     19  C   UNL     1      -3.378  10.088  17.556  0.00  0.00    +0.000 C 
ATOM     20  C   UNL     1      -2.051   9.968  16.824  0.00  0.00    +0.000 C 
ATOM     21  C   UNL     1      -0.842   9.698  17.700  0.00  0.00    +0.000 C 
ENDBRANCH  12  15
ENDBRANCH   9  12
BRANCH   1  22
ATOM     22  C   UNL     1       3.640   6.407  17.019  0.00  0.00    +0.000 C 
BRANCH  22  24
ATOM     23  N   UNL     1       5.932   6.249  17.916  0.00  0.00    +0.000 N 
ATOM     24  C   UNL     1       5.148   6.325  16.788  0.00  0.00    +0.000 C 
ATOM     25  O   UNL     1       5.623   6.292  15.646  0.00  0.00    +0.000 OA
ATOM     26  H   UNL     1       5.487   6.259  18.835  0.00  0.00    +0.000 HD
BRANCH  23  27
ATOM     27  C   UNL     1       7.373   6.197  17.807  0.00  0.00    +0.000 C 
BRANCH  27  28
ATOM     28  C   UNL     1       8.057   7.374  18.497  0.00  0.00    +0.000 C 
BRANCH  28  29
ATOM     29  C   UNL     1       8.093   8.572  17.556  0.00  0.00    +0.000 C 
BRANCH  29  30
ATOM     30  O   UNL     1       7.975   9.788  18.296  0.00  0.00    +0.000 OA
BRANCH  30  32
ATOM     31  C   UNL     1       8.851  11.961  17.814  0.00  0.00    +0.000 C 
ATOM     32  C   UNL     1       9.179  10.562  18.327  0.00  0.00    +0.000 C 
ATOM     33  C   UNL     1       9.743  10.658  19.743  0.00  0.00    +0.000 C 
ENDBRANCH  30  32
ENDBRANCH  29  30
ENDBRANCH  28  29
ENDBRANCH  27  28
ENDBRANCH  23  27
ENDBRANCH  22  24
ENDBRANCH   1  22
TORSDOF 9
ENDMDL
MODEL 4
REMARK VINA RESULT:      -7.0      4.050      6.963
REMARK  Name = 
REMARK  11 active torsions:
REMARK  status: ('A' for Active; 'I' for Inactive)
REMARK    1  A    between atoms: C_1  and  C_2
REMARK    2  A    between atoms: C_2  and  C_3
REMARK    3  A    between atoms: C_2  and  O_4
REMARK    4  A    between atoms: O_4  and  C_5
REMARK    5  A    between atoms: C_5  and  C_6
REMARK    6  A    between atoms: C_6  and  C_7
REMARK    7  A    between atoms: C_7  and  N_8
REMARK    8  A    between atoms: C_9  and  C_11
REMARK    9  A    between atoms: C_11  and  N_12
REMARK   10  A    between atoms: C_20  and  S_21
REMARK   11  A    between atoms: S_21  and  N_24
REMARK                            x       y       z     vdW  Elec       q    Type
REMARK                         _______ _______ _______ _____ _____    ______ ____
ROOT
ATOM      1  N   UNL     1       6.168   4.868  17.552  0.00  0.00    +0.000 N 
ATOM      2  C   UNL     1       6.872   4.373  16.464  0.00  0.00    +0.000 C 
ATOM      3  O   UNL     1       8.060   4.624  16.265  0.00  0.00    +0.000 OA
ATOM      4  C   UNL     1       6.106   3.383  15.591  0.00  0.00    +0.000 C 
ATOM      5  O   UNL     1       4.697   3.473  15.516  0.00  0.00    +0.000 OA
ATOM      6  C   UNL     1       4.111   3.862  16.692  0.00  0.00    +0.000 A 
ATOM      7  C   UNL     1       2.735   3.618  16.789  0.00  0.00    +0.000 A 
ATOM      8  C   UNL     1       2.032   4.003  17.932  0.00  0.00    +0.000 A 
ATOM      9  C   UNL     1       2.713   4.615  18.980  0.00  0.00    +0.000 A 
ATOM     10  C   UNL     1       4.081   4.893  18.860  0.00  0.00    +0.000 A 
ATOM     11  C   UNL     1       4.797   4.532  17.712  0.00  0.00    +0.000 A 
ENDROOT
BRANCH   9  12
ATOM     12  S   UNL     1       1.806   5.166  20.423  0.00  0.00    +0.000 S 
ATOM     13  O   UNL     1       0.567   4.431  20.460  0.00  0.00    +0.000 OA
ATOM     14  O   UNL     1       2.735   5.114  21.542  0.00  0.00    +0.000 OA
BRANCH  12  15
ATOM     15  N   UNL     1       1.459   6.815  20.093  0.00  0.00    +0.000 NA
ATOM     16  C   UNL     1       1.466   7.748  21.243  0.00  0.00    +0.000 C 
ATOM     17  C   UNL     1       0.402   8.842  21.138  0.00  0.00    +0.000 C 
ATOM     18  C   UNL     1       0.816  10.032  20.280  0.00  0.00    +0.000 C 
ATOM     19  C   UNL     1       1.010   9.677  18.816  0.00  0.00    +0.000 C 
ATOM     20  C   UNL     1       2.199   8.754  18.604  0.00  0.00    +0.000 C 
ATOM     21  C   UNL     1       1.911   7.272  18.756  0.00  0.00    +0.000 C 
ENDBRANCH  12  15
ENDBRANCH   9  12
BRANCH   1  22
ATOM     22  C   UNL     1       6.835   5.817  18.450  0.00  0.00    +0.000 C 
BRANCH  22  24
ATOM     23  N   UNL     1       8.123   7.908  18.220  0.00  0.00    +0.000 N 
ATOM     24  C   UNL     1       7.019   7.194  17.814  0.00  0.00    +0.000 C 
ATOM     25  O   UNL     1       6.234   7.617  16.956  0.00  0.00    +0.000 OA
ATOM     26  H   UNL     1       8.751   7.502  18.915  0.00  0.00    +0.000 HD
BRANCH  23  27
ATOM     27  C   UNL     1       8.374   9.233  17.699  0.00  0.00    +0.000 C 
BRANCH  27  28
ATOM     28  C   UNL     1       8.951  10.177  18.751  0.00  0.00    +0.000 C 
BRANCH  28  29
ATOM     29  C   UNL     1       9.266  11.525  18.115  0.00  0.00    +0.000 C 
BRANCH  29  30
ATOM     30  O   UNL     1       9.725  12.446  19.107  0.00  0.00    +0.000 OA
BRANCH  30  32
ATOM     31  C   UNL     1      11.836  11.989  20.134  0.00  0.00    +0.000 C 
ATOM     32  C   UNL     1      10.323  11.816  20.244  0.00  0.00    +0.000 C 
ATOM     33  C   UNL     1       9.833  12.441  21.549  0.00  0.00    +0.000 C 
ENDBRANCH  30  32
ENDBRANCH  29  30
ENDBRANCH  28  29
ENDBRANCH  27  28
ENDBRANCH  23  27
ENDBRANCH  22  24
ENDBRANCH   1  22
TORSDOF 9
ENDMDL
MODEL 5
REMARK VINA RESULT:      -7.0      5.694      9.115
REMARK  Name = 
REMARK  11 active torsions:
REMARK  status: ('A' for Active; 'I' for Inactive)
REMARK    1  A    between atoms: C_1  and  C_2
REMARK    2  A    between atoms: C_2  and  C_3
REMARK    3  A    between atoms: C_2  and  O_4
REMARK    4  A    between atoms: O_4  and  C_5
REMARK    5  A    between atoms: C_5  and  C_6
REMARK    6  A    between atoms: C_6  and  C_7
REMARK    7  A    between atoms: C_7  and  N_8
REMARK    8  A    between atoms: C_9  and  C_11
REMARK    9  A    between atoms: C_11  and  N_12
REMARK   10  A    between atoms: C_20  and  S_21
REMARK   11  A    between atoms: S_21  and  N_24
REMARK                            x       y       z     vdW  Elec       q    Type
REMARK                         _______ _______ _______ _____ _____    ______ ____
ROOT
ATOM      1  N   UNL     1       0.181  10.458  19.563  0.00  0.00    +0.000 N 
ATOM      2  C   UNL     1       0.889   9.271  19.441  0.00  0.00    +0.000 C 
ATOM      3  O   UNL     1       1.371   8.885  18.377  0.00  0.00    +0.000 OA
ATOM      4  C   UNL     1       1.144   8.532  20.751  0.00  0.00    +0.000 C 
ATOM      5  O   UNL     1       0.232   8.683  21.821  0.00  0.00    +0.000 OA
ATOM      6  C   UNL     1      -0.312   9.938  21.901  0.00  0.00    +0.000 A 
ATOM      7  C   UNL     1      -0.921  10.254  23.122  0.00  0.00    +0.000 A 
ATOM      8  C   UNL     1      -1.535  11.495  23.301  0.00  0.00    +0.000 A 
ATOM      9  C   UNL     1      -1.521  12.421  22.263  0.00  0.00    +0.000 A 
ATOM     10  C   UNL     1      -0.946  12.084  21.030  0.00  0.00    +0.000 A 
ATOM     11  C   UNL     1      -0.345  10.836  20.827  0.00  0.00    +0.000 A 
ENDROOT
BRANCH   9  12
ATOM     12  S   UNL     1      -2.359  13.991  22.466  0.00  0.00    +0.000 S 
ATOM     13  O   UNL     1      -1.824  14.615  23.649  0.00  0.00    +0.000 OA
ATOM     14  O   UNL     1      -2.297  14.665  21.176  0.00  0.00    +0.000 OA
BRANCH  12  15
ATOM     15  N   UNL     1      -3.993  13.556  22.762  0.00  0.00    +0.000 NA
ATOM     16  C   UNL     1      -4.671  12.741  21.727  0.00  0.00    +0.000 C 
ATOM     17  C   UNL     1      -6.149  13.097  21.552  0.00  0.00    +0.000 C 
ATOM     18  C   UNL     1      -7.074  12.429  22.561  0.00  0.00    +0.000 C 
ATOM     19  C   UNL     1      -6.835  12.889  23.989  0.00  0.00    +0.000 C 
ATOM     20  C   UNL     1      -5.480  12.442  24.515  0.00  0.00    +0.000 C 
ATOM     21  C   UNL     1      -4.318  13.364  24.196  0.00  0.00    +0.000 C 
ENDBRANCH  12  15
ENDBRANCH   9  12
BRANCH   1  22
ATOM     22  C   UNL     1      -0.097  11.239  18.352  0.00  0.00    +0.000 C 
BRANCH  22  24
ATOM     23  N   UNL     1      -2.359  11.813  17.550  0.00  0.00    +0.000 N 
ATOM     24  C   UNL     1      -1.407  10.828  17.679  0.00  0.00    +0.000 C 
ATOM     25  O   UNL     1      -1.576   9.682  17.246  0.00  0.00    +0.000 OA
ATOM     26  H   UNL     1      -2.159  12.749  17.907  0.00  0.00    +0.000 HD
BRANCH  23  27
ATOM     27  C   UNL     1      -3.643  11.521  16.953  0.00  0.00    +0.000 C 
BRANCH  27  28
ATOM     28  C   UNL     1      -4.596  10.830  17.924  0.00  0.00    +0.000 C 
BRANCH  28  29
ATOM     29  C   UNL     1      -5.779  11.744  18.222  0.00  0.00    +0.000 C 
BRANCH  29  30
ATOM     30  O   UNL     1      -5.814  12.828  17.293  0.00  0.00    +0.000 OA
BRANCH  30  32
ATOM     31  C   UNL     1      -7.893  13.379  18.340  0.00  0.00    +0.000 C 
ATOM     32  C   UNL     1      -7.135  13.305  17.016  0.00  0.00    +0.000 C 
ATOM     33  C   UNL     1      -7.104  14.689  16.372  0.00  0.00    +0.000 C 
ENDBRANCH  30  32
ENDBRANCH  29  30
ENDBRANCH  28  29
ENDBRANCH  27  28
ENDBRANCH  23  27
ENDBRANCH  22  24
ENDBRANCH   1  22
TORSDOF 9
ENDMDL
MODEL 6
REMARK VINA RESULT:      -7.0      1.488      2.159
REMARK  Name = 
REMARK  11 active torsions:
REMARK  status: ('A' for Active; 'I' for Inactive)
REMARK    1  A    between atoms: C_1  and  C_2
REMARK    2  A    between atoms: C_2  and  C_3
REMARK    3  A    between atoms: C_2  and  O_4
REMARK    4  A    between atoms: O_4  and  C_5
REMARK    5  A    between atoms: C_5  and  C_6
REMARK    6  A    between atoms: C_6  and  C_7
REMARK    7  A    between atoms: C_7  and  N_8
REMARK    8  A    between atoms: C_9  and  C_11
REMARK    9  A    between atoms: C_11  and  N_12
REMARK   10  A    between atoms: C_20  and  S_21
REMARK   11  A    between atoms: S_21  and  N_24
REMARK                            x       y       z     vdW  Elec       q    Type
REMARK                         _______ _______ _______ _____ _____    ______ ____
ROOT
ATOM      1  N   UNL     1       2.699   5.936  18.877  0.00  0.00    +0.000 N 
ATOM      2  C   UNL     1       2.844   4.705  19.501  0.00  0.00    +0.000 C 
ATOM      3  O   UNL     1       3.387   3.741  18.962  0.00  0.00    +0.000 OA
ATOM      4  C   UNL     1       2.397   4.660  20.959  0.00  0.00    +0.000 C 
ATOM      5  O   UNL     1       1.381   5.540  21.399  0.00  0.00    +0.000 OA
ATOM      6  C   UNL     1       1.418   6.766  20.788  0.00  0.00    +0.000 A 
ATOM      7  C   UNL     1       0.693   7.780  21.427  0.00  0.00    +0.000 A 
ATOM      8  C   UNL     1       0.637   9.060  20.873  0.00  0.00    +0.000 A 
ATOM      9  C   UNL     1       1.321   9.324  19.691  0.00  0.00    +0.000 A 
ATOM     10  C   UNL     1       2.011   8.295  19.035  0.00  0.00    +0.000 A 
ATOM     11  C   UNL     1       2.060   7.001  19.566  0.00  0.00    +0.000 A 
ENDROOT
BRANCH   9  12
ATOM     12  S   UNL     1       1.204  10.948  18.943  0.00  0.00    +0.000 S 
ATOM     13  O   UNL     1       1.420  11.919  19.985  0.00  0.00    +0.000 OA
ATOM     14  O   UNL     1       2.053  10.923  17.761  0.00  0.00    +0.000 OA
BRANCH  12  15
ATOM     15  N   UNL     1      -0.430  11.050  18.424  0.00  0.00    +0.000 NA
ATOM     16  C   UNL     1      -1.054   9.805  17.917  0.00  0.00    +0.000 C 
ATOM     17  C   UNL     1      -2.022  10.047  16.757  0.00  0.00    +0.000 C 
ATOM     18  C   UNL     1      -3.421  10.470  17.191  0.00  0.00    +0.000 C 
ATOM     19  C   UNL     1      -3.451  11.825  17.877  0.00  0.00    +0.000 C 
ATOM     20  C   UNL     1      -2.738  11.802  19.219  0.00  0.00    +0.000 C 
ATOM     21  C   UNL     1      -1.240  12.044  19.169  0.00  0.00    +0.000 C 
ENDBRANCH  12  15
ENDBRANCH   9  12
BRANCH   1  22
ATOM     22  C   UNL     1       3.116   6.069  17.477  0.00  0.00    +0.000 C 
BRANCH  22  24
ATOM     23  N   UNL     1       5.473   5.835  18.167  0.00  0.00    +0.000 N 
ATOM     24  C   UNL     1       4.582   6.479  17.339  0.00  0.00    +0.000 C 
ATOM     25  O   UNL     1       4.940   7.317  16.502  0.00  0.00    +0.000 OA
ATOM     26  H   UNL     1       5.126   5.136  18.825  0.00  0.00    +0.000 HD
BRANCH  23  27
ATOM     27  C   UNL     1       6.879   6.170  18.136  0.00  0.00    +0.000 C 
BRANCH  27  28
ATOM     28  C   UNL     1       7.770   4.946  17.946  0.00  0.00    +0.000 C 
BRANCH  28  29
ATOM     29  C   UNL     1       7.591   4.393  16.537  0.00  0.00    +0.000 C 
BRANCH  29  30
ATOM     30  O   UNL     1       7.457   5.462  15.598  0.00  0.00    +0.000 OA
BRANCH  30  32
ATOM     31  C   UNL     1       7.550   4.846  13.289  0.00  0.00    +0.000 C 
ATOM     32  C   UNL     1       6.632   5.140  14.473  0.00  0.00    +0.000 C 
ATOM     33  C   UNL     1       5.760   3.919  14.755  0.00  0.00    +0.000 C 
ENDBRANCH  30  32
ENDBRANCH  29  30
ENDBRANCH  28  29
ENDBRANCH  27  28
ENDBRANCH  23  27
ENDBRANCH  22  24
ENDBRANCH   1  22
TORSDOF 9
ENDMDL
MODEL 7
REMARK VINA RESULT:      -6.9      4.295      6.996
REMARK  Name = 
REMARK  11 active torsions:
REMARK  status: ('A' for Active; 'I' for Inactive)
REMARK    1  A    between atoms: C_1  and  C_2
REMARK    2  A    between atoms: C_2  and  C_3
REMARK    3  A    between atoms: C_2  and  O_4
REMARK    4  A    between atoms: O_4  and  C_5
REMARK    5  A    between atoms: C_5  and  C_6
REMARK    6  A    between atoms: C_6  and  C_7
REMARK    7  A    between atoms: C_7  and  N_8
REMARK    8  A    between atoms: C_9  and  C_11
REMARK    9  A    between atoms: C_11  and  N_12
REMARK   10  A    between atoms: C_20  and  S_21
REMARK   11  A    between atoms: S_21  and  N_24
REMARK                            x       y       z     vdW  Elec       q    Type
REMARK                         _______ _______ _______ _____ _____    ______ ____
ROOT
ATOM      1  N   UNL     1       5.956   5.738  16.751  0.00  0.00    +0.000 N 
ATOM      2  C   UNL     1       6.824   5.215  15.802  0.00  0.00    +0.000 C 
ATOM      3  O   UNL     1       7.729   5.871  15.289  0.00  0.00    +0.000 OA
ATOM      4  C   UNL     1       6.661   3.723  15.528  0.00  0.00    +0.000 C 
ATOM      5  O   UNL     1       5.395   3.119  15.712  0.00  0.00    +0.000 OA
ATOM      6  C   UNL     1       4.684   3.649  16.755  0.00  0.00    +0.000 A 
ATOM      7  C   UNL     1       3.612   2.871  17.211  0.00  0.00    +0.000 A 
ATOM      8  C   UNL     1       2.801   3.331  18.250  0.00  0.00    +0.000 A 
ATOM      9  C   UNL     1       3.076   4.561  18.839  0.00  0.00    +0.000 A 
ATOM     10  C   UNL     1       4.124   5.353  18.351  0.00  0.00    +0.000 A 
ATOM     11  C   UNL     1       4.935   4.916  17.297  0.00  0.00    +0.000 A 
ENDROOT
BRANCH   9  12
ATOM     12  S   UNL     1       2.003   5.184  20.131  0.00  0.00    +0.000 S 
ATOM     13  O   UNL     1       0.784   4.418  20.085  0.00  0.00    +0.000 OA
ATOM     14  O   UNL     1       2.803   5.238  21.346  0.00  0.00    +0.000 OA
BRANCH  12  15
ATOM     15  N   UNL     1       1.661   6.795  19.646  0.00  0.00    +0.000 NA
ATOM     16  C   UNL     1       1.739   7.844  20.690  0.00  0.00    +0.000 C 
ATOM     17  C   UNL     1       0.685   8.940  20.523  0.00  0.00    +0.000 C 
ATOM     18  C   UNL     1       1.069  10.026  19.525  0.00  0.00    +0.000 C 
ATOM     19  C   UNL     1       1.181   9.516  18.099  0.00  0.00    +0.000 C 
ATOM     20  C   UNL     1       2.345   8.555  17.925  0.00  0.00    +0.000 C 
ATOM     21  C   UNL     1       2.048   7.102  18.247  0.00  0.00    +0.000 C 
ENDBRANCH  12  15
ENDBRANCH   9  12
BRANCH   1  22
ATOM     22  C   UNL     1       6.053   7.164  17.083  0.00  0.00    +0.000 C 
BRANCH  22  24
ATOM     23  N   UNL     1       7.756   8.790  17.818  0.00  0.00    +0.000 N 
ATOM     24  C   UNL     1       7.308   7.492  17.893  0.00  0.00    +0.000 C 
ATOM     25  O   UNL     1       7.858   6.639  18.601  0.00  0.00    +0.000 OA
ATOM     26  H   UNL     1       7.252   9.459  17.234  0.00  0.00    +0.000 HD
BRANCH  23  27
ATOM     27  C   UNL     1       8.951   9.197  18.524  0.00  0.00    +0.000 C 
BRANCH  27  28
ATOM     28  C   UNL     1       8.923  10.670  18.922  0.00  0.00    +0.000 C 
BRANCH  28  29
ATOM     29  C   UNL     1      10.346  11.172  19.136  0.00  0.00    +0.000 C 
BRANCH  29  30
ATOM     30  O   UNL     1      10.927  11.560  17.889  0.00  0.00    +0.000 OA
BRANCH  30  32
ATOM     31  C   UNL     1      11.948  13.407  16.762  0.00  0.00    +0.000 C 
ATOM     32  C   UNL     1      11.964  12.539  18.018  0.00  0.00    +0.000 C 
ATOM     33  C   UNL     1      11.747  13.420  19.247  0.00  0.00    +0.000 C 
ENDBRANCH  30  32
ENDBRANCH  29  30
ENDBRANCH  28  29
ENDBRANCH  27  28
ENDBRANCH  23  27
ENDBRANCH  22  24
ENDBRANCH   1  22
TORSDOF 9
ENDMDL
MODEL 8
REMARK VINA RESULT:      -6.8      1.626      2.165
REMARK  Name = 
REMARK  11 active torsions:
REMARK  status: ('A' for Active; 'I' for Inactive)
REMARK    1  A    between atoms: C_1  and  C_2
REMARK    2  A    between atoms: C_2  and  C_3
REMARK    3  A    between atoms: C_2  and  O_4
REMARK    4  A    between atoms: O_4  and  C_5
REMARK    5  A    between atoms: C_5  and  C_6
REMARK    6  A    between atoms: C_6  and  C_7
REMARK    7  A    between atoms: C_7  and  N_8
REMARK    8  A    between atoms: C_9  and  C_11
REMARK    9  A    between atoms: C_11  and  N_12
REMARK   10  A    between atoms: C_20  and  S_21
REMARK   11  A    between atoms: S_21  and  N_24
REMARK                            x       y       z     vdW  Elec       q    Type
REMARK                         _______ _______ _______ _____ _____    ______ ____
ROOT
ATOM      1  N   UNL     1       3.199   4.362  18.753  0.00  0.00    +0.000 N 
ATOM      2  C   UNL     1       3.401   3.214  19.505  0.00  0.00    +0.000 C 
ATOM      3  O   UNL     1       3.938   2.203  19.052  0.00  0.00    +0.000 OA
ATOM      4  C   UNL     1       3.027   3.330  20.979  0.00  0.00    +0.000 C 
ATOM      5  O   UNL     1       2.015   4.239  21.368  0.00  0.00    +0.000 OA
ATOM      6  C   UNL     1       1.995   5.386  20.620  0.00  0.00    +0.000 A 
ATOM      7  C   UNL     1       1.280   6.455  21.174  0.00  0.00    +0.000 A 
ATOM      8  C   UNL     1       1.169   7.662  20.482  0.00  0.00    +0.000 A 
ATOM      9  C   UNL     1       1.789   7.799  19.243  0.00  0.00    +0.000 A 
ATOM     10  C   UNL     1       2.468   6.713  18.675  0.00  0.00    +0.000 A 
ATOM     11  C   UNL     1       2.571   5.489  19.347  0.00  0.00    +0.000 A 
ENDROOT
BRANCH   9  12
ATOM     12  S   UNL     1       1.600   9.324  18.322  0.00  0.00    +0.000 S 
ATOM     13  O   UNL     1       2.883   9.979  18.305  0.00  0.00    +0.000 OA
ATOM     14  O   UNL     1       0.924   8.977  17.080  0.00  0.00    +0.000 OA
BRANCH  12  15
ATOM     15  N   UNL     1       0.517  10.255  19.276  0.00  0.00    +0.000 NA
ATOM     16  C   UNL     1       1.110  11.082  20.354  0.00  0.00    +0.000 C 
ATOM     17  C   UNL     1       0.237  11.153  21.608  0.00  0.00    +0.000 C 
ATOM     18  C   UNL     1      -0.873  12.195  21.536  0.00  0.00    +0.000 C 
ATOM     19  C   UNL     1      -1.916  11.887  20.476  0.00  0.00    +0.000 C 
ATOM     20  C   UNL     1      -1.349  11.986  19.069  0.00  0.00    +0.000 C 
ATOM     21  C   UNL     1      -0.682  10.729  18.543  0.00  0.00    +0.000 C 
ENDBRANCH  12  15
ENDBRANCH   9  12
BRANCH   1  22
ATOM     22  C   UNL     1       3.544   4.340  17.327  0.00  0.00    +0.000 C 
BRANCH  22  24
ATOM     23  N   UNL     1       5.596   4.132  15.974  0.00  0.00    +0.000 N 
ATOM     24  C   UNL     1       5.004   4.712  17.072  0.00  0.00    +0.000 C 
ATOM     25  O   UNL     1       5.598   5.519  17.797  0.00  0.00    +0.000 OA
ATOM     26  H   UNL     1       5.053   3.488  15.397  0.00  0.00    +0.000 HD
BRANCH  23  27
ATOM     27  C   UNL     1       6.983   4.396  15.661  0.00  0.00    +0.000 C 
BRANCH  27  28
ATOM     28  C   UNL     1       7.188   4.800  14.204  0.00  0.00    +0.000 C 
BRANCH  28  29
ATOM     29  C   UNL     1       6.049   4.253  13.352  0.00  0.00    +0.000 C 
BRANCH  29  30
ATOM     30  O   UNL     1       6.557   3.364  12.355  0.00  0.00    +0.000 OA
BRANCH  30  32
ATOM     31  C   UNL     1       4.424   3.031  11.326  0.00  0.00    +0.000 C 
ATOM     32  C   UNL     1       5.629   2.346  11.965  0.00  0.00    +0.000 C 
ATOM     33  C   UNL     1       6.254   1.378  10.963  0.00  0.00    +0.000 C 
ENDBRANCH  30  32
ENDBRANCH  29  30
ENDBRANCH  28  29
ENDBRANCH  27  28
ENDBRANCH  23  27
ENDBRANCH  22  24
ENDBRANCH   1  22
TORSDOF 9
ENDMDL
MODEL 9
REMARK VINA RESULT:      -6.7      6.399      8.569
REMARK  Name = 
REMARK  11 active torsions:
REMARK  status: ('A' for Active; 'I' for Inactive)
REMARK    1  A    between atoms: C_1  and  C_2
REMARK    2  A    between atoms: C_2  and  C_3
REMARK    3  A    between atoms: C_2  and  O_4
REMARK    4  A    between atoms: O_4  and  C_5
REMARK    5  A    between atoms: C_5  and  C_6
REMARK    6  A    between atoms: C_6  and  C_7
REMARK    7  A    between atoms: C_7  and  N_8
REMARK    8  A    between atoms: C_9  and  C_11
REMARK    9  A    between atoms: C_11  and  N_12
REMARK   10  A    between atoms: C_20  and  S_21
REMARK   11  A    between atoms: S_21  and  N_24
REMARK                            x       y       z     vdW  Elec       q    Type
REMARK                         _______ _______ _______ _____ _____    ______ ____
ROOT
ATOM      1  N   UNL     1       4.914  14.957  20.570  0.00  0.00    +0.000 N 
ATOM      2  C   UNL     1       5.928  15.533  19.816  0.00  0.00    +0.000 C 
ATOM      3  O   UNL     1       6.932  16.035  20.319  0.00  0.00    +0.000 OA
ATOM      4  C   UNL     1       5.774  15.386  18.306  0.00  0.00    +0.000 C 
ATOM      5  O   UNL     1       4.480  15.274  17.748  0.00  0.00    +0.000 OA
ATOM      6  C   UNL     1       3.602  14.583  18.541  0.00  0.00    +0.000 A 
ATOM      7  C   UNL     1       2.442  14.129  17.901  0.00  0.00    +0.000 A 
ATOM      8  C   UNL     1       1.465  13.440  18.622  0.00  0.00    +0.000 A 
ATOM      9  C   UNL     1       1.662  13.194  19.978  0.00  0.00    +0.000 A 
ATOM     10  C   UNL     1       2.805  13.686  20.621  0.00  0.00    +0.000 A 
ATOM     11  C   UNL     1       3.785  14.396  19.917  0.00  0.00    +0.000 A 
ENDROOT
BRANCH   9  12
ATOM     12  S   UNL     1       0.385  12.364  20.922  0.00  0.00    +0.000 S 
ATOM     13  O   UNL     1       0.989  11.214  21.545  0.00  0.00    +0.000 OA
ATOM     14  O   UNL     1      -0.269  13.388  21.724  0.00  0.00    +0.000 OA
BRANCH  12  15
ATOM     15  N   UNL     1      -0.729  11.825  19.732  0.00  0.00    +0.000 NA
ATOM     16  C   UNL     1      -0.720  10.380  19.406  0.00  0.00    +0.000 C 
ATOM     17  C   UNL     1      -0.983  10.094  17.926  0.00  0.00    +0.000 C 
ATOM     18  C   UNL     1      -2.459  10.083  17.547  0.00  0.00    +0.000 C 
ATOM     19  C   UNL     1      -3.127  11.439  17.701  0.00  0.00    +0.000 C 
ATOM     20  C   UNL     1      -3.217  11.870  19.155  0.00  0.00    +0.000 C 
ATOM     21  C   UNL     1      -1.998  12.592  19.700  0.00  0.00    +0.000 C 
ENDBRANCH  12  15
ENDBRANCH   9  12
BRANCH   1  22
ATOM     22  C   UNL     1       4.990  15.042  22.033  0.00  0.00    +0.000 C 
BRANCH  22  24
ATOM     23  N   UNL     1       7.049  13.742  22.430  0.00  0.00    +0.000 N 
ATOM     24  C   UNL     1       5.694  13.836  22.654  0.00  0.00    +0.000 C 
ATOM     25  O   UNL     1       5.078  13.017  23.347  0.00  0.00    +0.000 OA
ATOM     26  H   UNL     1       7.512  14.458  21.868  0.00  0.00    +0.000 HD
BRANCH  23  27
ATOM     27  C   UNL     1       7.804  12.624  22.950  0.00  0.00    +0.000 C 
BRANCH  27  28
ATOM     28  C   UNL     1       9.248  12.612  22.457  0.00  0.00    +0.000 C 
BRANCH  28  29
ATOM     29  C   UNL     1       9.391  13.543  21.259  0.00  0.00    +0.000 C 
BRANCH  29  30
ATOM     30  O   UNL     1       9.426  12.789  20.045  0.00  0.00    +0.000 OA
BRANCH  30  32
ATOM     31  C   UNL     1       9.458  10.521  19.286  0.00  0.00    +0.000 C 
ATOM     32  C   UNL     1      10.161  11.566  20.150  0.00  0.00    +0.000 C 
ATOM     33  C   UNL     1      11.600  11.738  19.668  0.00  0.00    +0.000 C 
ENDBRANCH  30  32
ENDBRANCH  29  30
ENDBRANCH  28  29
ENDBRANCH  27  28
ENDBRANCH  23  27
ENDBRANCH  22  24
ENDBRANCH   1  22
TORSDOF 9
ENDMDL
