MODEL 1
REMARK VINA RESULT:      -6.7      0.000      0.000
REMARK  Name = 
REMARK  6 active torsions:
REMARK  status: ('A' for Active; 'I' for Inactive)
REMARK    1  A    between atoms: C_1  and  C_2
REMARK    2  A    between atoms: C_2  and  C_3
REMARK    3  A    between atoms: C_3  and  C_4
REMARK    4  A    between atoms: C_6  and  C_7
REMARK    5  A    between atoms: C_7  and  N_8
REMARK    6  A    between atoms: C_9  and  C_11
REMARK                            x       y       z     vdW  Elec       q    Type
REMARK                         _______ _______ _______ _____ _____    ______ ____
ROOT
ATOM      1  N   UNL     1       5.044   3.576  17.864  0.00  0.00    +0.000 N 
ATOM      2  C   UNL     1       6.242   4.160  17.522  0.00  0.00    +0.000 C 
ATOM      3  O   UNL     1       7.077   4.527  18.348  0.00  0.00    +0.000 OA
ATOM      4  H   UNL     1       4.452   3.128  17.176  0.00  0.00    +0.000 HD
ENDROOT
BRANCH   2   5
ATOM      5  C   UNL     1       6.529   4.333  16.086  0.00  0.00    +0.000 A 
ATOM      6  C   UNL     1       7.502   5.257  15.708  0.00  0.00    +0.000 A 
ATOM      7  N   UNL     1       7.836   5.518  14.419  0.00  0.00    +0.000 NA
ATOM      8  C   UNL     1       7.144   4.842  13.472  0.00  0.00    +0.000 A 
ATOM      9  C   UNL     1       6.147   3.925  13.763  0.00  0.00    +0.000 A 
ATOM     10  F   UNL     1       5.483   3.309  12.777  0.00  0.00    +0.000 F 
ATOM     11  C   UNL     1       5.831   3.656  15.089  0.00  0.00    +0.000 A 
ENDBRANCH   2   5
BRANCH   1  12
ATOM     12  C   UNL     1       4.721   3.354  19.259  0.00  0.00    +0.000 C 
BRANCH  12  15
ATOM     13  C   UNL     1       2.462   6.143  19.777  0.00  0.00    +0.000 A 
ATOM     14  N   UNL     1       3.563   5.571  19.326  0.00  0.00    +0.000 NA
ATOM     15  C   UNL     1       3.575   4.222  19.671  0.00  0.00    +0.000 A 
ATOM     16  C   UNL     1       2.478   3.809  20.404  0.00  0.00    +0.000 A 
ATOM     17  S   UNL     1       1.403   5.112  20.658  0.00  0.00    +0.000 S 
BRANCH  13  18
ATOM     18  C   UNL     1       2.103   7.587  19.578  0.00  0.00    +0.000 C 
BRANCH  18  20
ATOM     19  C   UNL     1       1.796   9.427  17.876  0.00  0.00    +0.000 C 
ATOM     20  C   UNL     1       2.298   8.013  18.123  0.00  0.00    +0.000 C 
ENDBRANCH  18  20
ENDBRANCH  13  18
ENDBRANCH  12  15
ENDBRANCH   1  12
TORSDOF 5
ENDMDL
MODEL 2
REMARK VINA RESULT:      -6.6      2.410      3.149
REMARK  Name = 
REMARK  6 active torsions:
REMARK  status: ('A' for Active; 'I' for Inactive)
REMARK    1  A    between atoms: C_1  and  C_2
REMARK    2  A    between atoms: C_2  and  C_3
REMARK    3  A    between atoms: C_3  and  C_4
REMARK    4  A    between atoms: C_6  and  C_7
REMARK    5  A    between atoms: C_7  and  N_8
REMARK    6  A    between atoms: C_9  and  C_11
REMARK                            x       y       z     vdW  Elec       q    Type
REMARK                         _______ _______ _______ _____ _____    ______ ____
ROOT
ATOM      1  N   UNL     1       4.150   6.056  18.122  0.00  0.00    +0.000 N 
ATOM      2  C   UNL     1       4.378   4.843  17.514  0.00  0.00    +0.000 C 
ATOM      3  O   UNL     1       3.808   3.803  17.843  0.00  0.00    +0.000 OA
ATOM      4  H   UNL     1       4.494   6.924  17.730  0.00  0.00    +0.000 HD
ENDROOT
BRANCH   2   5
ATOM      5  C   UNL     1       5.348   4.809  16.405  0.00  0.00    +0.000 A 
ATOM      6  C   UNL     1       6.462   5.645  16.469  0.00  0.00    +0.000 A 
ATOM      7  N   UNL     1       7.410   5.717  15.500  0.00  0.00    +0.000 NA
ATOM      8  C   UNL     1       7.215   4.937  14.411  0.00  0.00    +0.000 A 
ATOM      9  C   UNL     1       6.122   4.096  14.259  0.00  0.00    +0.000 A 
ATOM     10  F   UNL     1       5.975   3.371  13.144  0.00  0.00    +0.000 F 
ATOM     11  C   UNL     1       5.172   4.022  15.269  0.00  0.00    +0.000 A 
ENDBRANCH   2   5
BRANCH   1  12
ATOM     12  C   UNL     1       3.185   6.154  19.198  0.00  0.00    +0.000 C 
BRANCH  12  15
ATOM     13  C   UNL     1       1.142   9.067  19.899  0.00  0.00    +0.000 A 
ATOM     14  N   UNL     1       1.727   7.923  20.202  0.00  0.00    +0.000 NA
ATOM     15  C   UNL     1       2.427   7.439  19.099  0.00  0.00    +0.000 A 
ATOM     16  C   UNL     1       2.331   8.230  17.969  0.00  0.00    +0.000 A 
ATOM     17  S   UNL     1       1.370   9.607  18.282  0.00  0.00    +0.000 S 
BRANCH  13  18
ATOM     18  C   UNL     1       0.316   9.885  20.850  0.00  0.00    +0.000 C 
BRANCH  18  20
ATOM     19  C   UNL     1      -0.018   9.515  23.325  0.00  0.00    +0.000 C 
ATOM     20  C   UNL     1      -0.326   9.008  21.925  0.00  0.00    +0.000 C 
ENDBRANCH  18  20
ENDBRANCH  13  18
ENDBRANCH  12  15
ENDBRANCH   1  12
TORSDOF 5
ENDMDL
MODEL 3
REMARK VINA RESULT:      -6.6      2.510      3.076
REMARK  Name = 
REMARK  6 active torsions:
REMARK  status: ('A' for Active; 'I' for Inactive)
REMARK    1  A    between atoms: C_1  and  C_2
REMARK    2  A    between atoms: C_2  and  C_3
REMARK    3  A    between atoms: C_3  and  C_4
REMARK    4  A    between atoms: C_6  and  C_7
REMARK    5  A    between atoms: C_7  and  N_8
REMARK    6  A    between atoms: C_9  and  C_11
REMARK                            x       y       z     vdW  Elec       q    Type
REMARK                         _______ _______ _______ _____ _____    ______ ____
ROOT
ATOM      1  N   UNL     1       5.683   4.694  16.559  0.00  0.00    +0.000 N 
ATOM      2  C   UNL     1       6.924   4.577  15.975  0.00  0.00    +0.000 C 
ATOM      3  O   UNL     1       7.973   4.542  16.616  0.00  0.00    +0.000 OA
ATOM      4  H   UNL     1       4.829   4.549  16.035  0.00  0.00    +0.000 HD
ENDROOT
BRANCH   2   5
ATOM      5  C   UNL     1       6.977   4.477  14.505  0.00  0.00    +0.000 A 
ATOM      6  C   UNL     1       7.779   5.377  13.805  0.00  0.00    +0.000 A 
ATOM      7  N   UNL     1       7.891   5.396  12.452  0.00  0.00    +0.000 NA
ATOM      8  C   UNL     1       7.144   4.491  11.776  0.00  0.00    +0.000 A 
ATOM      9  C   UNL     1       6.304   3.578  12.396  0.00  0.00    +0.000 A 
ATOM     10  F   UNL     1       5.572   2.727  11.666  0.00  0.00    +0.000 F 
ATOM     11  C   UNL     1       6.216   3.561  13.781  0.00  0.00    +0.000 A 
ENDBRANCH   2   5
BRANCH   1  12
ATOM     12  C   UNL     1       5.568   4.767  18.001  0.00  0.00    +0.000 C 
BRANCH  12  15
ATOM     13  C   UNL     1       3.279   2.833  20.043  0.00  0.00    +0.000 A 
ATOM     14  N   UNL     1       4.174   3.779  19.830  0.00  0.00    +0.000 NA
ATOM     15  C   UNL     1       4.565   3.774  18.492  0.00  0.00    +0.000 A 
ATOM     16  C   UNL     1       3.962   2.795  17.725  0.00  0.00    +0.000 A 
ATOM     17  S   UNL     1       2.880   1.873  18.673  0.00  0.00    +0.000 S 
BRANCH  13  18
ATOM     18  C   UNL     1       2.623   2.557  21.365  0.00  0.00    +0.000 C 
BRANCH  18  20
ATOM     19  C   UNL     1       0.900   4.209  20.545  0.00  0.00    +0.000 C 
ATOM     20  C   UNL     1       1.143   2.937  21.342  0.00  0.00    +0.000 C 
ENDBRANCH  18  20
ENDBRANCH  13  18
ENDBRANCH  12  15
ENDBRANCH   1  12
TORSDOF 5
ENDMDL
MODEL 4
REMARK VINA RESULT:      -6.5      2.208      3.205
REMARK  Name = 
REMARK  6 active torsions:
REMARK  status: ('A' for Active; 'I' for Inactive)
REMARK    1  A    between atoms: C_1  and  C_2
REMARK    2  A    between atoms: C_2  and  C_3
REMARK    3  A    between atoms: C_3  and  C_4
REMARK    4  A    between atoms: C_6  and  C_7
REMARK    5  A    between atoms: C_7  and  N_8
REMARK    6  A    between atoms: C_9  and  C_11
REMARK                            x       y       z     vdW  Elec       q    Type
REMARK                         _______ _______ _______ _____ _____    ______ ____
ROOT
ATOM      1  N   UNL     1       7.113   4.368  16.883  0.00  0.00    +0.000 N 
ATOM      2  C   UNL     1       6.734   5.240  15.889  0.00  0.00    +0.000 C 
ATOM      3  O   UNL     1       6.348   6.388  16.106  0.00  0.00    +0.000 OA
ATOM      4  H   UNL     1       7.587   3.497  16.680  0.00  0.00    +0.000 HD
ENDROOT
BRANCH   2   5
ATOM      5  C   UNL     1       6.813   4.761  14.497  0.00  0.00    +0.000 A 
ATOM      6  C   UNL     1       7.744   5.348  13.642  0.00  0.00    +0.000 A 
ATOM      7  N   UNL     1       7.894   5.005  12.337  0.00  0.00    +0.000 NA
ATOM      8  C   UNL     1       7.054   4.053  11.867  0.00  0.00    +0.000 A 
ATOM      9  C   UNL     1       6.086   3.436  12.645  0.00  0.00    +0.000 A 
ATOM     10  F   UNL     1       5.270   2.520  12.112  0.00  0.00    +0.000 F 
ATOM     11  C   UNL     1       5.960   3.786  13.983  0.00  0.00    +0.000 A 
ENDBRANCH   2   5
BRANCH   1  12
ATOM     12  C   UNL     1       7.084   4.795  18.268  0.00  0.00    +0.000 C 
BRANCH  12  15
ATOM     13  C   UNL     1       3.898   3.558  19.482  0.00  0.00    +0.000 A 
ATOM     14  N   UNL     1       5.111   3.429  18.977  0.00  0.00    +0.000 NA
ATOM     15  C   UNL     1       5.698   4.682  18.816  0.00  0.00    +0.000 A 
ATOM     16  C   UNL     1       4.892   5.742  19.187  0.00  0.00    +0.000 A 
ATOM     17  S   UNL     1       3.385   5.176  19.761  0.00  0.00    +0.000 S 
BRANCH  13  18
ATOM     18  C   UNL     1       2.978   2.417  19.804  0.00  0.00    +0.000 C 
BRANCH  18  20
ATOM     19  C   UNL     1       0.667   2.615  18.807  0.00  0.00    +0.000 C 
ATOM     20  C   UNL     1       2.077   2.076  18.618  0.00  0.00    +0.000 C 
ENDBRANCH  18  20
ENDBRANCH  13  18
ENDBRANCH  12  15
ENDBRANCH   1  12
TORSDOF 5
ENDMDL
MODEL 5
REMARK VINA RESULT:      -6.5      2.210      3.123
REMARK  Name = 
REMARK  6 active torsions:
REMARK  status: ('A' for Active; 'I' for Inactive)
REMARK    1  A    between atoms: C_1  and  C_2
REMARK    2  A    between atoms: C_2  and  C_3
REMARK    3  A    between atoms: C_3  and  C_4
REMARK    4  A    between atoms: C_6  and  C_7
REMARK    5  A    between atoms: C_7  and  N_8
REMARK    6  A    between atoms: C_9  and  C_11
REMARK                            x       y       z     vdW  Elec       q    Type
REMARK                         _______ _______ _______ _____ _____    ______ ____
ROOT
ATOM      1  N   UNL     1       6.000   6.197  15.997  0.00  0.00    +0.000 N 
ATOM      2  C   UNL     1       6.832   5.147  15.684  0.00  0.00    +0.000 C 
ATOM      3  O   UNL     1       7.534   4.570  16.514  0.00  0.00    +0.000 OA
ATOM      4  H   UNL     1       5.308   6.544  15.344  0.00  0.00    +0.000 HD
ENDROOT
BRANCH   2   5
ATOM      5  C   UNL     1       6.860   4.695  14.281  0.00  0.00    +0.000 A 
ATOM      6  C   UNL     1       7.736   5.323  13.397  0.00  0.00    +0.000 A 
ATOM      7  N   UNL     1       7.835   5.009  12.080  0.00  0.00    +0.000 NA
ATOM      8  C   UNL     1       6.999   4.044  11.630  0.00  0.00    +0.000 A 
ATOM      9  C   UNL     1       6.083   3.387  12.438  0.00  0.00    +0.000 A 
ATOM     10  F   UNL     1       5.267   2.460  11.923  0.00  0.00    +0.000 F 
ATOM     11  C   UNL     1       6.009   3.709  13.787  0.00  0.00    +0.000 A 
ENDBRANCH   2   5
BRANCH   1  12
ATOM     12  C   UNL     1       5.909   6.665  17.365  0.00  0.00    +0.000 C 
BRANCH  12  15
ATOM     13  C   UNL     1       2.849   4.920  18.223  0.00  0.00    +0.000 A 
ATOM     14  N   UNL     1       3.673   5.542  17.402  0.00  0.00    +0.000 NA
ATOM     15  C   UNL     1       4.817   5.945  18.088  0.00  0.00    +0.000 A 
ATOM     16  C   UNL     1       4.815   5.632  19.434  0.00  0.00    +0.000 A 
ATOM     17  S   UNL     1       3.378   4.809  19.856  0.00  0.00    +0.000 S 
BRANCH  13  18
ATOM     18  C   UNL     1       1.524   4.334  17.826  0.00  0.00    +0.000 C 
BRANCH  18  20
ATOM     19  C   UNL     1       2.490   2.002  17.781  0.00  0.00    +0.000 C 
ATOM     20  C   UNL     1       1.383   2.894  18.319  0.00  0.00    +0.000 C 
ENDBRANCH  18  20
ENDBRANCH  13  18
ENDBRANCH  12  15
ENDBRANCH   1  12
TORSDOF 5
ENDMDL
MODEL 6
REMARK VINA RESULT:      -6.5      4.015      6.986
REMARK  Name = 
REMARK  6 active torsions:
REMARK  status: ('A' for Active; 'I' for Inactive)
REMARK    1  A    between atoms: C_1  and  C_2
REMARK    2  A    between atoms: C_2  and  C_3
REMARK    3  A    between atoms: C_3  and  C_4
REMARK    4  A    between atoms: C_6  and  C_7
REMARK    5  A    between atoms: C_7  and  N_8
REMARK    6  A    between atoms: C_9  and  C_11
REMARK                            x       y       z     vdW  Elec       q    Type
REMARK                         _______ _______ _______ _____ _____    ______ ____
ROOT
ATOM      1  N   UNL     1       5.048   4.311  17.108  0.00  0.00    +0.000 N 
ATOM      2  C   UNL     1       4.820   3.871  18.392  0.00  0.00    +0.000 C 
ATOM      3  O   UNL     1       5.693   3.827  19.258  0.00  0.00    +0.000 OA
ATOM      4  H   UNL     1       4.290   4.501  16.465  0.00  0.00    +0.000 HD
ENDROOT
BRANCH   2   5
ATOM      5  C   UNL     1       3.450   3.446  18.731  0.00  0.00    +0.000 A 
ATOM      6  C   UNL     1       2.471   3.499  17.740  0.00  0.00    +0.000 A 
ATOM      7  N   UNL     1       1.173   3.155  17.940  0.00  0.00    +0.000 NA
ATOM      8  C   UNL     1       0.842   2.768  19.195  0.00  0.00    +0.000 A 
ATOM      9  C   UNL     1       1.750   2.710  20.241  0.00  0.00    +0.000 A 
ATOM     10  F   UNL     1       1.351   2.344  21.465  0.00  0.00    +0.000 F 
ATOM     11  C   UNL     1       3.077   3.049  20.014  0.00  0.00    +0.000 A 
ENDBRANCH   2   5
BRANCH   1  12
ATOM     12  C   UNL     1       6.369   4.768  16.726  0.00  0.00    +0.000 C 
BRANCH  12  15
ATOM     13  C   UNL     1       6.092   3.747  13.258  0.00  0.00    +0.000 A 
ATOM     14  N   UNL     1       5.748   3.738  14.532  0.00  0.00    +0.000 NA
ATOM     15  C   UNL     1       6.571   4.598  15.255  0.00  0.00    +0.000 A 
ATOM     16  C   UNL     1       7.544   5.226  14.500  0.00  0.00    +0.000 A 
ATOM     17  S   UNL     1       7.428   4.754  12.862  0.00  0.00    +0.000 S 
BRANCH  13  18
ATOM     18  C   UNL     1       5.412   2.951  12.181  0.00  0.00    +0.000 C 
BRANCH  18  20
ATOM     19  C   UNL     1       3.373   3.016  10.694  0.00  0.00    +0.000 C 
ATOM     20  C   UNL     1       4.481   3.829  11.345  0.00  0.00    +0.000 C 
ENDBRANCH  18  20
ENDBRANCH  13  18
ENDBRANCH  12  15
ENDBRANCH   1  12
TORSDOF 5
ENDMDL
MODEL 7
REMARK VINA RESULT:      -6.4      0.872      1.157
REMARK  Name = 
REMARK  6 active torsions:
REMARK  status: ('A' for Active; 'I' for Inactive)
REMARK    1  A    between atoms: C_1  and  C_2
REMARK    2  A    between atoms: C_2  and  C_3
REMARK    3  A    between atoms: C_3  and  C_4
REMARK    4  A    between atoms: C_6  and  C_7
REMARK    5  A    between atoms: C_7  and  N_8
REMARK    6  A    between atoms: C_9  and  C_11
REMARK                            x       y       z     vdW  Elec       q    Type
REMARK                         _______ _______ _______ _____ _____    ______ ____
ROOT
ATOM      1  N   UNL     1       4.975   3.399  17.940  0.00  0.00    +0.000 N 
ATOM      2  C   UNL     1       6.114   4.114  17.648  0.00  0.00    +0.000 C 
ATOM      3  O   UNL     1       6.861   4.579  18.508  0.00  0.00    +0.000 OA
ATOM      4  H   UNL     1       4.471   2.882  17.231  0.00  0.00    +0.000 HD
ENDROOT
BRANCH   2   5
ATOM      5  C   UNL     1       6.447   4.310  16.225  0.00  0.00    +0.000 A 
ATOM      6  C   UNL     1       7.413   5.258  15.892  0.00  0.00    +0.000 A 
ATOM      7  N   UNL     1       7.787   5.541  14.618  0.00  0.00    +0.000 NA
ATOM      8  C   UNL     1       7.142   4.864  13.640  0.00  0.00    +0.000 A 
ATOM      9  C   UNL     1       6.153   3.923  13.885  0.00  0.00    +0.000 A 
ATOM     10  F   UNL     1       5.535   3.308  12.870  0.00  0.00    +0.000 F 
ATOM     11  C   UNL     1       5.796   3.633  15.196  0.00  0.00    +0.000 A 
ENDBRANCH   2   5
BRANCH   1  12
ATOM     12  C   UNL     1       4.614   3.150  19.321  0.00  0.00    +0.000 C 
BRANCH  12  15
ATOM     13  C   UNL     1       2.364   5.909  20.010  0.00  0.00    +0.000 A 
ATOM     14  N   UNL     1       3.511   5.374  19.635  0.00  0.00    +0.000 NA
ATOM     15  C   UNL     1       3.436   3.985  19.708  0.00  0.00    +0.000 A 
ATOM     16  C   UNL     1       2.224   3.502  20.166  0.00  0.00    +0.000 A 
ATOM     17  S   UNL     1       1.152   4.790  20.496  0.00  0.00    +0.000 S 
BRANCH  13  18
ATOM     18  C   UNL     1       2.076   7.383  20.041  0.00  0.00    +0.000 C 
BRANCH  18  20
ATOM     19  C   UNL     1       1.074   9.217  21.456  0.00  0.00    +0.000 C 
ATOM     20  C   UNL     1       1.071   7.730  21.139  0.00  0.00    +0.000 C 
ENDBRANCH  18  20
ENDBRANCH  13  18
ENDBRANCH  12  15
ENDBRANCH   1  12
TORSDOF 5
ENDMDL
MODEL 8
REMARK VINA RESULT:      -6.4      4.035      6.088
REMARK  Name = 
REMARK  6 active torsions:
REMARK  status: ('A' for Active; 'I' for Inactive)
REMARK    1  A    between atoms: C_1  and  C_2
REMARK    2  A    between atoms: C_2  and  C_3
REMARK    3  A    between atoms: C_3  and  C_4
REMARK    4  A    between atoms: C_6  and  C_7
REMARK    5  A    between atoms: C_7  and  N_8
REMARK    6  A    between atoms: C_9  and  C_11
REMARK                            x       y       z     vdW  Elec       q    Type
REMARK                         _______ _______ _______ _____ _____    ______ ____
ROOT
ATOM      1  N   UNL     1       5.262   3.995  16.961  0.00  0.00    +0.000 N 
ATOM      2  C   UNL     1       4.135   4.729  17.250  0.00  0.00    +0.000 C 
ATOM      3  O   UNL     1       4.008   5.918  16.958  0.00  0.00    +0.000 OA
ATOM      4  H   UNL     1       5.282   2.987  17.051  0.00  0.00    +0.000 HD
ENDROOT
BRANCH   2   5
ATOM      5  C   UNL     1       3.028   4.036  17.932  0.00  0.00    +0.000 A 
ATOM      6  C   UNL     1       2.626   2.789  17.454  0.00  0.00    +0.000 A 
ATOM      7  N   UNL     1       1.607   2.068  17.986  0.00  0.00    +0.000 NA
ATOM      8  C   UNL     1       0.948   2.635  19.023  0.00  0.00    +0.000 A 
ATOM      9  C   UNL     1       1.269   3.880  19.543  0.00  0.00    +0.000 A 
ATOM     10  F   UNL     1       0.560   4.396  20.554  0.00  0.00    +0.000 F 
ATOM     11  C   UNL     1       2.327   4.597  18.998  0.00  0.00    +0.000 A 
ENDBRANCH   2   5
BRANCH   1  12
ATOM     12  C   UNL     1       6.370   4.617  16.264  0.00  0.00    +0.000 C 
BRANCH  12  15
ATOM     13  C   UNL     1       7.761   7.654  17.677  0.00  0.00    +0.000 A 
ATOM     14  N   UNL     1       7.144   6.947  16.748  0.00  0.00    +0.000 NA
ATOM     15  C   UNL     1       7.043   5.617  17.149  0.00  0.00    +0.000 A 
ATOM     16  C   UNL     1       7.614   5.345  18.378  0.00  0.00    +0.000 A 
ATOM     17  S   UNL     1       8.276   6.766  19.058  0.00  0.00    +0.000 S 
BRANCH  13  18
ATOM     18  C   UNL     1       8.031   9.128  17.593  0.00  0.00    +0.000 C 
BRANCH  18  20
ATOM     19  C   UNL     1       9.720  10.801  18.443  0.00  0.00    +0.000 C 
ATOM     20  C   UNL     1       8.836   9.616  18.797  0.00  0.00    +0.000 C 
ENDBRANCH  18  20
ENDBRANCH  13  18
ENDBRANCH  12  15
ENDBRANCH   1  12
TORSDOF 5
ENDMDL
MODEL 9
REMARK VINA RESULT:      -6.4      2.185      3.019
REMARK  Name = 
REMARK  6 active torsions:
REMARK  status: ('A' for Active; 'I' for Inactive)
REMARK    1  A    between atoms: C_1  and  C_2
REMARK    2  A    between atoms: C_2  and  C_3
REMARK    3  A    between atoms: C_3  and  C_4
REMARK    4  A    between atoms: C_6  and  C_7
REMARK    5  A    between atoms: C_7  and  N_8
REMARK    6  A    between atoms: C_9  and  C_11
REMARK                            x       y       z     vdW  Elec       q    Type
REMARK                         _______ _______ _______ _____ _____    ______ ____
ROOT
ATOM      1  N   UNL     1       6.180   4.091  16.583  0.00  0.00    +0.000 N 
ATOM      2  C   UNL     1       6.257   5.066  15.615  0.00  0.00    +0.000 C 
ATOM      3  O   UNL     1       6.132   6.267  15.853  0.00  0.00    +0.000 OA
ATOM      4  H   UNL     1       6.453   3.133  16.401  0.00  0.00    +0.000 HD
ENDROOT
BRANCH   2   5
ATOM      5  C   UNL     1       6.515   4.631  14.231  0.00  0.00    +0.000 A 
ATOM      6  C   UNL     1       7.558   5.232  13.528  0.00  0.00    +0.000 A 
ATOM      7  N   UNL     1       7.876   4.931  12.243  0.00  0.00    +0.000 NA
ATOM      8  C   UNL     1       7.096   4.006  11.633  0.00  0.00    +0.000 A 
ATOM      9  C   UNL     1       6.027   3.379  12.254  0.00  0.00    +0.000 A 
ATOM     10  F   UNL     1       5.280   2.493  11.586  0.00  0.00    +0.000 F 
ATOM     11  C   UNL     1       5.727   3.687  13.575  0.00  0.00    +0.000 A 
ENDBRANCH   2   5
BRANCH   1  12
ATOM     12  C   UNL     1       5.956   4.462  17.966  0.00  0.00    +0.000 C 
BRANCH  12  15
ATOM     13  C   UNL     1       2.735   4.657  19.620  0.00  0.00    +0.000 A 
ATOM     14  N   UNL     1       4.053   4.697  19.574  0.00  0.00    +0.000 NA
ATOM     15  C   UNL     1       4.493   4.457  18.274  0.00  0.00    +0.000 A 
ATOM     16  C   UNL     1       3.481   4.216  17.364  0.00  0.00    +0.000 A 
ATOM     17  S   UNL     1       1.956   4.304  18.128  0.00  0.00    +0.000 S 
BRANCH  13  18
ATOM     18  C   UNL     1       1.913   4.887  20.855  0.00  0.00    +0.000 C 
BRANCH  18  20
ATOM     19  C   UNL     1       1.538   2.476  21.502  0.00  0.00    +0.000 C 
ATOM     20  C   UNL     1       2.166   3.802  21.902  0.00  0.00    +0.000 C 
ENDBRANCH  18  20
ENDBRANCH  13  18
ENDBRANCH  12  15
ENDBRANCH   1  12
TORSDOF 5
ENDMDL
