MODEL 1
REMARK VINA RESULT:      -9.0      0.000      0.000
REMARK  Name = 
REMARK  3 active torsions:
REMARK  status: ('A' for Active; 'I' for Inactive)
REMARK    1  A    between atoms: C_4  and  C_5
REMARK    2  A    between atoms: C_5  and  N_6
REMARK    3  A    between atoms: C_7  and  C_8
REMARK                            x       y       z     vdW  Elec       q    Type
REMARK                         _______ _______ _______ _____ _____    ______ ____
ROOT
ATOM      1  C   UNL     1       4.075   3.721  16.720  0.00  0.00    +0.000 C 
ENDROOT
BRANCH   1   5
ATOM      2  O   UNL     1       7.820   6.489  17.456  0.00  0.00    +0.000 OA
ATOM      3  C   UNL     1       7.235   5.807  16.614  0.00  0.00    +0.000 A 
ATOM      4  C   UNL     1       6.100   5.104  16.978  0.00  0.00    +0.000 A 
ATOM      5  C   UNL     1       5.376   4.280  16.057  0.00  0.00    +0.000 A 
ATOM      6  C   UNL     1       5.923   4.186  14.740  0.00  0.00    +0.000 A 
ATOM      7  C   UNL     1       5.387   3.370  13.736  0.00  0.00    +0.000 A 
ATOM      8  C   UNL     1       5.925   3.374  12.441  0.00  0.00    +0.000 A 
ATOM      9  C   UNL     1       6.996   4.210  12.121  0.00  0.00    +0.000 A 
ATOM     10  C   UNL     1       7.568   5.012  13.095  0.00  0.00    +0.000 A 
ATOM     11  F   UNL     1       8.613   5.819  12.764  0.00  0.00    +0.000 F 
ATOM     12  C   UNL     1       7.067   4.994  14.405  0.00  0.00    +0.000 A 
ATOM     13  N   UNL     1       7.687   5.761  15.343  0.00  0.00    +0.000 N 
ATOM     14  H   UNL     1       8.528   6.336  15.096  0.00  0.00    +0.000 HD
ENDBRANCH   1   5
BRANCH   1  15
ATOM     15  N   UNL     1       3.159   3.811  17.929  0.00  0.00    +0.000 N 
ATOM     16  C   UNL     1       2.181   4.758  17.815  0.00  0.00    +0.000 A 
ATOM     17  N   UNL     1       1.124   4.528  18.617  0.00  0.00    +0.000 NA
ATOM     18  C   UNL     1       1.618   3.712  19.520  0.00  0.00    +0.000 A 
ATOM     19  N   UNL     1       1.060   3.507  20.728  0.00  0.00    +0.000 NA
ATOM     20  C   UNL     1       1.802   2.849  21.648  0.00  0.00    +0.000 A 
ATOM     21  C   UNL     1       3.086   2.356  21.302  0.00  0.00    +0.000 A 
ATOM     22  N   UNL     1       3.592   2.524  20.016  0.00  0.00    +0.000 NA
ATOM     23  C   UNL     1       2.863   3.281  19.162  0.00  0.00    +0.000 A 
BRANCH  16  24
ATOM     24  C   UNL     1       2.808   6.082  18.256  0.00  0.00    +0.000 C 
ATOM     25  C   UNL     1       3.158   7.198  17.326  0.00  0.00    +0.000 C 
ATOM     26  C   UNL     1       2.705   8.170  18.443  0.00  0.00    +0.000 C 
ATOM     27  C   UNL     1       1.889   7.050  19.042  0.00  0.00    +0.000 C 
ENDBRANCH  16  24
ENDBRANCH   1  15
TORSDOF 3
ENDMDL
MODEL 2
REMARK VINA RESULT:      -8.3      4.298      7.145
REMARK  Name = 
REMARK  3 active torsions:
REMARK  status: ('A' for Active; 'I' for Inactive)
REMARK    1  A    between atoms: C_4  and  C_5
REMARK    2  A    between atoms: C_5  and  N_6
REMARK    3  A    between atoms: C_7  and  C_8
REMARK                            x       y       z     vdW  Elec       q    Type
REMARK                         _______ _______ _______ _____ _____    ______ ____
ROOT
ATOM      1  C   UNL     1       1.876   8.538  19.499  0.00  0.00    +0.000 C 
ENDROOT
BRANCH   1   5
ATOM      2  O   UNL     1       4.782   6.716  16.264  0.00  0.00    +0.000 OA
ATOM      3  C   UNL     1       3.996   6.435  17.169  0.00  0.00    +0.000 A 
ATOM      4  C   UNL     1       3.396   7.453  17.890  0.00  0.00    +0.000 A 
ATOM      5  C   UNL     1       2.484   7.201  18.966  0.00  0.00    +0.000 A 
ATOM      6  C   UNL     1       2.261   5.826  19.286  0.00  0.00    +0.000 A 
ATOM      7  C   UNL     1       1.458   5.401  20.352  0.00  0.00    +0.000 A 
ATOM      8  C   UNL     1       1.220   4.037  20.573  0.00  0.00    +0.000 A 
ATOM      9  C   UNL     1       1.762   3.074  19.721  0.00  0.00    +0.000 A 
ATOM     10  C   UNL     1       2.581   3.456  18.672  0.00  0.00    +0.000 A 
ATOM     11  F   UNL     1       3.102   2.503  17.851  0.00  0.00    +0.000 F 
ATOM     12  C   UNL     1       2.862   4.815  18.456  0.00  0.00    +0.000 A 
ATOM     13  N   UNL     1       3.709   5.144  17.443  0.00  0.00    +0.000 N 
ATOM     14  H   UNL     1       4.154   4.403  16.851  0.00  0.00    +0.000 HD
ENDBRANCH   1   5
BRANCH   1  15
ATOM     15  N   UNL     1       0.825   9.610  19.256  0.00  0.00    +0.000 N 
ATOM     16  C   UNL     1       0.791  10.581  20.216  0.00  0.00    +0.000 A 
ATOM     17  N   UNL     1       0.239  11.732  19.786  0.00  0.00    +0.000 NA
ATOM     18  C   UNL     1      -0.448  11.348  18.735  0.00  0.00    +0.000 A 
ATOM     19  N   UNL     1      -1.461  12.058  18.203  0.00  0.00    +0.000 NA
ATOM     20  C   UNL     1      -2.243  11.434  17.292  0.00  0.00    +0.000 A 
ATOM     21  C   UNL     1      -1.944  10.106  16.893  0.00  0.00    +0.000 A 
ATOM     22  N   UNL     1      -0.841   9.435  17.414  0.00  0.00    +0.000 NA
ATOM     23  C   UNL     1      -0.151  10.058  18.400  0.00  0.00    +0.000 A 
BRANCH  16  24
ATOM     24  C   UNL     1      -0.092  10.044  21.343  0.00  0.00    +0.000 C 
ATOM     25  C   UNL     1       0.426   9.327  22.548  0.00  0.00    +0.000 C 
ATOM     26  C   UNL     1      -0.676  10.054  23.360  0.00  0.00    +0.000 C 
ATOM     27  C   UNL     1      -0.740  11.100  22.272  0.00  0.00    +0.000 C 
ENDBRANCH  16  24
ENDBRANCH   1  15
TORSDOF 3
ENDMDL
MODEL 3
REMARK VINA RESULT:      -8.3      1.778      3.390
REMARK  Name = 
REMARK  3 active torsions:
REMARK  status: ('A' for Active; 'I' for Inactive)
REMARK    1  A    between atoms: C_4  and  C_5
REMARK    2  A    between atoms: C_5  and  N_6
REMARK    3  A    between atoms: C_7  and  C_8
REMARK                            x       y       z     vdW  Elec       q    Type
REMARK                         _______ _______ _______ _____ _____    ______ ____
ROOT
ATOM      1  C   UNL     1       3.953   5.288  17.967  0.00  0.00    +0.000 C 
ENDROOT
BRANCH   1   5
ATOM      2  O   UNL     1       8.076   7.575  17.911  0.00  0.00    +0.000 OA
ATOM      3  C   UNL     1       7.357   6.800  17.279  0.00  0.00    +0.000 A 
ATOM      4  C   UNL     1       6.159   6.382  17.830  0.00  0.00    +0.000 A 
ATOM      5  C   UNL     1       5.279   5.470  17.161  0.00  0.00    +0.000 A 
ATOM      6  C   UNL     1       5.735   4.976  15.899  0.00  0.00    +0.000 A 
ATOM      7  C   UNL     1       5.039   4.025  15.144  0.00  0.00    +0.000 A 
ATOM      8  C   UNL     1       5.501   3.631  13.880  0.00  0.00    +0.000 A 
ATOM      9  C   UNL     1       6.656   4.196  13.339  0.00  0.00    +0.000 A 
ATOM     10  C   UNL     1       7.385   5.121  14.068  0.00  0.00    +0.000 A 
ATOM     11  F   UNL     1       8.511   5.661  13.525  0.00  0.00    +0.000 F 
ATOM     12  C   UNL     1       6.959   5.500  15.351  0.00  0.00    +0.000 A 
ATOM     13  N   UNL     1       7.728   6.376  16.052  0.00  0.00    +0.000 N 
ATOM     14  H   UNL     1       8.625   6.744  15.653  0.00  0.00    +0.000 HD
ENDBRANCH   1   5
BRANCH   1  15
ATOM     15  N   UNL     1       3.007   5.934  18.966  0.00  0.00    +0.000 N 
ATOM     16  C   UNL     1       2.598   5.097  19.964  0.00  0.00    +0.000 A 
ATOM     17  N   UNL     1       2.179   5.750  21.066  0.00  0.00    +0.000 NA
ATOM     18  C   UNL     1       1.920   6.953  20.607  0.00  0.00    +0.000 A 
ATOM     19  N   UNL     1       1.126   7.839  21.238  0.00  0.00    +0.000 NA
ATOM     20  C   UNL     1       0.739   8.931  20.539  0.00  0.00    +0.000 A 
ATOM     21  C   UNL     1       1.217   9.133  19.219  0.00  0.00    +0.000 A 
ATOM     22  N   UNL     1       2.098   8.228  18.632  0.00  0.00    +0.000 NA
ATOM     23  C   UNL     1       2.372   7.098  19.327  0.00  0.00    +0.000 A 
BRANCH  16  24
ATOM     24  C   UNL     1       1.401   4.320  19.413  0.00  0.00    +0.000 C 
ATOM     25  C   UNL     1       1.474   3.370  18.262  0.00  0.00    +0.000 C 
ATOM     26  C   UNL     1       0.444   2.494  19.017  0.00  0.00    +0.000 C 
ATOM     27  C   UNL     1       0.857   3.174  20.301  0.00  0.00    +0.000 C 
ENDBRANCH  16  24
ENDBRANCH   1  15
TORSDOF 3
ENDMDL
MODEL 4
REMARK VINA RESULT:      -8.2      4.110      6.522
REMARK  Name = 
REMARK  3 active torsions:
REMARK  status: ('A' for Active; 'I' for Inactive)
REMARK    1  A    between atoms: C_4  and  C_5
REMARK    2  A    between atoms: C_5  and  N_6
REMARK    3  A    between atoms: C_7  and  C_8
REMARK                            x       y       z     vdW  Elec       q    Type
REMARK                         _______ _______ _______ _____ _____    ______ ____
ROOT
ATOM      1  C   UNL     1       1.843   8.653  18.566  0.00  0.00    +0.000 C 
ENDROOT
BRANCH   1   5
ATOM      2  O   UNL     1       5.362   6.710  16.101  0.00  0.00    +0.000 OA
ATOM      3  C   UNL     1       4.563   6.519  17.019  0.00  0.00    +0.000 A 
ATOM      4  C   UNL     1       3.703   7.535  17.395  0.00  0.00    +0.000 A 
ATOM      5  C   UNL     1       2.758   7.390  18.462  0.00  0.00    +0.000 A 
ATOM      6  C   UNL     1       2.786   6.140  19.154  0.00  0.00    +0.000 A 
ATOM      7  C   UNL     1       1.984   5.853  20.266  0.00  0.00    +0.000 A 
ATOM      8  C   UNL     1       2.005   4.583  20.860  0.00  0.00    +0.000 A 
ATOM      9  C   UNL     1       2.811   3.570  20.340  0.00  0.00    +0.000 A 
ATOM     10  C   UNL     1       3.637   3.824  19.257  0.00  0.00    +0.000 A 
ATOM     11  F   UNL     1       4.418   2.824  18.764  0.00  0.00    +0.000 F 
ATOM     12  C   UNL     1       3.657   5.100  18.672  0.00  0.00    +0.000 A 
ATOM     13  N   UNL     1       4.516   5.321  17.640  0.00  0.00    +0.000 N 
ATOM     14  H   UNL     1       5.158   4.564  17.303  0.00  0.00    +0.000 HD
ENDBRANCH   1   5
BRANCH   1  15
ATOM     15  N   UNL     1       0.986   9.492  19.500  0.00  0.00    +0.000 N 
ATOM     16  C   UNL     1       0.457  10.607  18.914  0.00  0.00    +0.000 A 
ATOM     17  N   UNL     1      -0.639  11.069  19.547  0.00  0.00    +0.000 NA
ATOM     18  C   UNL     1      -0.537  10.524  20.737  0.00  0.00    +0.000 A 
ATOM     19  N   UNL     1      -1.178  10.983  21.828  0.00  0.00    +0.000 NA
ATOM     20  C   UNL     1      -0.787  10.495  23.028  0.00  0.00    +0.000 A 
ATOM     21  C   UNL     1       0.218   9.497  23.092  0.00  0.00    +0.000 A 
ATOM     22  N   UNL     1       0.802   8.995  21.933  0.00  0.00    +0.000 NA
ATOM     23  C   UNL     1       0.458   9.589  20.765  0.00  0.00    +0.000 A 
BRANCH  16  24
ATOM     24  C   UNL     1       1.529  11.694  19.007  0.00  0.00    +0.000 C 
ATOM     25  C   UNL     1       2.537  11.973  17.940  0.00  0.00    +0.000 C 
ATOM     26  C   UNL     1       2.382  13.474  18.292  0.00  0.00    +0.000 C 
ATOM     27  C   UNL     1       1.035  13.158  18.898  0.00  0.00    +0.000 C 
ENDBRANCH  16  24
ENDBRANCH   1  15
TORSDOF 3
ENDMDL
MODEL 5
REMARK VINA RESULT:      -8.1      4.126      7.853
REMARK  Name = 
REMARK  3 active torsions:
REMARK  status: ('A' for Active; 'I' for Inactive)
REMARK    1  A    between atoms: C_4  and  C_5
REMARK    2  A    between atoms: C_5  and  N_6
REMARK    3  A    between atoms: C_7  and  C_8
REMARK                            x       y       z     vdW  Elec       q    Type
REMARK                         _______ _______ _______ _____ _____    ______ ____
ROOT
ATOM      1  C   UNL     1       2.211   6.890  19.706  0.00  0.00    +0.000 C 
ENDROOT
BRANCH   1   5
ATOM      2  O   UNL     1       2.181  10.986  17.372  0.00  0.00    +0.000 OA
ATOM      3  C   UNL     1       1.795  10.419  18.394  0.00  0.00    +0.000 A 
ATOM      4  C   UNL     1       2.072   9.074  18.572  0.00  0.00    +0.000 A 
ATOM      5  C   UNL     1       1.642   8.345  19.727  0.00  0.00    +0.000 A 
ATOM      6  C   UNL     1       0.862   9.079  20.674  0.00  0.00    +0.000 A 
ATOM      7  C   UNL     1       0.300   8.507  21.822  0.00  0.00    +0.000 A 
ATOM      8  C   UNL     1      -0.396   9.294  22.751  0.00  0.00    +0.000 A 
ATOM      9  C   UNL     1      -0.523  10.670  22.561  0.00  0.00    +0.000 A 
ATOM     10  C   UNL     1      -0.002  11.267  21.424  0.00  0.00    +0.000 A 
ATOM     11  F   UNL     1      -0.138  12.611  21.255  0.00  0.00    +0.000 F 
ATOM     12  C   UNL     1       0.665  10.489  20.465  0.00  0.00    +0.000 A 
ATOM     13  N   UNL     1       1.122  11.107  19.341  0.00  0.00    +0.000 N 
ATOM     14  H   UNL     1       0.963  12.131  19.187  0.00  0.00    +0.000 HD
ENDBRANCH   1   5
BRANCH   1  15
ATOM     15  N   UNL     1       2.875   5.827  18.845  0.00  0.00    +0.000 N 
ATOM     16  C   UNL     1       2.123   4.700  18.678  0.00  0.00    +0.000 A 
ATOM     17  N   UNL     1       2.461   3.995  17.581  0.00  0.00    +0.000 NA
ATOM     18  C   UNL     1       3.672   4.430  17.319  0.00  0.00    +0.000 A 
ATOM     19  N   UNL     1       4.559   3.762  16.559  0.00  0.00    +0.000 NA
ATOM     20  C   UNL     1       5.842   4.191  16.583  0.00  0.00    +0.000 A 
ATOM     21  C   UNL     1       6.191   5.338  17.341  0.00  0.00    +0.000 A 
ATOM     22  N   UNL     1       5.225   6.045  18.052  0.00  0.00    +0.000 NA
ATOM     23  C   UNL     1       3.978   5.517  18.087  0.00  0.00    +0.000 A 
BRANCH  16  24
ATOM     24  C   UNL     1       2.398   3.812  19.893  0.00  0.00    +0.000 C 
ATOM     25  C   UNL     1       1.989   4.150  21.290  0.00  0.00    +0.000 C 
ATOM     26  C   UNL     1       1.694   2.642  21.487  0.00  0.00    +0.000 C 
ATOM     27  C   UNL     1       1.575   2.503  19.989  0.00  0.00    +0.000 C 
ENDBRANCH  16  24
ENDBRANCH   1  15
TORSDOF 3
ENDMDL
MODEL 6
REMARK VINA RESULT:      -8.0      4.528      8.155
REMARK  Name = 
REMARK  3 active torsions:
REMARK  status: ('A' for Active; 'I' for Inactive)
REMARK    1  A    between atoms: C_4  and  C_5
REMARK    2  A    between atoms: C_5  and  N_6
REMARK    3  A    between atoms: C_7  and  C_8
REMARK                            x       y       z     vdW  Elec       q    Type
REMARK                         _______ _______ _______ _____ _____    ______ ____
ROOT
ATOM      1  C   UNL     1       2.581   8.266  18.382  0.00  0.00    +0.000 C 
ENDROOT
BRANCH   1   5
ATOM      2  O   UNL     1      -1.372  10.545  17.197  0.00  0.00    +0.000 OA
ATOM      3  C   UNL     1      -0.685  10.170  18.147  0.00  0.00    +0.000 A 
ATOM      4  C   UNL     1       0.461   9.432  17.908  0.00  0.00    +0.000 A 
ATOM      5  C   UNL     1       1.302   8.950  18.962  0.00  0.00    +0.000 A 
ATOM      6  C   UNL     1       0.861   9.236  20.292  0.00  0.00    +0.000 A 
ATOM      7  C   UNL     1       1.519   8.780  21.440  0.00  0.00    +0.000 A 
ATOM      8  C   UNL     1       1.079   9.153  22.719  0.00  0.00    +0.000 A 
ATOM      9  C   UNL     1      -0.014  10.006  22.871  0.00  0.00    +0.000 A 
ATOM     10  C   UNL     1      -0.706  10.457  21.759  0.00  0.00    +0.000 A 
ATOM     11  F   UNL     1      -1.771  11.287  21.928  0.00  0.00    +0.000 F 
ATOM     12  C   UNL     1      -0.303  10.064  20.473  0.00  0.00    +0.000 A 
ATOM     13  N   UNL     1      -1.037  10.491  19.410  0.00  0.00    +0.000 N 
ATOM     14  H   UNL     1      -1.892  11.082  19.549  0.00  0.00    +0.000 HD
ENDBRANCH   1   5
BRANCH   1  15
ATOM     15  N   UNL     1       3.226   6.936  18.024  0.00  0.00    +0.000 N 
ATOM     16  C   UNL     1       2.426   5.853  18.251  0.00  0.00    +0.000 A 
ATOM     17  N   UNL     1       2.774   4.775  17.522  0.00  0.00    +0.000 NA
ATOM     18  C   UNL     1       4.015   5.042  17.185  0.00  0.00    +0.000 A 
ATOM     19  N   UNL     1       4.899   4.109  16.784  0.00  0.00    +0.000 NA
ATOM     20  C   UNL     1       6.199   4.477  16.716  0.00  0.00    +0.000 A 
ATOM     21  C   UNL     1       6.573   5.814  17.005  0.00  0.00    +0.000 A 
ATOM     22  N   UNL     1       5.615   6.766  17.342  0.00  0.00    +0.000 NA
ATOM     23  C   UNL     1       4.343   6.329  17.502  0.00  0.00    +0.000 A 
BRANCH  16  24
ATOM     24  C   UNL     1       2.607   5.484  19.724  0.00  0.00    +0.000 C 
ATOM     25  C   UNL     1       1.492   5.424  20.719  0.00  0.00    +0.000 C 
ATOM     26  C   UNL     1       2.214   4.203  21.340  0.00  0.00    +0.000 C 
ATOM     27  C   UNL     1       2.931   4.000  20.027  0.00  0.00    +0.000 C 
ENDBRANCH  16  24
ENDBRANCH   1  15
TORSDOF 3
ENDMDL
MODEL 7
REMARK VINA RESULT:      -8.0      4.411      6.734
REMARK  Name = 
REMARK  3 active torsions:
REMARK  status: ('A' for Active; 'I' for Inactive)
REMARK    1  A    between atoms: C_4  and  C_5
REMARK    2  A    between atoms: C_5  and  N_6
REMARK    3  A    between atoms: C_7  and  C_8
REMARK                            x       y       z     vdW  Elec       q    Type
REMARK                         _______ _______ _______ _____ _____    ______ ____
ROOT
ATOM      1  C   UNL     1       1.982   8.919  18.587  0.00  0.00    +0.000 C 
ENDROOT
BRANCH   1   5
ATOM      2  O   UNL     1       1.718   4.949  21.115  0.00  0.00    +0.000 OA
ATOM      3  C   UNL     1       2.280   5.487  20.161  0.00  0.00    +0.000 A 
ATOM      4  C   UNL     1       1.910   6.768  19.789  0.00  0.00    +0.000 A 
ATOM      5  C   UNL     1       2.508   7.451  18.681  0.00  0.00    +0.000 A 
ATOM      6  C   UNL     1       3.486   6.711  17.945  0.00  0.00    +0.000 A 
ATOM      7  C   UNL     1       4.117   7.196  16.794  0.00  0.00    +0.000 A 
ATOM      8  C   UNL     1       5.121   6.452  16.156  0.00  0.00    +0.000 A 
ATOM      9  C   UNL     1       5.525   5.220  16.670  0.00  0.00    +0.000 A 
ATOM     10  C   UNL     1       4.905   4.697  17.792  0.00  0.00    +0.000 A 
ATOM     11  F   UNL     1       5.312   3.492  18.278  0.00  0.00    +0.000 F 
ATOM     12  C   UNL     1       3.874   5.410  18.423  0.00  0.00    +0.000 A 
ATOM     13  N   UNL     1       3.259   4.839  19.496  0.00  0.00    +0.000 N 
ATOM     14  H   UNL     1       3.537   3.885  19.830  0.00  0.00    +0.000 HD
ENDBRANCH   1   5
BRANCH   1  15
ATOM     15  N   UNL     1       0.783   9.827  18.814  0.00  0.00    +0.000 N 
ATOM     16  C   UNL     1       0.875  10.595  19.940  0.00  0.00    +0.000 A 
ATOM     17  N   UNL     1       0.099  11.695  19.896  0.00  0.00    +0.000 NA
ATOM     18  C   UNL     1      -0.778  11.393  18.967  0.00  0.00    +0.000 A 
ATOM     19  N   UNL     1      -1.969  12.007  18.834  0.00  0.00    +0.000 NA
ATOM     20  C   UNL     1      -2.874  11.432  18.009  0.00  0.00    +0.000 A 
ATOM     21  C   UNL     1      -2.528  10.263  17.283  0.00  0.00    +0.000 A 
ATOM     22  N   UNL     1      -1.258   9.704  17.393  0.00  0.00    +0.000 NA
ATOM     23  C   UNL     1      -0.423  10.250  18.310  0.00  0.00    +0.000 A 
BRANCH  16  24
ATOM     24  C   UNL     1       0.372   9.728  21.096  0.00  0.00    +0.000 C 
ATOM     25  C   UNL     1       1.241   9.204  22.193  0.00  0.00    +0.000 C 
ATOM     26  C   UNL     1       0.048   9.447  23.151  0.00  0.00    +0.000 C 
ATOM     27  C   UNL     1      -0.506  10.438  22.156  0.00  0.00    +0.000 C 
ENDBRANCH  16  24
ENDBRANCH   1  15
TORSDOF 3
ENDMDL
MODEL 8
REMARK VINA RESULT:      -8.0      4.608      7.723
REMARK  Name = 
REMARK  3 active torsions:
REMARK  status: ('A' for Active; 'I' for Inactive)
REMARK    1  A    between atoms: C_4  and  C_5
REMARK    2  A    between atoms: C_5  and  N_6
REMARK    3  A    between atoms: C_7  and  C_8
REMARK                            x       y       z     vdW  Elec       q    Type
REMARK                         _______ _______ _______ _____ _____    ______ ____
ROOT
ATOM      1  C   UNL     1       2.230   7.677  19.627  0.00  0.00    +0.000 C 
ENDROOT
BRANCH   1   5
ATOM      2  O   UNL     1       0.731   9.502  23.707  0.00  0.00    +0.000 OA
ATOM      3  C   UNL     1       0.599   9.554  22.484  0.00  0.00    +0.000 A 
ATOM      4  C   UNL     1       1.393   8.755  21.680  0.00  0.00    +0.000 A 
ATOM      5  C   UNL     1       1.306   8.772  20.251  0.00  0.00    +0.000 A 
ATOM      6  C   UNL     1       0.376   9.704  19.693  0.00  0.00    +0.000 A 
ATOM      7  C   UNL     1       0.214   9.904  18.317  0.00  0.00    +0.000 A 
ATOM      8  C   UNL     1      -0.766  10.782  17.828  0.00  0.00    +0.000 A 
ATOM      9  C   UNL     1      -1.614  11.457  18.706  0.00  0.00    +0.000 A 
ATOM     10  C   UNL     1      -1.466  11.303  20.074  0.00  0.00    +0.000 A 
ATOM     11  F   UNL     1      -2.303  11.971  20.915  0.00  0.00    +0.000 F 
ATOM     12  C   UNL     1      -0.467  10.458  20.583  0.00  0.00    +0.000 A 
ATOM     13  N   UNL     1      -0.325  10.370  21.934  0.00  0.00    +0.000 N 
ATOM     14  H   UNL     1      -0.933  10.932  22.577  0.00  0.00    +0.000 HD
ENDBRANCH   1   5
BRANCH   1  15
ATOM     15  N   UNL     1       2.589   6.199  19.640  0.00  0.00    +0.000 N 
ATOM     16  C   UNL     1       3.888   5.942  19.306  0.00  0.00    +0.000 A 
ATOM     17  N   UNL     1       4.328   4.754  19.765  0.00  0.00    +0.000 NA
ATOM     18  C   UNL     1       3.212   4.102  19.995  0.00  0.00    +0.000 A 
ATOM     19  N   UNL     1       3.137   2.762  20.097  0.00  0.00    +0.000 NA
ATOM     20  C   UNL     1       1.903   2.207  20.076  0.00  0.00    +0.000 A 
ATOM     21  C   UNL     1       0.755   3.038  20.009  0.00  0.00    +0.000 A 
ATOM     22  N   UNL     1       0.877   4.424  19.981  0.00  0.00    +0.000 NA
ATOM     23  C   UNL     1       2.131   4.930  19.895  0.00  0.00    +0.000 A 
BRANCH  16  24
ATOM     24  C   UNL     1       3.939   5.887  17.778  0.00  0.00    +0.000 C 
ATOM     25  C   UNL     1       4.518   6.963  16.917  0.00  0.00    +0.000 C 
ATOM     26  C   UNL     1       5.046   5.836  15.996  0.00  0.00    +0.000 C 
ATOM     27  C   UNL     1       4.938   4.879  17.159  0.00  0.00    +0.000 C 
ENDBRANCH  16  24
ENDBRANCH   1  15
TORSDOF 3
ENDMDL
MODEL 9
REMARK VINA RESULT:      -8.0      4.321      7.611
REMARK  Name = 
REMARK  3 active torsions:
REMARK  status: ('A' for Active; 'I' for Inactive)
REMARK    1  A    between atoms: C_4  and  C_5
REMARK    2  A    between atoms: C_5  and  N_6
REMARK    3  A    between atoms: C_7  and  C_8
REMARK                            x       y       z     vdW  Elec       q    Type
REMARK                         _______ _______ _______ _____ _____    ______ ____
ROOT
ATOM      1  C   UNL     1       2.284   7.733  18.531  0.00  0.00    +0.000 C 
ENDROOT
BRANCH   1   5
ATOM      2  O   UNL     1       2.001  12.395  17.889  0.00  0.00    +0.000 OA
ATOM      3  C   UNL     1       1.677  11.470  18.634  0.00  0.00    +0.000 A 
ATOM      4  C   UNL     1       2.014  10.172  18.293  0.00  0.00    +0.000 A 
ATOM      5  C   UNL     1       1.658   9.045  19.103  0.00  0.00    +0.000 A 
ATOM      6  C   UNL     1       0.886   9.335  20.271  0.00  0.00    +0.000 A 
ATOM      7  C   UNL     1       0.392   8.351  21.135  0.00  0.00    +0.000 A 
ATOM      8  C   UNL     1      -0.298   8.700  22.305  0.00  0.00    +0.000 A 
ATOM      9  C   UNL     1      -0.488  10.041  22.643  0.00  0.00    +0.000 A 
ATOM     10  C   UNL     1      -0.035  11.042  21.799  0.00  0.00    +0.000 A 
ATOM     11  F   UNL     1      -0.230  12.344  22.144  0.00  0.00    +0.000 F 
ATOM     12  C   UNL     1       0.625  10.711  20.606  0.00  0.00    +0.000 A 
ATOM     13  N   UNL     1       1.013  11.723  19.782  0.00  0.00    +0.000 N 
ATOM     14  H   UNL     1       0.808  12.722  20.024  0.00  0.00    +0.000 HD
ENDBRANCH   1   5
BRANCH   1  15
ATOM     15  N   UNL     1       2.748   6.325  18.872  0.00  0.00    +0.000 N 
ATOM     16  C   UNL     1       4.082   6.117  18.669  0.00  0.00    +0.000 A 
ATOM     17  N   UNL     1       4.573   5.090  19.389  0.00  0.00    +0.000 NA
ATOM     18  C   UNL     1       3.494   4.406  19.691  0.00  0.00    +0.000 A 
ATOM     19  N   UNL     1       3.509   3.113  20.067  0.00  0.00    +0.000 NA
ATOM     20  C   UNL     1       2.322   2.463  20.098  0.00  0.00    +0.000 A 
ATOM     21  C   UNL     1       1.125   3.162  19.797  0.00  0.00    +0.000 A 
ATOM     22  N   UNL     1       1.148   4.519  19.486  0.00  0.00    +0.000 NA
ATOM     23  C   UNL     1       2.365   5.100  19.363  0.00  0.00    +0.000 A 
BRANCH  16  24
ATOM     24  C   UNL     1       4.242   5.755  17.191  0.00  0.00    +0.000 C 
ATOM     25  C   UNL     1       4.910   6.629  16.179  0.00  0.00    +0.000 C 
ATOM     26  C   UNL     1       5.475   5.334  15.545  0.00  0.00    +0.000 C 
ATOM     27  C   UNL     1       5.258   4.632  16.864  0.00  0.00    +0.000 C 
ENDBRANCH  16  24
ENDBRANCH   1  15
TORSDOF 3
ENDMDL
