MODEL 1
REMARK VINA RESULT:      -7.4      0.000      0.000
REMARK  Name = 
REMARK  14 active torsions:
REMARK  status: ('A' for Active; 'I' for Inactive)
REMARK    1  A    between atoms: C_1  and  O_2
REMARK    2  A    between atoms: O_2  and  C_3
REMARK    3  A    between atoms: C_5  and  C_6
REMARK    4  A    between atoms: C_7  and  C_8
REMARK    5  A    between atoms: C_8  and  C_9
REMARK    6  A    between atoms: C_12  and  O_13
REMARK    7  A    between atoms: O_13  and  C_14
REMARK    8  A    between atoms: C_15  and  O_16
REMARK    9  A    between atoms: O_16  and  C_17
REMARK   10  A    between atoms: C_19  and  C_20
REMARK   11  A    between atoms: C_20  and  O_21
REMARK   12  A    between atoms: C_22  and  O_23
REMARK   13  A    between atoms: C_24  and  O_25
REMARK   14  A    between atoms: C_26  and  O_27
REMARK                            x       y       z     vdW  Elec       q    Type
REMARK                         _______ _______ _______ _____ _____    ______ ____
ROOT
ATOM      1  O   UNL     1       3.471   4.340  16.693  0.00  0.00    +0.000 OA
ENDROOT
BRANCH   1   7
ATOM      2  C   UNL     1       5.852   4.926  16.372  0.00  0.00    +0.000 A 
ATOM      3  C   UNL     1       6.884   5.816  16.703  0.00  0.00    +0.000 A 
ATOM      4  C   UNL     1       6.631   7.016  17.378  0.00  0.00    +0.000 A 
ATOM      5  C   UNL     1       5.308   7.339  17.684  0.00  0.00    +0.000 A 
ATOM      6  C   UNL     1       4.267   6.452  17.376  0.00  0.00    +0.000 A 
ATOM      7  C   UNL     1       4.539   5.197  16.800  0.00  0.00    +0.000 A 
BRANCH   2   9
ATOM      8  C   UNL     1       6.231   3.809  14.296  0.00  0.00    +0.000 C 
ATOM      9  O   UNL     1       6.098   3.748  15.713  0.00  0.00    +0.000 OA
ENDBRANCH   2   9
BRANCH   4  10
ATOM     10  C   UNL     1       7.778   7.815  17.829  0.00  0.00    +0.000 C 
ATOM     11  C   UNL     1       7.781   9.155  17.934  0.00  0.00    +0.000 C 
BRANCH  11  12
ATOM     12  C   UNL     1       8.907  10.008  18.420  0.00  0.00    +0.000 C 
ATOM     13  C   UNL     1       9.314  11.270  17.703  0.00  0.00    +0.000 C 
ATOM     14  O   UNL     1       9.507   9.650  19.438  0.00  0.00    +0.000 OA
ENDBRANCH  11  12
ENDBRANCH   4  10
BRANCH   6  15
ATOM     15  O   UNL     1       3.029   6.858  17.810  0.00  0.00    +0.000 OA
ATOM     16  C   UNL     1       2.758   8.250  17.666  0.00  0.00    +0.000 C 
ENDBRANCH   6  15
ENDBRANCH   1   7
BRANCH   1  17
ATOM     17  C   UNL     1       2.985   3.634  17.857  0.00  0.00    +0.000 C 
ATOM     18  O   UNL     1       2.378   4.487  18.818  0.00  0.00    +0.000 OA
ATOM     19  C   UNL     1       2.030   3.886  20.064  0.00  0.00    +0.000 C 
ATOM     20  C   UNL     1       3.222   3.202  20.734  0.00  0.00    +0.000 C 
ATOM     21  C   UNL     1       3.880   2.197  19.789  0.00  0.00    +0.000 C 
ATOM     22  C   UNL     1       4.128   2.728  18.376  0.00  0.00    +0.000 C 
BRANCH  20  23
ATOM     23  O   UNL     1       2.750   2.508  21.901  0.00  0.00    +0.000 OA
ATOM     24  H   UNL     1       2.351   3.167  22.501  0.00  0.00    +0.000 HD
ENDBRANCH  20  23
BRANCH  21  25
ATOM     25  O   UNL     1       5.109   1.744  20.389  0.00  0.00    +0.000 OA
ATOM     26  H   UNL     1       4.902   1.002  20.980  0.00  0.00    +0.000 HD
ENDBRANCH  21  25
BRANCH  22  27
ATOM     27  O   UNL     1       4.331   1.605  17.480  0.00  0.00    +0.000 OA
ATOM     28  H   UNL     1       3.586   1.563  16.852  0.00  0.00    +0.000 HD
ENDBRANCH  22  27
BRANCH  19  29
ATOM     29  C   UNL     1       1.504   5.034  20.940  0.00  0.00    +0.000 C 
BRANCH  29  30
ATOM     30  O   UNL     1       2.264   6.225  20.697  0.00  0.00    +0.000 OA
ATOM     31  H   UNL     1       1.837   6.635  19.918  0.00  0.00    +0.000 HD
ENDBRANCH  29  30
ENDBRANCH  19  29
ENDBRANCH   1  17
TORSDOF 11
ENDMDL
MODEL 2
REMARK VINA RESULT:      -7.3      1.794      2.923
REMARK  Name = 
REMARK  14 active torsions:
REMARK  status: ('A' for Active; 'I' for Inactive)
REMARK    1  A    between atoms: C_1  and  O_2
REMARK    2  A    between atoms: O_2  and  C_3
REMARK    3  A    between atoms: C_5  and  C_6
REMARK    4  A    between atoms: C_7  and  C_8
REMARK    5  A    between atoms: C_8  and  C_9
REMARK    6  A    between atoms: C_12  and  O_13
REMARK    7  A    between atoms: O_13  and  C_14
REMARK    8  A    between atoms: C_15  and  O_16
REMARK    9  A    between atoms: O_16  and  C_17
REMARK   10  A    between atoms: C_19  and  C_20
REMARK   11  A    between atoms: C_20  and  O_21
REMARK   12  A    between atoms: C_22  and  O_23
REMARK   13  A    between atoms: C_24  and  O_25
REMARK   14  A    between atoms: C_26  and  O_27
REMARK                            x       y       z     vdW  Elec       q    Type
REMARK                         _______ _______ _______ _____ _____    ______ ____
ROOT
ATOM      1  O   UNL     1       6.061   3.955  18.325  0.00  0.00    +0.000 OA
ENDROOT
BRANCH   1   7
ATOM      2  C   UNL     1       7.484   5.798  19.160  0.00  0.00    +0.000 A 
ATOM      3  C   UNL     1       7.959   7.096  18.925  0.00  0.00    +0.000 A 
ATOM      4  C   UNL     1       7.771   7.737  17.694  0.00  0.00    +0.000 A 
ATOM      5  C   UNL     1       7.129   7.035  16.673  0.00  0.00    +0.000 A 
ATOM      6  C   UNL     1       6.632   5.743  16.896  0.00  0.00    +0.000 A 
ATOM      7  C   UNL     1       6.724   5.148  18.169  0.00  0.00    +0.000 A 
BRANCH   2   9
ATOM      8  C   UNL     1       8.997   4.808  20.719  0.00  0.00    +0.000 C 
ATOM      9  O   UNL     1       7.665   5.170  20.366  0.00  0.00    +0.000 OA
ENDBRANCH   2   9
BRANCH   4  10
ATOM     10  C   UNL     1       8.155   9.149  17.580  0.00  0.00    +0.000 C 
ATOM     11  C   UNL     1       8.874   9.822  18.496  0.00  0.00    +0.000 C 
BRANCH  11  12
ATOM     12  C   UNL     1       9.319  11.245  18.409  0.00  0.00    +0.000 C 
ATOM     13  C   UNL     1       8.549  12.272  17.618  0.00  0.00    +0.000 C 
ATOM     14  O   UNL     1      10.348  11.567  19.010  0.00  0.00    +0.000 OA
ENDBRANCH  11  12
ENDBRANCH   4  10
BRANCH   6  15
ATOM     15  O   UNL     1       5.950   5.206  15.834  0.00  0.00    +0.000 OA
ATOM     16  C   UNL     1       6.738   4.438  14.928  0.00  0.00    +0.000 C 
ENDBRANCH   6  15
ENDBRANCH   1   7
BRANCH   1  17
ATOM     17  C   UNL     1       4.644   3.943  18.612  0.00  0.00    +0.000 C 
ATOM     18  O   UNL     1       4.091   5.243  18.765  0.00  0.00    +0.000 OA
ATOM     19  C   UNL     1       2.740   5.304  19.216  0.00  0.00    +0.000 C 
ATOM     20  C   UNL     1       2.529   4.550  20.530  0.00  0.00    +0.000 C 
ATOM     21  C   UNL     1       3.021   3.107  20.419  0.00  0.00    +0.000 C 
ATOM     22  C   UNL     1       4.405   2.958  19.783  0.00  0.00    +0.000 C 
BRANCH  20  23
ATOM     23  O   UNL     1       1.124   4.544  20.830  0.00  0.00    +0.000 OA
ATOM     24  H   UNL     1       0.658   4.980  20.091  0.00  0.00    +0.000 HD
ENDBRANCH  20  23
BRANCH  21  25
ATOM     25  O   UNL     1       2.995   2.515  21.732  0.00  0.00    +0.000 OA
ATOM     26  H   UNL     1       2.565   1.647  21.663  0.00  0.00    +0.000 HD
ENDBRANCH  21  25
BRANCH  22  27
ATOM     27  O   UNL     1       4.573   1.589  19.335  0.00  0.00    +0.000 OA
ATOM     28  H   UNL     1       4.418   0.988  20.088  0.00  0.00    +0.000 HD
ENDBRANCH  22  27
BRANCH  19  29
ATOM     29  C   UNL     1       2.434   6.799  19.396  0.00  0.00    +0.000 C 
BRANCH  29  30
ATOM     30  O   UNL     1       2.187   7.085  20.779  0.00  0.00    +0.000 OA
ATOM     31  H   UNL     1       2.954   7.624  21.061  0.00  0.00    +0.000 HD
ENDBRANCH  29  30
ENDBRANCH  19  29
ENDBRANCH   1  17
TORSDOF 11
ENDMDL
MODEL 3
REMARK VINA RESULT:      -7.0      3.152      6.355
REMARK  Name = 
REMARK  14 active torsions:
REMARK  status: ('A' for Active; 'I' for Inactive)
REMARK    1  A    between atoms: C_1  and  O_2
REMARK    2  A    between atoms: O_2  and  C_3
REMARK    3  A    between atoms: C_5  and  C_6
REMARK    4  A    between atoms: C_7  and  C_8
REMARK    5  A    between atoms: C_8  and  C_9
REMARK    6  A    between atoms: C_12  and  O_13
REMARK    7  A    between atoms: O_13  and  C_14
REMARK    8  A    between atoms: C_15  and  O_16
REMARK    9  A    between atoms: O_16  and  C_17
REMARK   10  A    between atoms: C_19  and  C_20
REMARK   11  A    between atoms: C_20  and  O_21
REMARK   12  A    between atoms: C_22  and  O_23
REMARK   13  A    between atoms: C_24  and  O_25
REMARK   14  A    between atoms: C_26  and  O_27
REMARK                            x       y       z     vdW  Elec       q    Type
REMARK                         _______ _______ _______ _____ _____    ______ ____
ROOT
ATOM      1  O   UNL     1       2.860   5.764  18.065  0.00  0.00    +0.000 OA
ENDROOT
BRANCH   1   7
ATOM      2  C   UNL     1       1.961   6.010  20.356  0.00  0.00    +0.000 A 
ATOM      3  C   UNL     1       1.308   6.857  21.262  0.00  0.00    +0.000 A 
ATOM      4  C   UNL     1       1.120   8.218  20.992  0.00  0.00    +0.000 A 
ATOM      5  C   UNL     1       1.641   8.736  19.805  0.00  0.00    +0.000 A 
ATOM      6  C   UNL     1       2.280   7.900  18.880  0.00  0.00    +0.000 A 
ATOM      7  C   UNL     1       2.365   6.513  19.105  0.00  0.00    +0.000 A 
BRANCH   2   9
ATOM      8  C   UNL     1       1.058   3.800  20.322  0.00  0.00    +0.000 C 
ATOM      9  O   UNL     1       2.143   4.675  20.617  0.00  0.00    +0.000 OA
ENDBRANCH   2   9
BRANCH   4  10
ATOM     10  C   UNL     1       0.290   9.002  21.915  0.00  0.00    +0.000 C 
ATOM     11  C   UNL     1      -0.038  10.293  21.739  0.00  0.00    +0.000 C 
BRANCH  11  12
ATOM     12  C   UNL     1      -0.906  11.122  22.628  0.00  0.00    +0.000 C 
ATOM     13  C   UNL     1      -0.858  12.628  22.606  0.00  0.00    +0.000 C 
ATOM     14  O   UNL     1      -1.677  10.536  23.394  0.00  0.00    +0.000 OA
ENDBRANCH  11  12
ENDBRANCH   4  10
BRANCH   6  15
ATOM     15  O   UNL     1       2.665   8.525  17.721  0.00  0.00    +0.000 OA
ATOM     16  C   UNL     1       2.286   9.895  17.612  0.00  0.00    +0.000 C 
ENDBRANCH   6  15
ENDBRANCH   1   7
BRANCH   1  17
ATOM     17  C   UNL     1       4.180   5.180  18.154  0.00  0.00    +0.000 C 
ATOM     18  O   UNL     1       5.223   6.146  18.157  0.00  0.00    +0.000 OA
ATOM     19  C   UNL     1       6.552   5.639  18.072  0.00  0.00    +0.000 C 
ATOM     20  C   UNL     1       6.755   4.737  16.853  0.00  0.00    +0.000 C 
ATOM     21  C   UNL     1       5.721   3.612  16.825  0.00  0.00    +0.000 C 
ATOM     22  C   UNL     1       4.283   4.069  17.081  0.00  0.00    +0.000 C 
BRANCH  20  23
ATOM     23  O   UNL     1       8.070   4.162  16.927  0.00  0.00    +0.000 OA
ATOM     24  H   UNL     1       7.983   3.258  17.286  0.00  0.00    +0.000 HD
ENDBRANCH  20  23
BRANCH  21  25
ATOM     25  O   UNL     1       5.824   2.930  15.561  0.00  0.00    +0.000 OA
ATOM     26  H   UNL     1       5.033   3.140  15.038  0.00  0.00    +0.000 HD
ENDBRANCH  21  25
BRANCH  22  27
ATOM     27  O   UNL     1       3.484   2.920  17.462  0.00  0.00    +0.000 OA
ATOM     28  H   UNL     1       2.859   3.187  18.162  0.00  0.00    +0.000 HD
ENDBRANCH  22  27
BRANCH  19  29
ATOM     29  C   UNL     1       7.459   6.876  17.984  0.00  0.00    +0.000 C 
BRANCH  29  30
ATOM     30  O   UNL     1       7.815   7.127  16.618  0.00  0.00    +0.000 OA
ATOM     31  H   UNL     1       8.099   8.064  16.605  0.00  0.00    +0.000 HD
ENDBRANCH  29  30
ENDBRANCH  19  29
ENDBRANCH   1  17
TORSDOF 11
ENDMDL
MODEL 4
REMARK VINA RESULT:      -6.9      2.534      5.186
REMARK  Name = 
REMARK  14 active torsions:
REMARK  status: ('A' for Active; 'I' for Inactive)
REMARK    1  A    between atoms: C_1  and  O_2
REMARK    2  A    between atoms: O_2  and  C_3
REMARK    3  A    between atoms: C_5  and  C_6
REMARK    4  A    between atoms: C_7  and  C_8
REMARK    5  A    between atoms: C_8  and  C_9
REMARK    6  A    between atoms: C_12  and  O_13
REMARK    7  A    between atoms: O_13  and  C_14
REMARK    8  A    between atoms: C_15  and  O_16
REMARK    9  A    between atoms: O_16  and  C_17
REMARK   10  A    between atoms: C_19  and  C_20
REMARK   11  A    between atoms: C_20  and  O_21
REMARK   12  A    between atoms: C_22  and  O_23
REMARK   13  A    between atoms: C_24  and  O_25
REMARK   14  A    between atoms: C_26  and  O_27
REMARK                            x       y       z     vdW  Elec       q    Type
REMARK                         _______ _______ _______ _____ _____    ______ ____
ROOT
ATOM      1  O   UNL     1       4.695   5.577  19.544  0.00  0.00    +0.000 OA
ENDROOT
BRANCH   1   7
ATOM      2  C   UNL     1       4.459   6.065  17.130  0.00  0.00    +0.000 A 
ATOM      3  C   UNL     1       4.999   5.878  15.849  0.00  0.00    +0.000 A 
ATOM      4  C   UNL     1       6.272   5.328  15.661  0.00  0.00    +0.000 A 
ATOM      5  C   UNL     1       7.026   5.001  16.789  0.00  0.00    +0.000 A 
ATOM      6  C   UNL     1       6.495   5.164  18.076  0.00  0.00    +0.000 A 
ATOM      7  C   UNL     1       5.172   5.611  18.256  0.00  0.00    +0.000 A 
BRANCH   2   9
ATOM      8  C   UNL     1       3.138   7.981  17.659  0.00  0.00    +0.000 C 
ATOM      9  O   UNL     1       3.209   6.601  17.317  0.00  0.00    +0.000 OA
ENDBRANCH   2   9
BRANCH   4  10
ATOM     10  C   UNL     1       6.700   5.018  14.291  0.00  0.00    +0.000 C 
ATOM     11  C   UNL     1       6.298   3.944  13.590  0.00  0.00    +0.000 C 
BRANCH  11  12
ATOM     12  C   UNL     1       6.675   3.604  12.185  0.00  0.00    +0.000 C 
ATOM     13  C   UNL     1       6.196   2.341  11.517  0.00  0.00    +0.000 C 
ATOM     14  O   UNL     1       7.401   4.394  11.573  0.00  0.00    +0.000 OA
ENDBRANCH  11  12
ENDBRANCH   4  10
BRANCH   6  15
ATOM     15  O   UNL     1       7.312   4.723  19.087  0.00  0.00    +0.000 OA
ATOM     16  C   UNL     1       8.135   5.721  19.686  0.00  0.00    +0.000 C 
ENDBRANCH   6  15
ENDBRANCH   1   7
BRANCH   1  17
ATOM     17  C   UNL     1       3.948   4.431  20.012  0.00  0.00    +0.000 C 
ATOM     18  O   UNL     1       4.193   3.253  19.255  0.00  0.00    +0.000 OA
ATOM     19  C   UNL     1       3.367   2.130  19.551  0.00  0.00    +0.000 C 
ATOM     20  C   UNL     1       1.877   2.457  19.437  0.00  0.00    +0.000 C 
ATOM     21  C   UNL     1       1.513   3.665  20.298  0.00  0.00    +0.000 C 
ATOM     22  C   UNL     1       2.466   4.854  20.153  0.00  0.00    +0.000 C 
BRANCH  20  23
ATOM     23  O   UNL     1       1.126   1.317  19.889  0.00  0.00    +0.000 OA
ATOM     24  H   UNL     1       1.597   0.513  19.597  0.00  0.00    +0.000 HD
ENDBRANCH  20  23
BRANCH  21  25
ATOM     25  O   UNL     1       0.160   4.054  19.991  0.00  0.00    +0.000 OA
ATOM     26  H   UNL     1      -0.278   3.305  19.554  0.00  0.00    +0.000 HD
ENDBRANCH  21  25
BRANCH  22  27
ATOM     27  O   UNL     1       2.297   5.735  21.293  0.00  0.00    +0.000 OA
ATOM     28  H   UNL     1       1.493   5.473  21.779  0.00  0.00    +0.000 HD
ENDBRANCH  22  27
BRANCH  19  29
ATOM     29  C   UNL     1       3.761   1.049  18.532  0.00  0.00    +0.000 C 
BRANCH  29  30
ATOM     30  O   UNL     1       4.793   0.215  19.077  0.00  0.00    +0.000 OA
ATOM     31  H   UNL     1       5.054   0.658  19.910  0.00  0.00    +0.000 HD
ENDBRANCH  29  30
ENDBRANCH  19  29
ENDBRANCH   1  17
TORSDOF 11
ENDMDL
MODEL 5
REMARK VINA RESULT:      -6.8      2.851      6.468
REMARK  Name = 
REMARK  14 active torsions:
REMARK  status: ('A' for Active; 'I' for Inactive)
REMARK    1  A    between atoms: C_1  and  O_2
REMARK    2  A    between atoms: O_2  and  C_3
REMARK    3  A    between atoms: C_5  and  C_6
REMARK    4  A    between atoms: C_7  and  C_8
REMARK    5  A    between atoms: C_8  and  C_9
REMARK    6  A    between atoms: C_12  and  O_13
REMARK    7  A    between atoms: O_13  and  C_14
REMARK    8  A    between atoms: C_15  and  O_16
REMARK    9  A    between atoms: O_16  and  C_17
REMARK   10  A    between atoms: C_19  and  C_20
REMARK   11  A    between atoms: C_20  and  O_21
REMARK   12  A    between atoms: C_22  and  O_23
REMARK   13  A    between atoms: C_24  and  O_25
REMARK   14  A    between atoms: C_26  and  O_27
REMARK                            x       y       z     vdW  Elec       q    Type
REMARK                         _______ _______ _______ _____ _____    ______ ____
ROOT
ATOM      1  O   UNL     1       3.595   4.440  18.182  0.00  0.00    +0.000 OA
ENDROOT
BRANCH   1   7
ATOM      2  C   UNL     1       2.697   6.679  18.724  0.00  0.00    +0.000 A 
ATOM      3  C   UNL     1       2.019   7.461  19.671  0.00  0.00    +0.000 A 
ATOM      4  C   UNL     1       1.388   6.888  20.781  0.00  0.00    +0.000 A 
ATOM      5  C   UNL     1       1.408   5.499  20.911  0.00  0.00    +0.000 A 
ATOM      6  C   UNL     1       2.096   4.704  19.984  0.00  0.00    +0.000 A 
ATOM      7  C   UNL     1       2.824   5.293  18.933  0.00  0.00    +0.000 A 
BRANCH   2   9
ATOM      8  C   UNL     1       3.009   8.597  17.337  0.00  0.00    +0.000 C 
ATOM      9  O   UNL     1       3.318   7.240  17.636  0.00  0.00    +0.000 OA
ENDBRANCH   2   9
BRANCH   4  10
ATOM     10  C   UNL     1       0.840   7.784  21.808  0.00  0.00    +0.000 C 
ATOM     11  C   UNL     1       0.584   9.090  21.624  0.00  0.00    +0.000 C 
BRANCH  11  12
ATOM     12  C   UNL     1      -0.005  10.032  22.622  0.00  0.00    +0.000 C 
ATOM     13  C   UNL     1      -0.882  11.186  22.205  0.00  0.00    +0.000 C 
ATOM     14  O   UNL     1       0.246   9.843  23.816  0.00  0.00    +0.000 OA
ENDBRANCH  11  12
ENDBRANCH   4  10
BRANCH   6  15
ATOM     15  O   UNL     1       2.105   3.364  20.282  0.00  0.00    +0.000 OA
ATOM     16  C   UNL     1       1.549   3.017  21.548  0.00  0.00    +0.000 C 
ENDBRANCH   6  15
ENDBRANCH   1   7
BRANCH   1  17
ATOM     17  C   UNL     1       4.678   4.958  17.376  0.00  0.00    +0.000 C 
ATOM     18  O   UNL     1       4.586   4.588  16.007  0.00  0.00    +0.000 OA
ATOM     19  C   UNL     1       5.705   4.919  15.188  0.00  0.00    +0.000 C 
ATOM     20  C   UNL     1       7.016   4.353  15.736  0.00  0.00    +0.000 C 
ATOM     21  C   UNL     1       7.234   4.783  17.187  0.00  0.00    +0.000 C 
ATOM     22  C   UNL     1       6.009   4.611  18.088  0.00  0.00    +0.000 C 
BRANCH  20  23
ATOM     23  O   UNL     1       8.098   4.853  14.932  0.00  0.00    +0.000 OA
ATOM     24  H   UNL     1       8.919   4.419  15.232  0.00  0.00    +0.000 HD
ENDBRANCH  20  23
BRANCH  21  25
ATOM     25  O   UNL     1       8.362   4.057  17.713  0.00  0.00    +0.000 OA
ATOM     26  H   UNL     1       9.027   3.981  17.010  0.00  0.00    +0.000 HD
ENDBRANCH  21  25
BRANCH  22  27
ATOM     27  O   UNL     1       6.177   5.429  19.274  0.00  0.00    +0.000 OA
ATOM     28  H   UNL     1       5.761   6.297  19.121  0.00  0.00    +0.000 HD
ENDBRANCH  22  27
BRANCH  19  29
ATOM     29  C   UNL     1       5.395   4.319  13.807  0.00  0.00    +0.000 C 
BRANCH  29  30
ATOM     30  O   UNL     1       6.276   3.220  13.541  0.00  0.00    +0.000 OA
ATOM     31  H   UNL     1       6.489   2.856  14.424  0.00  0.00    +0.000 HD
ENDBRANCH  29  30
ENDBRANCH  19  29
ENDBRANCH   1  17
TORSDOF 11
ENDMDL
MODEL 6
REMARK VINA RESULT:      -6.8      3.090      6.183
REMARK  Name = 
REMARK  14 active torsions:
REMARK  status: ('A' for Active; 'I' for Inactive)
REMARK    1  A    between atoms: C_1  and  O_2
REMARK    2  A    between atoms: O_2  and  C_3
REMARK    3  A    between atoms: C_5  and  C_6
REMARK    4  A    between atoms: C_7  and  C_8
REMARK    5  A    between atoms: C_8  and  C_9
REMARK    6  A    between atoms: C_12  and  O_13
REMARK    7  A    between atoms: O_13  and  C_14
REMARK    8  A    between atoms: C_15  and  O_16
REMARK    9  A    between atoms: O_16  and  C_17
REMARK   10  A    between atoms: C_19  and  C_20
REMARK   11  A    between atoms: C_20  and  O_21
REMARK   12  A    between atoms: C_22  and  O_23
REMARK   13  A    between atoms: C_24  and  O_25
REMARK   14  A    between atoms: C_26  and  O_27
REMARK                            x       y       z     vdW  Elec       q    Type
REMARK                         _______ _______ _______ _____ _____    ______ ____
ROOT
ATOM      1  O   UNL     1       2.884   5.427  17.918  0.00  0.00    +0.000 OA
ENDROOT
BRANCH   1   7
ATOM      2  C   UNL     1       2.025   5.667  20.225  0.00  0.00    +0.000 A 
ATOM      3  C   UNL     1       1.425   6.526  21.157  0.00  0.00    +0.000 A 
ATOM      4  C   UNL     1       1.300   7.899  20.918  0.00  0.00    +0.000 A 
ATOM      5  C   UNL     1       1.830   8.417  19.735  0.00  0.00    +0.000 A 
ATOM      6  C   UNL     1       2.417   7.571  18.785  0.00  0.00    +0.000 A 
ATOM      7  C   UNL     1       2.438   6.176  18.979  0.00  0.00    +0.000 A 
BRANCH   2   9
ATOM      8  C   UNL     1       1.004   3.509  20.192  0.00  0.00    +0.000 C 
ATOM      9  O   UNL     1       2.145   4.320  20.456  0.00  0.00    +0.000 OA
ENDBRANCH   2   9
BRANCH   4  10
ATOM     10  C   UNL     1       0.520   8.702  21.868  0.00  0.00    +0.000 C 
ATOM     11  C   UNL     1       0.064   9.943  21.626  0.00  0.00    +0.000 C 
BRANCH  11  12
ATOM     12  C   UNL     1      -0.761  10.785  22.543  0.00  0.00    +0.000 C 
ATOM     13  C   UNL     1      -1.568  11.954  22.038  0.00  0.00    +0.000 C 
ATOM     14  O   UNL     1      -0.769  10.497  23.743  0.00  0.00    +0.000 OA
ENDBRANCH  11  12
ENDBRANCH   4  10
BRANCH   6  15
ATOM     15  O   UNL     1       2.818   8.201  17.634  0.00  0.00    +0.000 OA
ATOM     16  C   UNL     1       2.362   9.544  17.483  0.00  0.00    +0.000 C 
ENDBRANCH   6  15
ENDBRANCH   1   7
BRANCH   1  17
ATOM     17  C   UNL     1       4.158   4.748  17.993  0.00  0.00    +0.000 C 
ATOM     18  O   UNL     1       5.154   5.496  18.676  0.00  0.00    +0.000 OA
ATOM     19  C   UNL     1       6.477   4.966  18.640  0.00  0.00    +0.000 C 
ATOM     20  C   UNL     1       6.971   4.727  17.213  0.00  0.00    +0.000 C 
ATOM     21  C   UNL     1       5.992   3.850  16.434  0.00  0.00    +0.000 C 
ATOM     22  C   UNL     1       4.525   4.267  16.567  0.00  0.00    +0.000 C 
BRANCH  20  23
ATOM     23  O   UNL     1       8.244   4.064  17.278  0.00  0.00    +0.000 OA
ATOM     24  H   UNL     1       8.464   3.748  16.380  0.00  0.00    +0.000 HD
ENDBRANCH  20  23
BRANCH  21  25
ATOM     25  O   UNL     1       6.395   3.834  15.051  0.00  0.00    +0.000 OA
ATOM     26  H   UNL     1       7.276   4.237  14.987  0.00  0.00    +0.000 HD
ENDBRANCH  21  25
BRANCH  22  27
ATOM     27  O   UNL     1       3.681   3.154  16.175  0.00  0.00    +0.000 OA
ATOM     28  H   UNL     1       3.997   2.346  16.619  0.00  0.00    +0.000 HD
ENDBRANCH  22  27
BRANCH  19  29
ATOM     29  C   UNL     1       7.357   6.008  19.348  0.00  0.00    +0.000 C 
BRANCH  29  30
ATOM     30  O   UNL     1       7.968   5.428  20.508  0.00  0.00    +0.000 OA
ATOM     31  H   UNL     1       7.937   6.135  21.184  0.00  0.00    +0.000 HD
ENDBRANCH  29  30
ENDBRANCH  19  29
ENDBRANCH   1  17
TORSDOF 11
ENDMDL
MODEL 7
REMARK VINA RESULT:      -6.7      1.929      3.465
REMARK  Name = 
REMARK  14 active torsions:
REMARK  status: ('A' for Active; 'I' for Inactive)
REMARK    1  A    between atoms: C_1  and  O_2
REMARK    2  A    between atoms: O_2  and  C_3
REMARK    3  A    between atoms: C_5  and  C_6
REMARK    4  A    between atoms: C_7  and  C_8
REMARK    5  A    between atoms: C_8  and  C_9
REMARK    6  A    between atoms: C_12  and  O_13
REMARK    7  A    between atoms: O_13  and  C_14
REMARK    8  A    between atoms: C_15  and  O_16
REMARK    9  A    between atoms: O_16  and  C_17
REMARK   10  A    between atoms: C_19  and  C_20
REMARK   11  A    between atoms: C_20  and  O_21
REMARK   12  A    between atoms: C_22  and  O_23
REMARK   13  A    between atoms: C_24  and  O_25
REMARK   14  A    between atoms: C_26  and  O_27
REMARK                            x       y       z     vdW  Elec       q    Type
REMARK                         _______ _______ _______ _____ _____    ______ ____
ROOT
ATOM      1  O   UNL     1       6.159   4.329  17.986  0.00  0.00    +0.000 OA
ENDROOT
BRANCH   1   7
ATOM      2  C   UNL     1       7.639   5.968  19.100  0.00  0.00    +0.000 A 
ATOM      3  C   UNL     1       8.187   7.258  19.053  0.00  0.00    +0.000 A 
ATOM      4  C   UNL     1       8.078   8.061  17.912  0.00  0.00    +0.000 A 
ATOM      5  C   UNL     1       7.442   7.534  16.787  0.00  0.00    +0.000 A 
ATOM      6  C   UNL     1       6.873   6.253  16.824  0.00  0.00    +0.000 A 
ATOM      7  C   UNL     1       6.886   5.495  18.009  0.00  0.00    +0.000 A 
BRANCH   2   9
ATOM      8  C   UNL     1       9.054   4.874  20.682  0.00  0.00    +0.000 C 
ATOM      9  O   UNL     1       7.742   5.180  20.219  0.00  0.00    +0.000 OA
ENDBRANCH   2   9
BRANCH   4  10
ATOM     10  C   UNL     1       8.537   9.454  17.997  0.00  0.00    +0.000 C 
ATOM     11  C   UNL     1       9.174   9.986  19.054  0.00  0.00    +0.000 C 
BRANCH  11  12
ATOM     12  C   UNL     1       9.690  11.382  19.174  0.00  0.00    +0.000 C 
ATOM     13  C   UNL     1       9.482  12.402  18.084  0.00  0.00    +0.000 C 
ATOM     14  O   UNL     1      10.302  11.687  20.202  0.00  0.00    +0.000 OA
ENDBRANCH  11  12
ENDBRANCH   4  10
BRANCH   6  15
ATOM     15  O   UNL     1       6.206   5.896  15.679  0.00  0.00    +0.000 OA
ATOM     16  C   UNL     1       6.896   4.982  14.830  0.00  0.00    +0.000 C 
ENDBRANCH   6  15
ENDBRANCH   1   7
BRANCH   1  17
ATOM     17  C   UNL     1       4.942   4.216  18.758  0.00  0.00    +0.000 C 
ATOM     18  O   UNL     1       4.967   3.146  19.693  0.00  0.00    +0.000 OA
ATOM     19  C   UNL     1       3.741   2.869  20.367  0.00  0.00    +0.000 C 
ATOM     20  C   UNL     1       2.587   2.614  19.397  0.00  0.00    +0.000 C 
ATOM     21  C   UNL     1       2.437   3.769  18.408  0.00  0.00    +0.000 C 
ATOM     22  C   UNL     1       3.749   4.231  17.771  0.00  0.00    +0.000 C 
BRANCH  20  23
ATOM     23  O   UNL     1       1.374   2.488  20.157  0.00  0.00    +0.000 OA
ATOM     24  H   UNL     1       1.612   2.182  21.053  0.00  0.00    +0.000 HD
ENDBRANCH  20  23
BRANCH  21  25
ATOM     25  O   UNL     1       1.485   3.384  17.397  0.00  0.00    +0.000 OA
ATOM     26  H   UNL     1       0.805   2.832  17.816  0.00  0.00    +0.000 HD
ENDBRANCH  21  25
BRANCH  22  27
ATOM     27  O   UNL     1       3.564   5.560  17.220  0.00  0.00    +0.000 OA
ATOM     28  H   UNL     1       3.475   5.492  16.252  0.00  0.00    +0.000 HD
ENDBRANCH  22  27
BRANCH  19  29
ATOM     29  C   UNL     1       4.015   1.620  21.220  0.00  0.00    +0.000 C 
BRANCH  29  30
ATOM     30  O   UNL     1       5.427   1.409  21.342  0.00  0.00    +0.000 OA
ATOM     31  H   UNL     1       5.637   0.742  20.657  0.00  0.00    +0.000 HD
ENDBRANCH  29  30
ENDBRANCH  19  29
ENDBRANCH   1  17
TORSDOF 11
ENDMDL
MODEL 8
REMARK VINA RESULT:      -6.7      1.248      2.176
REMARK  Name = 
REMARK  14 active torsions:
REMARK  status: ('A' for Active; 'I' for Inactive)
REMARK    1  A    between atoms: C_1  and  O_2
REMARK    2  A    between atoms: O_2  and  C_3
REMARK    3  A    between atoms: C_5  and  C_6
REMARK    4  A    between atoms: C_7  and  C_8
REMARK    5  A    between atoms: C_8  and  C_9
REMARK    6  A    between atoms: C_12  and  O_13
REMARK    7  A    between atoms: O_13  and  C_14
REMARK    8  A    between atoms: C_15  and  O_16
REMARK    9  A    between atoms: O_16  and  C_17
REMARK   10  A    between atoms: C_19  and  C_20
REMARK   11  A    between atoms: C_20  and  O_21
REMARK   12  A    between atoms: C_22  and  O_23
REMARK   13  A    between atoms: C_24  and  O_25
REMARK   14  A    between atoms: C_26  and  O_27
REMARK                            x       y       z     vdW  Elec       q    Type
REMARK                         _______ _______ _______ _____ _____    ______ ____
ROOT
ATOM      1  O   UNL     1       3.915   4.582  16.847  0.00  0.00    +0.000 OA
ENDROOT
BRANCH   1   7
ATOM      2  C   UNL     1       6.243   5.263  16.367  0.00  0.00    +0.000 A 
ATOM      3  C   UNL     1       7.262   6.189  16.638  0.00  0.00    +0.000 A 
ATOM      4  C   UNL     1       7.012   7.370  17.346  0.00  0.00    +0.000 A 
ATOM      5  C   UNL     1       5.703   7.638  17.749  0.00  0.00    +0.000 A 
ATOM      6  C   UNL     1       4.677   6.715  17.503  0.00  0.00    +0.000 A 
ATOM      7  C   UNL     1       4.955   5.478  16.892  0.00  0.00    +0.000 A 
BRANCH   2   9
ATOM      8  C   UNL     1       6.451   4.173  14.253  0.00  0.00    +0.000 C 
ATOM      9  O   UNL     1       6.486   4.103  15.676  0.00  0.00    +0.000 OA
ENDBRANCH   2   9
BRANCH   4  10
ATOM     10  C   UNL     1       8.157   8.208  17.726  0.00  0.00    +0.000 C 
ATOM     11  C   UNL     1       8.066   9.481  18.147  0.00  0.00    +0.000 C 
BRANCH  11  12
ATOM     12  C   UNL     1       9.194  10.360  18.578  0.00  0.00    +0.000 C 
ATOM     13  C   UNL     1       9.770  11.416  17.669  0.00  0.00    +0.000 C 
ATOM     14  O   UNL     1       9.652  10.200  19.713  0.00  0.00    +0.000 OA
ENDBRANCH  11  12
ENDBRANCH   4  10
BRANCH   6  15
ATOM     15  O   UNL     1       3.459   7.067  18.029  0.00  0.00    +0.000 OA
ATOM     16  C   UNL     1       2.919   8.296  17.549  0.00  0.00    +0.000 C 
ENDBRANCH   6  15
ENDBRANCH   1   7
BRANCH   1  17
ATOM     17  C   UNL     1       3.201   4.236  18.057  0.00  0.00    +0.000 C 
ATOM     18  O   UNL     1       4.002   3.538  19.001  0.00  0.00    +0.000 OA
ATOM     19  C   UNL     1       3.322   3.018  20.141  0.00  0.00    +0.000 C 
ATOM     20  C   UNL     1       2.153   2.109  19.758  0.00  0.00    +0.000 C 
ATOM     21  C   UNL     1       1.193   2.822  18.807  0.00  0.00    +0.000 C 
ATOM     22  C   UNL     1       1.876   3.549  17.647  0.00  0.00    +0.000 C 
BRANCH  20  23
ATOM     23  O   UNL     1       1.445   1.750  20.957  0.00  0.00    +0.000 OA
ATOM     24  H   UNL     1       2.106   1.535  21.642  0.00  0.00    +0.000 HD
ENDBRANCH  20  23
BRANCH  21  25
ATOM     25  O   UNL     1       0.238   1.861  18.318  0.00  0.00    +0.000 OA
ATOM     26  H   UNL     1       0.722   1.172  17.835  0.00  0.00    +0.000 HD
ENDBRANCH  21  25
BRANCH  22  27
ATOM     27  O   UNL     1       0.953   4.521  17.091  0.00  0.00    +0.000 OA
ATOM     28  H   UNL     1       1.349   5.409  17.158  0.00  0.00    +0.000 HD
ENDBRANCH  22  27
BRANCH  19  29
ATOM     29  C   UNL     1       4.382   2.230  20.928  0.00  0.00    +0.000 C 
BRANCH  29  30
ATOM     30  O   UNL     1       5.180   1.450  20.028  0.00  0.00    +0.000 OA
ATOM     31  H   UNL     1       6.097   1.751  20.187  0.00  0.00    +0.000 HD
ENDBRANCH  29  30
ENDBRANCH  19  29
ENDBRANCH   1  17
TORSDOF 11
ENDMDL
MODEL 9
REMARK VINA RESULT:      -6.7      2.311      5.193
REMARK  Name = 
REMARK  14 active torsions:
REMARK  status: ('A' for Active; 'I' for Inactive)
REMARK    1  A    between atoms: C_1  and  O_2
REMARK    2  A    between atoms: O_2  and  C_3
REMARK    3  A    between atoms: C_5  and  C_6
REMARK    4  A    between atoms: C_7  and  C_8
REMARK    5  A    between atoms: C_8  and  C_9
REMARK    6  A    between atoms: C_12  and  O_13
REMARK    7  A    between atoms: O_13  and  C_14
REMARK    8  A    between atoms: C_15  and  O_16
REMARK    9  A    between atoms: O_16  and  C_17
REMARK   10  A    between atoms: C_19  and  C_20
REMARK   11  A    between atoms: C_20  and  O_21
REMARK   12  A    between atoms: C_22  and  O_23
REMARK   13  A    between atoms: C_24  and  O_25
REMARK   14  A    between atoms: C_26  and  O_27
REMARK                            x       y       z     vdW  Elec       q    Type
REMARK                         _______ _______ _______ _____ _____    ______ ____
ROOT
ATOM      1  O   UNL     1       4.318   6.161  18.658  0.00  0.00    +0.000 OA
ENDROOT
BRANCH   1   7
ATOM      2  C   UNL     1       6.364   5.840  17.305  0.00  0.00    +0.000 A 
ATOM      3  C   UNL     1       6.896   5.356  16.101  0.00  0.00    +0.000 A 
ATOM      4  C   UNL     1       6.137   4.571  15.225  0.00  0.00    +0.000 A 
ATOM      5  C   UNL     1       4.833   4.237  15.594  0.00  0.00    +0.000 A 
ATOM      6  C   UNL     1       4.280   4.728  16.784  0.00  0.00    +0.000 A 
ATOM      7  C   UNL     1       5.008   5.609  17.606  0.00  0.00    +0.000 A 
BRANCH   2   9
ATOM      8  C   UNL     1       7.908   5.931  19.124  0.00  0.00    +0.000 C 
ATOM      9  O   UNL     1       7.105   6.612  18.164  0.00  0.00    +0.000 OA
ENDBRANCH   2   9
BRANCH   4  10
ATOM     10  C   UNL     1       6.712   4.238  13.915  0.00  0.00    +0.000 C 
ATOM     11  C   UNL     1       6.218   3.310  13.077  0.00  0.00    +0.000 C 
BRANCH  11  12
ATOM     12  C   UNL     1       6.744   2.961  11.724  0.00  0.00    +0.000 C 
ATOM     13  C   UNL     1       6.406   1.653  11.053  0.00  0.00    +0.000 C 
ATOM     14  O   UNL     1       7.474   3.779  11.157  0.00  0.00    +0.000 OA
ENDBRANCH  11  12
ENDBRANCH   4  10
BRANCH   6  15
ATOM     15  O   UNL     1       2.963   4.392  16.978  0.00  0.00    +0.000 OA
ATOM     16  C   UNL     1       2.709   3.000  17.154  0.00  0.00    +0.000 C 
ENDBRANCH   6  15
ENDBRANCH   1   7
BRANCH   1  17
ATOM     17  C   UNL     1       3.962   5.348  19.799  0.00  0.00    +0.000 C 
ATOM     18  O   UNL     1       4.524   4.043  19.757  0.00  0.00    +0.000 OA
ATOM     19  C   UNL     1       4.080   3.133  20.760  0.00  0.00    +0.000 C 
ATOM     20  C   UNL     1       2.558   2.985  20.780  0.00  0.00    +0.000 C 
ATOM     21  C   UNL     1       1.877   4.346  20.914  0.00  0.00    +0.000 C 
ATOM     22  C   UNL     1       2.426   5.423  19.977  0.00  0.00    +0.000 C 
BRANCH  20  23
ATOM     23  O   UNL     1       2.195   2.167  21.905  0.00  0.00    +0.000 OA
ATOM     24  H   UNL     1       2.697   2.485  22.680  0.00  0.00    +0.000 HD
ENDBRANCH  20  23
BRANCH  21  25
ATOM     25  O   UNL     1       0.461   4.170  20.716  0.00  0.00    +0.000 OA
ATOM     26  H   UNL     1       0.042   4.076  21.587  0.00  0.00    +0.000 HD
ENDBRANCH  21  25
BRANCH  22  27
ATOM     27  O   UNL     1       2.038   6.728  20.478  0.00  0.00    +0.000 OA
ATOM     28  H   UNL     1       2.150   7.386  19.768  0.00  0.00    +0.000 HD
ENDBRANCH  22  27
BRANCH  19  29
ATOM     29  C   UNL     1       4.747   1.790  20.421  0.00  0.00    +0.000 C 
BRANCH  29  30
ATOM     30  O   UNL     1       5.351   1.233  21.596  0.00  0.00    +0.000 OA
ATOM     31  H   UNL     1       5.107   0.285  21.573  0.00  0.00    +0.000 HD
ENDBRANCH  29  30
ENDBRANCH  19  29
ENDBRANCH   1  17
TORSDOF 11
ENDMDL
