MODEL 1
REMARK VINA RESULT:      -7.2      0.000      0.000
REMARK  Name = 
REMARK  4 active torsions:
REMARK  status: ('A' for Active; 'I' for Inactive)
REMARK    1  A    between atoms: C_2  and  N_3
REMARK    2  A    between atoms: C_6  and  N_7
REMARK    3  A    between atoms: C_8  and  C_10
REMARK    4  A    between atoms: C_12  and  C_13
REMARK                            x       y       z     vdW  Elec       q    Type
REMARK                         _______ _______ _______ _____ _____    ______ ____
ROOT
ATOM      1  N   UNL     1       5.897   5.337  18.292  0.00  0.00    +0.000 N 
ATOM      2  C   UNL     1       7.181   5.587  17.847  0.00  0.00    +0.000 C 
ATOM      3  O   UNL     1       7.911   4.694  17.427  0.00  0.00    +0.000 OA
ATOM      4  H   UNL     1       5.306   6.151  18.414  0.00  0.00    +0.000 HD
ENDROOT
BRANCH   1   8
ATOM      5  N   UNL     1       3.015   3.570  18.939  0.00  0.00    +0.000 N 
ATOM      6  C   UNL     1       2.940   4.323  17.676  0.00  0.00    +0.000 C 
ATOM      7  C   UNL     1       4.272   4.016  17.014  0.00  0.00    +0.000 C 
ATOM      8  C   UNL     1       5.271   4.026  18.172  0.00  0.00    +0.000 C 
ATOM      9  C   UNL     1       4.432   3.607  19.407  0.00  0.00    +0.000 C 
BRANCH   5  11
ATOM     10  N   UNL     1       1.062   2.900  20.338  0.00  0.00    +0.000 NA
ATOM     11  C   UNL     1       1.967   3.203  19.687  0.00  0.00    +0.000 C 
ENDBRANCH   5  11
ENDBRANCH   1   8
BRANCH   2  12
ATOM     12  C   UNL     1       7.569   6.975  17.912  0.00  0.00    +0.000 A 
ATOM     13  C   UNL     1       8.420   7.665  18.745  0.00  0.00    +0.000 A 
ATOM     14  C   UNL     1       8.402   9.003  18.267  0.00  0.00    +0.000 A 
ATOM     15  N   UNL     1       7.568   9.108  17.219  0.00  0.00    +0.000 NA
ATOM     16  O   UNL     1       7.049   7.849  17.007  0.00  0.00    +0.000 OA
BRANCH  14  17
ATOM     17  C   UNL     1       9.172  10.148  18.752  0.00  0.00    +0.000 A 
ATOM     18  C   UNL     1       9.271  10.402  20.123  0.00  0.00    +0.000 A 
ATOM     19  C   UNL     1       9.956  11.529  20.541  0.00  0.00    +0.000 A 
ATOM     20  N   UNL     1      10.550  12.399  19.698  0.00  0.00    +0.000 NA
ATOM     21  C   UNL     1      10.463  12.124  18.380  0.00  0.00    +0.000 A 
ATOM     22  C   UNL     1       9.795  11.026  17.863  0.00  0.00    +0.000 A 
ENDBRANCH  14  17
ENDBRANCH   2  12
TORSDOF 4
ENDMDL
MODEL 2
REMARK VINA RESULT:      -7.2      0.191      1.044
REMARK  Name = 
REMARK  4 active torsions:
REMARK  status: ('A' for Active; 'I' for Inactive)
REMARK    1  A    between atoms: C_2  and  N_3
REMARK    2  A    between atoms: C_6  and  N_7
REMARK    3  A    between atoms: C_8  and  C_10
REMARK    4  A    between atoms: C_12  and  C_13
REMARK                            x       y       z     vdW  Elec       q    Type
REMARK                         _______ _______ _______ _____ _____    ______ ____
ROOT
ATOM      1  N   UNL     1       5.954   5.330  18.417  0.00  0.00    +0.000 N 
ATOM      2  C   UNL     1       7.193   5.601  17.870  0.00  0.00    +0.000 C 
ATOM      3  O   UNL     1       7.892   4.723  17.372  0.00  0.00    +0.000 OA
ATOM      4  H   UNL     1       5.369   6.137  18.605  0.00  0.00    +0.000 HD
ENDROOT
BRANCH   1   8
ATOM      5  N   UNL     1       2.973   3.645  18.769  0.00  0.00    +0.000 N 
ATOM      6  C   UNL     1       3.109   4.275  17.444  0.00  0.00    +0.000 C 
ATOM      7  C   UNL     1       4.521   3.901  17.029  0.00  0.00    +0.000 C 
ATOM      8  C   UNL     1       5.329   4.016  18.323  0.00  0.00    +0.000 C 
ATOM      9  C   UNL     1       4.301   3.720  19.445  0.00  0.00    +0.000 C 
BRANCH   5  11
ATOM     10  N   UNL     1       0.824   3.097  19.909  0.00  0.00    +0.000 NA
ATOM     11  C   UNL     1       1.815   3.355  19.375  0.00  0.00    +0.000 C 
ENDBRANCH   5  11
ENDBRANCH   1   8
BRANCH   2  12
ATOM     12  C   UNL     1       7.576   6.991  17.930  0.00  0.00    +0.000 A 
ATOM     13  C   UNL     1       8.415   7.689  18.768  0.00  0.00    +0.000 A 
ATOM     14  C   UNL     1       8.397   9.024  18.282  0.00  0.00    +0.000 A 
ATOM     15  N   UNL     1       7.573   9.119  17.225  0.00  0.00    +0.000 NA
ATOM     16  O   UNL     1       7.062   7.858  17.014  0.00  0.00    +0.000 OA
BRANCH  14  17
ATOM     17  C   UNL     1       9.157  10.175  18.767  0.00  0.00    +0.000 A 
ATOM     18  C   UNL     1       9.800  11.028  17.866  0.00  0.00    +0.000 A 
ATOM     19  C   UNL     1      10.561  12.070  18.366  0.00  0.00    +0.000 A 
ATOM     20  N   UNL     1      10.711  12.322  19.683  0.00  0.00    +0.000 NA
ATOM     21  C   UNL     1      10.065  11.501  20.536  0.00  0.00    +0.000 A 
ATOM     22  C   UNL     1       9.285  10.428  20.135  0.00  0.00    +0.000 A 
ENDBRANCH  14  17
ENDBRANCH   2  12
TORSDOF 4
ENDMDL
MODEL 3
REMARK VINA RESULT:      -6.7      5.475      7.458
REMARK  Name = 
REMARK  4 active torsions:
REMARK  status: ('A' for Active; 'I' for Inactive)
REMARK    1  A    between atoms: C_2  and  N_3
REMARK    2  A    between atoms: C_6  and  N_7
REMARK    3  A    between atoms: C_8  and  C_10
REMARK    4  A    between atoms: C_12  and  C_13
REMARK                            x       y       z     vdW  Elec       q    Type
REMARK                         _______ _______ _______ _____ _____    ______ ____
ROOT
ATOM      1  N   UNL     1       3.755   6.012  18.391  0.00  0.00    +0.000 N 
ATOM      2  C   UNL     1       2.975   5.965  19.530  0.00  0.00    +0.000 C 
ATOM      3  O   UNL     1       2.934   4.973  20.253  0.00  0.00    +0.000 OA
ATOM      4  H   UNL     1       3.888   6.932  17.986  0.00  0.00    +0.000 HD
ENDROOT
BRANCH   1   8
ATOM      5  N   UNL     1       6.383   5.198  16.322  0.00  0.00    +0.000 N 
ATOM      6  C   UNL     1       6.821   5.922  17.528  0.00  0.00    +0.000 C 
ATOM      7  C   UNL     1       6.064   5.221  18.643  0.00  0.00    +0.000 C 
ATOM      8  C   UNL     1       4.686   4.947  18.038  0.00  0.00    +0.000 C 
ATOM      9  C   UNL     1       4.953   4.816  16.517  0.00  0.00    +0.000 C 
BRANCH   5  11
ATOM     10  N   UNL     1       7.602   5.135  14.148  0.00  0.00    +0.000 NA
ATOM     11  C   UNL     1       7.034   5.171  15.153  0.00  0.00    +0.000 C 
ENDBRANCH   5  11
ENDBRANCH   1   8
BRANCH   2  12
ATOM     12  C   UNL     1       2.233   7.175  19.789  0.00  0.00    +0.000 A 
ATOM     13  C   UNL     1       1.559   7.633  20.898  0.00  0.00    +0.000 A 
ATOM     14  C   UNL     1       1.069   8.916  20.531  0.00  0.00    +0.000 A 
ATOM     15  N   UNL     1       1.415   9.196  19.263  0.00  0.00    +0.000 NA
ATOM     16  O   UNL     1       2.131   8.111  18.806  0.00  0.00    +0.000 OA
BRANCH  14  17
ATOM     17  C   UNL     1       0.329   9.872  21.353  0.00  0.00    +0.000 A 
ATOM     18  C   UNL     1       0.328  11.231  21.026  0.00  0.00    +0.000 A 
ATOM     19  C   UNL     1      -0.332  12.114  21.862  0.00  0.00    +0.000 A 
ATOM     20  N   UNL     1      -0.991  11.737  22.978  0.00  0.00    +0.000 NA
ATOM     21  C   UNL     1      -0.997  10.419  23.264  0.00  0.00    +0.000 A 
ATOM     22  C   UNL     1      -0.362   9.458  22.494  0.00  0.00    +0.000 A 
ENDBRANCH  14  17
ENDBRANCH   2  12
TORSDOF 4
ENDMDL
MODEL 4
REMARK VINA RESULT:      -6.7      5.321      7.169
REMARK  Name = 
REMARK  4 active torsions:
REMARK  status: ('A' for Active; 'I' for Inactive)
REMARK    1  A    between atoms: C_2  and  N_3
REMARK    2  A    between atoms: C_6  and  N_7
REMARK    3  A    between atoms: C_8  and  C_10
REMARK    4  A    between atoms: C_12  and  C_13
REMARK                            x       y       z     vdW  Elec       q    Type
REMARK                         _______ _______ _______ _____ _____    ______ ____
ROOT
ATOM      1  N   UNL     1       3.853   5.654  18.324  0.00  0.00    +0.000 N 
ATOM      2  C   UNL     1       3.030   5.613  19.433  0.00  0.00    +0.000 C 
ATOM      3  O   UNL     1       2.912   4.603  20.120  0.00  0.00    +0.000 OA
ATOM      4  H   UNL     1       4.049   6.578  17.954  0.00  0.00    +0.000 HD
ENDROOT
BRANCH   1   8
ATOM      5  N   UNL     1       5.831   4.388  15.807  0.00  0.00    +0.000 N 
ATOM      6  C   UNL     1       6.529   5.405  16.613  0.00  0.00    +0.000 C 
ATOM      7  C   UNL     1       6.200   4.998  18.038  0.00  0.00    +0.000 C 
ATOM      8  C   UNL     1       4.738   4.552  17.967  0.00  0.00    +0.000 C 
ATOM      9  C   UNL     1       4.563   4.041  16.514  0.00  0.00    +0.000 C 
BRANCH   5  11
ATOM     10  N   UNL     1       6.372   3.808  13.443  0.00  0.00    +0.000 NA
ATOM     11  C   UNL     1       6.114   4.076  14.536  0.00  0.00    +0.000 C 
ENDBRANCH   5  11
ENDBRANCH   1   8
BRANCH   2  12
ATOM     12  C   UNL     1       2.345   6.853  19.707  0.00  0.00    +0.000 A 
ATOM     13  C   UNL     1       1.744   7.353  20.840  0.00  0.00    +0.000 A 
ATOM     14  C   UNL     1       1.281   8.646  20.474  0.00  0.00    +0.000 A 
ATOM     15  N   UNL     1       1.571   8.892  19.185  0.00  0.00    +0.000 NA
ATOM     16  O   UNL     1       2.225   7.775  18.713  0.00  0.00    +0.000 OA
BRANCH  14  17
ATOM     17  C   UNL     1       0.617   9.641  21.315  0.00  0.00    +0.000 A 
ATOM     18  C   UNL     1      -0.041   9.251  22.484  0.00  0.00    +0.000 A 
ATOM     19  C   UNL     1      -0.710  10.213  23.221  0.00  0.00    +0.000 A 
ATOM     20  N   UNL     1      -0.755  11.518  22.882  0.00  0.00    +0.000 NA
ATOM     21  C   UNL     1      -0.094  11.878  21.762  0.00  0.00    +0.000 A 
ATOM     22  C   UNL     1       0.599  10.990  20.955  0.00  0.00    +0.000 A 
ENDBRANCH  14  17
ENDBRANCH   2  12
TORSDOF 4
ENDMDL
MODEL 5
REMARK VINA RESULT:      -6.6      5.164      6.678
REMARK  Name = 
REMARK  4 active torsions:
REMARK  status: ('A' for Active; 'I' for Inactive)
REMARK    1  A    between atoms: C_2  and  N_3
REMARK    2  A    between atoms: C_6  and  N_7
REMARK    3  A    between atoms: C_8  and  C_10
REMARK    4  A    between atoms: C_12  and  C_13
REMARK                            x       y       z     vdW  Elec       q    Type
REMARK                         _______ _______ _______ _____ _____    ______ ____
ROOT
ATOM      1  N   UNL     1       2.971   5.448  18.261  0.00  0.00    +0.000 N 
ATOM      2  C   UNL     1       3.524   6.667  17.918  0.00  0.00    +0.000 C 
ATOM      3  O   UNL     1       4.650   6.760  17.438  0.00  0.00    +0.000 OA
ATOM      4  H   UNL     1       1.974   5.452  18.445  0.00  0.00    +0.000 HD
ENDROOT
BRANCH   1   8
ATOM      5  N   UNL     1       4.169   2.538  19.655  0.00  0.00    +0.000 N 
ATOM      6  C   UNL     1       2.721   2.479  19.390  0.00  0.00    +0.000 C 
ATOM      7  C   UNL     1       2.608   3.038  17.982  0.00  0.00    +0.000 C 
ATOM      8  C   UNL     1       3.624   4.181  17.956  0.00  0.00    +0.000 C 
ATOM      9  C   UNL     1       4.704   3.759  18.984  0.00  0.00    +0.000 C 
BRANCH   5  11
ATOM     10  N   UNL     1       5.389   1.202  21.371  0.00  0.00    +0.000 NA
ATOM     11  C   UNL     1       4.818   1.821  20.582  0.00  0.00    +0.000 C 
ENDBRANCH   5  11
ENDBRANCH   1   8
BRANCH   2  12
ATOM     12  C   UNL     1       2.663   7.798  18.165  0.00  0.00    +0.000 A 
ATOM     13  C   UNL     1       1.842   8.129  19.219  0.00  0.00    +0.000 A 
ATOM     14  C   UNL     1       1.290   9.393  18.876  0.00  0.00    +0.000 A 
ATOM     15  N   UNL     1       1.741   9.781  17.671  0.00  0.00    +0.000 NA
ATOM     16  O   UNL     1       2.587   8.787  17.232  0.00  0.00    +0.000 OA
BRANCH  14  17
ATOM     17  C   UNL     1       0.393  10.234  19.667  0.00  0.00    +0.000 A 
ATOM     18  C   UNL     1      -0.698  10.866  19.063  0.00  0.00    +0.000 A 
ATOM     19  C   UNL     1      -1.488  11.703  19.831  0.00  0.00    +0.000 A 
ATOM     20  N   UNL     1      -1.275  11.938  21.142  0.00  0.00    +0.000 NA
ATOM     21  C   UNL     1      -0.231  11.301  21.712  0.00  0.00    +0.000 A 
ATOM     22  C   UNL     1       0.621  10.449  21.028  0.00  0.00    +0.000 A 
ENDBRANCH  14  17
ENDBRANCH   2  12
TORSDOF 4
ENDMDL
MODEL 6
REMARK VINA RESULT:      -6.6      5.103      7.184
REMARK  Name = 
REMARK  4 active torsions:
REMARK  status: ('A' for Active; 'I' for Inactive)
REMARK    1  A    between atoms: C_2  and  N_3
REMARK    2  A    between atoms: C_6  and  N_7
REMARK    3  A    between atoms: C_8  and  C_10
REMARK    4  A    between atoms: C_12  and  C_13
REMARK                            x       y       z     vdW  Elec       q    Type
REMARK                         _______ _______ _______ _____ _____    ______ ____
ROOT
ATOM      1  N   UNL     1       4.363   5.860  18.169  0.00  0.00    +0.000 N 
ATOM      2  C   UNL     1       3.082   5.633  18.636  0.00  0.00    +0.000 C 
ATOM      3  O   UNL     1       2.585   4.511  18.657  0.00  0.00    +0.000 OA
ATOM      4  H   UNL     1       4.758   6.767  18.388  0.00  0.00    +0.000 HD
ENDROOT
BRANCH   1   8
ATOM      5  N   UNL     1       6.167   4.526  15.558  0.00  0.00    +0.000 N 
ATOM      6  C   UNL     1       6.888   5.615  16.242  0.00  0.00    +0.000 C 
ATOM      7  C   UNL     1       6.703   5.279  17.711  0.00  0.00    +0.000 C 
ATOM      8  C   UNL     1       5.261   4.774  17.795  0.00  0.00    +0.000 C 
ATOM      9  C   UNL     1       4.982   4.172  16.394  0.00  0.00    +0.000 C 
BRANCH   5  11
ATOM     10  N   UNL     1       6.525   3.822  13.193  0.00  0.00    +0.000 NA
ATOM     11  C   UNL     1       6.352   4.152  14.286  0.00  0.00    +0.000 C 
ENDBRANCH   5  11
ENDBRANCH   1   8
BRANCH   2  12
ATOM     12  C   UNL     1       2.403   6.819  19.098  0.00  0.00    +0.000 A 
ATOM     13  C   UNL     1       1.813   7.146  20.297  0.00  0.00    +0.000 A 
ATOM     14  C   UNL     1       1.351   8.479  20.132  0.00  0.00    +0.000 A 
ATOM     15  N   UNL     1       1.631   8.915  18.893  0.00  0.00    +0.000 NA
ATOM     16  O   UNL     1       2.278   7.880  18.253  0.00  0.00    +0.000 OA
BRANCH  14  17
ATOM     17  C   UNL     1       0.697   9.339  21.118  0.00  0.00    +0.000 A 
ATOM     18  C   UNL     1       0.417  10.675  20.814  0.00  0.00    +0.000 A 
ATOM     19  C   UNL     1      -0.146  11.473  21.794  0.00  0.00    +0.000 A 
ATOM     20  N   UNL     1      -0.455  11.034  23.031  0.00  0.00    +0.000 NA
ATOM     21  C   UNL     1      -0.198   9.737  23.298  0.00  0.00    +0.000 A 
ATOM     22  C   UNL     1       0.368   8.859  22.388  0.00  0.00    +0.000 A 
ENDBRANCH  14  17
ENDBRANCH   2  12
TORSDOF 4
ENDMDL
MODEL 7
REMARK VINA RESULT:      -6.5      5.704      7.231
REMARK  Name = 
REMARK  4 active torsions:
REMARK  status: ('A' for Active; 'I' for Inactive)
REMARK    1  A    between atoms: C_2  and  N_3
REMARK    2  A    between atoms: C_6  and  N_7
REMARK    3  A    between atoms: C_8  and  C_10
REMARK    4  A    between atoms: C_12  and  C_13
REMARK                            x       y       z     vdW  Elec       q    Type
REMARK                         _______ _______ _______ _____ _____    ______ ____
ROOT
ATOM      1  N   UNL     1       2.382   6.139  18.458  0.00  0.00    +0.000 N 
ATOM      2  C   UNL     1       2.740   7.438  18.154  0.00  0.00    +0.000 C 
ATOM      3  O   UNL     1       3.733   7.701  17.482  0.00  0.00    +0.000 OA
ATOM      4  H   UNL     1       1.446   6.014  18.827  0.00  0.00    +0.000 HD
ENDROOT
BRANCH   1   8
ATOM      5  N   UNL     1       3.788   3.095  19.239  0.00  0.00    +0.000 N 
ATOM      6  C   UNL     1       2.332   3.005  19.032  0.00  0.00    +0.000 C 
ATOM      7  C   UNL     1       2.117   3.803  17.757  0.00  0.00    +0.000 C 
ATOM      8  C   UNL     1       3.076   4.986  17.896  0.00  0.00    +0.000 C 
ATOM      9  C   UNL     1       4.229   4.445  18.780  0.00  0.00    +0.000 C 
BRANCH   5  11
ATOM     10  N   UNL     1       5.138   1.540  20.645  0.00  0.00    +0.000 NA
ATOM     11  C   UNL     1       4.518   2.260  19.988  0.00  0.00    +0.000 C 
ENDBRANCH   5  11
ENDBRANCH   1   8
BRANCH   2  12
ATOM     12  C   UNL     1       1.844   8.438  18.683  0.00  0.00    +0.000 A 
ATOM     13  C   UNL     1       1.338   8.659  19.943  0.00  0.00    +0.000 A 
ATOM     14  C   UNL     1       0.539   9.828  19.822  0.00  0.00    +0.000 A 
ATOM     15  N   UNL     1       0.552  10.266  18.552  0.00  0.00    +0.000 NA
ATOM     16  O   UNL     1       1.358   9.398  17.848  0.00  0.00    +0.000 OA
BRANCH  14  17
ATOM     17  C   UNL     1      -0.188  10.541  20.872  0.00  0.00    +0.000 A 
ATOM     18  C   UNL     1      -0.287   9.997  22.156  0.00  0.00    +0.000 A 
ATOM     19  C   UNL     1      -1.035  10.670  23.105  0.00  0.00    +0.000 A 
ATOM     20  N   UNL     1      -1.670  11.837  22.868  0.00  0.00    +0.000 NA
ATOM     21  C   UNL     1      -1.544  12.357  21.630  0.00  0.00    +0.000 A 
ATOM     22  C   UNL     1      -0.823  11.757  20.610  0.00  0.00    +0.000 A 
ENDBRANCH  14  17
ENDBRANCH   2  12
TORSDOF 4
ENDMDL
MODEL 8
REMARK VINA RESULT:      -6.5      5.617      7.245
REMARK  Name = 
REMARK  4 active torsions:
REMARK  status: ('A' for Active; 'I' for Inactive)
REMARK    1  A    between atoms: C_2  and  N_3
REMARK    2  A    between atoms: C_6  and  N_7
REMARK    3  A    between atoms: C_8  and  C_10
REMARK    4  A    between atoms: C_12  and  C_13
REMARK                            x       y       z     vdW  Elec       q    Type
REMARK                         _______ _______ _______ _____ _____    ______ ____
ROOT
ATOM      1  N   UNL     1       2.493   5.951  18.611  0.00  0.00    +0.000 N 
ATOM      2  C   UNL     1       2.837   7.242  18.260  0.00  0.00    +0.000 C 
ATOM      3  O   UNL     1       3.834   7.493  17.590  0.00  0.00    +0.000 OA
ATOM      4  H   UNL     1       1.554   5.828  18.974  0.00  0.00    +0.000 HD
ENDROOT
BRANCH   1   8
ATOM      5  N   UNL     1       3.908   2.947  19.520  0.00  0.00    +0.000 N 
ATOM      6  C   UNL     1       2.457   2.837  19.286  0.00  0.00    +0.000 C 
ATOM      7  C   UNL     1       2.262   3.591  17.982  0.00  0.00    +0.000 C 
ATOM      8  C   UNL     1       3.207   4.787  18.101  0.00  0.00    +0.000 C 
ATOM      9  C   UNL     1       4.347   4.286  19.026  0.00  0.00    +0.000 C 
BRANCH   5  11
ATOM     10  N   UNL     1       5.244   1.456  21.005  0.00  0.00    +0.000 NA
ATOM     11  C   UNL     1       4.630   2.144  20.311  0.00  0.00    +0.000 C 
ENDBRANCH   5  11
ENDBRANCH   1   8
BRANCH   2  12
ATOM     12  C   UNL     1       1.922   8.249  18.741  0.00  0.00    +0.000 A 
ATOM     13  C   UNL     1       1.352   8.476  19.973  0.00  0.00    +0.000 A 
ATOM     14  C   UNL     1       0.570   9.651  19.809  0.00  0.00    +0.000 A 
ATOM     15  N   UNL     1       0.652  10.086  18.540  0.00  0.00    +0.000 NA
ATOM     16  O   UNL     1       1.486   9.211  17.881  0.00  0.00    +0.000 OA
BRANCH  14  17
ATOM     17  C   UNL     1      -0.206  10.371  20.818  0.00  0.00    +0.000 A 
ATOM     18  C   UNL     1      -0.938  11.509  20.466  0.00  0.00    +0.000 A 
ATOM     19  C   UNL     1      -1.610  12.198  21.461  0.00  0.00    +0.000 A 
ATOM     20  N   UNL     1      -1.610  11.828  22.758  0.00  0.00    +0.000 NA
ATOM     21  C   UNL     1      -0.916  10.715  23.073  0.00  0.00    +0.000 A 
ATOM     22  C   UNL     1      -0.208   9.960  22.153  0.00  0.00    +0.000 A 
ENDBRANCH  14  17
ENDBRANCH   2  12
TORSDOF 4
ENDMDL
MODEL 9
REMARK VINA RESULT:      -6.5      5.321      6.648
REMARK  Name = 
REMARK  4 active torsions:
REMARK  status: ('A' for Active; 'I' for Inactive)
REMARK    1  A    between atoms: C_2  and  N_3
REMARK    2  A    between atoms: C_6  and  N_7
REMARK    3  A    between atoms: C_8  and  C_10
REMARK    4  A    between atoms: C_12  and  C_13
REMARK                            x       y       z     vdW  Elec       q    Type
REMARK                         _______ _______ _______ _____ _____    ______ ____
ROOT
ATOM      1  N   UNL     1       3.260   5.472  18.677  0.00  0.00    +0.000 N 
ATOM      2  C   UNL     1       3.427   6.645  17.967  0.00  0.00    +0.000 C 
ATOM      3  O   UNL     1       4.214   6.733  17.029  0.00  0.00    +0.000 OA
ATOM      4  H   UNL     1       2.447   5.434  19.282  0.00  0.00    +0.000 HD
ENDROOT
BRANCH   1   8
ATOM      5  N   UNL     1       4.409   2.450  19.860  0.00  0.00    +0.000 N 
ATOM      6  C   UNL     1       2.963   2.429  19.577  0.00  0.00    +0.000 C 
ATOM      7  C   UNL     1       2.871   3.094  18.214  0.00  0.00    +0.000 C 
ATOM      8  C   UNL     1       3.901   4.222  18.283  0.00  0.00    +0.000 C 
ATOM      9  C   UNL     1       4.965   3.711  19.287  0.00  0.00    +0.000 C 
BRANCH   5  11
ATOM     10  N   UNL     1       5.596   0.979  21.486  0.00  0.00    +0.000 NA
ATOM     11  C   UNL     1       5.039   1.658  20.737  0.00  0.00    +0.000 C 
ENDBRANCH   5  11
ENDBRANCH   1   8
BRANCH   2  12
ATOM     12  C   UNL     1       2.595   7.733  18.419  0.00  0.00    +0.000 A 
ATOM     13  C   UNL     1       2.113   8.858  17.791  0.00  0.00    +0.000 A 
ATOM     14  C   UNL     1       1.319   9.518  18.768  0.00  0.00    +0.000 A 
ATOM     15  N   UNL     1       1.347   8.832  19.923  0.00  0.00    +0.000 NA
ATOM     16  O   UNL     1       2.144   7.730  19.704  0.00  0.00    +0.000 OA
BRANCH  14  17
ATOM     17  C   UNL     1       0.525  10.736  18.618  0.00  0.00    +0.000 A 
ATOM     18  C   UNL     1      -0.824  10.660  18.261  0.00  0.00    +0.000 A 
ATOM     19  C   UNL     1      -1.526  11.837  18.068  0.00  0.00    +0.000 A 
ATOM     20  N   UNL     1      -0.986  13.064  18.217  0.00  0.00    +0.000 NA
ATOM     21  C   UNL     1       0.311  13.116  18.584  0.00  0.00    +0.000 A 
ATOM     22  C   UNL     1       1.100  11.997  18.795  0.00  0.00    +0.000 A 
ENDBRANCH  14  17
ENDBRANCH   2  12
TORSDOF 4
ENDMDL
