MODEL 1
REMARK VINA RESULT:      -8.4      0.000      0.000
REMARK  Name = 
REMARK  8 active torsions:
REMARK  status: ('A' for Active; 'I' for Inactive)
REMARK    1  A    between atoms: C_1  and  C_2
REMARK    2  A    between atoms: C_2  and  C_3
REMARK    3  A    between atoms: C_2  and  N_11
REMARK    4  A    between atoms: C_3  and  C_5
REMARK    5  A    between atoms: N_11  and  C_12
REMARK    6  A    between atoms: N_15  and  C_16
REMARK    7  A    between atoms: C_19  and  O_20
REMARK    8  A    between atoms: O_20  and  C_21
REMARK                            x       y       z     vdW  Elec       q    Type
REMARK                         _______ _______ _______ _____ _____    ______ ____
ROOT
ATOM      1  N   UNL     1       1.279   9.474  19.272  0.00  0.00    +0.000 N 
ATOM      2  C   UNL     1       1.022   9.126  20.666  0.00  0.00    +0.000 C 
ATOM      3  C   UNL     1       1.898   8.636  18.348  0.00  0.00    +0.000 C 
ATOM      4  O   UNL     1       1.945   8.948  17.158  0.00  0.00    +0.000 OA
ATOM      5  N   UNL     1       2.456   7.487  18.861  0.00  0.00    +0.000 N 
ATOM      6  H   UNL     1       2.181   7.211  19.788  0.00  0.00    +0.000 HD
ENDROOT
BRANCH   5   7
ATOM      7  C   UNL     1       3.195   6.532  18.127  0.00  0.00    +0.000 A 
ATOM      8  C   UNL     1       2.822   5.190  18.018  0.00  0.00    +0.000 A 
ATOM      9  C   UNL     1       3.599   4.288  17.290  0.00  0.00    +0.000 A 
ATOM     10  C   UNL     1       4.758   4.722  16.655  0.00  0.00    +0.000 A 
ATOM     11  C   UNL     1       5.159   6.054  16.784  0.00  0.00    +0.000 A 
ATOM     12  C   UNL     1       4.359   6.965  17.482  0.00  0.00    +0.000 A 
BRANCH  10  13
ATOM     13  O   UNL     1       5.465   3.757  15.977  0.00  0.00    +0.000 OA
BRANCH  13  14
ATOM     14  C   UNL     1       6.057   4.067  14.774  0.00  0.00    +0.000 A 
ATOM     15  C   UNL     1       5.476   3.480  13.647  0.00  0.00    +0.000 A 
ATOM     16  C   UNL     1       6.014   3.713  12.382  0.00  0.00    +0.000 A 
ATOM     17  C   UNL     1       7.134   4.532  12.240  0.00  0.00    +0.000 A 
ATOM     18  C   UNL     1       7.689   5.155  13.359  0.00  0.00    +0.000 A 
ATOM     19  C   UNL     1       7.133   4.945  14.621  0.00  0.00    +0.000 A 
ENDBRANCH  13  14
ENDBRANCH  10  13
ENDBRANCH   5   7
BRANCH   1  21
ATOM     20  C   UNL     1       1.644  11.946  19.093  0.00  0.00    +0.000 C 
ATOM     21  C   UNL     1       0.749  10.756  18.756  0.00  0.00    +0.000 C 
BRANCH  21  22
ATOM     22  C   UNL     1      -0.709  11.002  19.189  0.00  0.00    +0.000 C 
ATOM     23  O   UNL     1      -1.003  11.350  20.336  0.00  0.00    +0.000 OA
BRANCH  22  24
ATOM     24  C   UNL     1      -1.806  10.896  18.168  0.00  0.00    +0.000 A 
ATOM     25  C   UNL     1      -1.652   9.976  17.121  0.00  0.00    +0.000 A 
ATOM     26  C   UNL     1      -2.672   9.784  16.186  0.00  0.00    +0.000 A 
ATOM     27  C   UNL     1      -3.856  10.512  16.285  0.00  0.00    +0.000 A 
ATOM     28  C   UNL     1      -4.011  11.448  17.303  0.00  0.00    +0.000 A 
ATOM     29  C   UNL     1      -2.990  11.646  18.237  0.00  0.00    +0.000 A 
ENDBRANCH  22  24
ENDBRANCH  21  22
ENDBRANCH   1  21
TORSDOF 6
ENDMDL
MODEL 2
REMARK VINA RESULT:      -8.4      3.193     10.224
REMARK  Name = 
REMARK  8 active torsions:
REMARK  status: ('A' for Active; 'I' for Inactive)
REMARK    1  A    between atoms: C_1  and  C_2
REMARK    2  A    between atoms: C_2  and  C_3
REMARK    3  A    between atoms: C_2  and  N_11
REMARK    4  A    between atoms: C_3  and  C_5
REMARK    5  A    between atoms: N_11  and  C_12
REMARK    6  A    between atoms: N_15  and  C_16
REMARK    7  A    between atoms: C_19  and  O_20
REMARK    8  A    between atoms: O_20  and  C_21
REMARK                            x       y       z     vdW  Elec       q    Type
REMARK                         _______ _______ _______ _____ _____    ______ ____
ROOT
ATOM      1  N   UNL     1       2.640   5.147  19.906  0.00  0.00    +0.000 N 
ATOM      2  C   UNL     1       2.395   4.277  21.051  0.00  0.00    +0.000 C 
ATOM      3  C   UNL     1       2.323   6.503  19.859  0.00  0.00    +0.000 C 
ATOM      4  O   UNL     1       2.696   7.197  18.913  0.00  0.00    +0.000 OA
ATOM      5  N   UNL     1       1.564   6.976  20.905  0.00  0.00    +0.000 N 
ATOM      6  H   UNL     1       1.497   6.402  21.727  0.00  0.00    +0.000 HD
ENDROOT
BRANCH   5   7
ATOM      7  C   UNL     1       1.064   8.292  21.029  0.00  0.00    +0.000 A 
ATOM      8  C   UNL     1       1.065   9.216  19.981  0.00  0.00    +0.000 A 
ATOM      9  C   UNL     1       0.571  10.508  20.167  0.00  0.00    +0.000 A 
ATOM     10  C   UNL     1       0.061  10.888  21.404  0.00  0.00    +0.000 A 
ATOM     11  C   UNL     1       0.084   9.984  22.468  0.00  0.00    +0.000 A 
ATOM     12  C   UNL     1       0.545   8.677  22.270  0.00  0.00    +0.000 A 
BRANCH  10  13
ATOM     13  O   UNL     1      -0.388  12.185  21.493  0.00  0.00    +0.000 OA
BRANCH  13  14
ATOM     14  C   UNL     1      -1.738  12.434  21.574  0.00  0.00    +0.000 A 
ATOM     15  C   UNL     1      -2.240  12.623  22.864  0.00  0.00    +0.000 A 
ATOM     16  C   UNL     1      -3.601  12.861  23.057  0.00  0.00    +0.000 A 
ATOM     17  C   UNL     1      -4.462  12.909  21.961  0.00  0.00    +0.000 A 
ATOM     18  C   UNL     1      -3.956  12.765  20.668  0.00  0.00    +0.000 A 
ATOM     19  C   UNL     1      -2.591  12.557  20.475  0.00  0.00    +0.000 A 
ENDBRANCH  13  14
ENDBRANCH  10  13
ENDBRANCH   5   7
BRANCH   1  21
ATOM     20  C   UNL     1       2.722   3.354  18.158  0.00  0.00    +0.000 C 
ATOM     21  C   UNL     1       3.382   4.598  18.748  0.00  0.00    +0.000 C 
BRANCH  21  22
ATOM     22  C   UNL     1       4.869   4.353  19.070  0.00  0.00    +0.000 C 
ATOM     23  O   UNL     1       5.257   3.328  19.639  0.00  0.00    +0.000 OA
BRANCH  22  24
ATOM     24  C   UNL     1       5.894   5.349  18.608  0.00  0.00    +0.000 A 
ATOM     25  C   UNL     1       5.570   6.182  17.527  0.00  0.00    +0.000 A 
ATOM     26  C   UNL     1       6.455   7.176  17.104  0.00  0.00    +0.000 A 
ATOM     27  C   UNL     1       7.676   7.346  17.753  0.00  0.00    +0.000 A 
ATOM     28  C   UNL     1       8.022   6.508  18.809  0.00  0.00    +0.000 A 
ATOM     29  C   UNL     1       7.140   5.510  19.232  0.00  0.00    +0.000 A 
ENDBRANCH  22  24
ENDBRANCH  21  22
ENDBRANCH   1  21
TORSDOF 6
ENDMDL
MODEL 3
REMARK VINA RESULT:      -8.4      3.238     10.280
REMARK  Name = 
REMARK  8 active torsions:
REMARK  status: ('A' for Active; 'I' for Inactive)
REMARK    1  A    between atoms: C_1  and  C_2
REMARK    2  A    between atoms: C_2  and  C_3
REMARK    3  A    between atoms: C_2  and  N_11
REMARK    4  A    between atoms: C_3  and  C_5
REMARK    5  A    between atoms: N_11  and  C_12
REMARK    6  A    between atoms: N_15  and  C_16
REMARK    7  A    between atoms: C_19  and  O_20
REMARK    8  A    between atoms: O_20  and  C_21
REMARK                            x       y       z     vdW  Elec       q    Type
REMARK                         _______ _______ _______ _____ _____    ______ ____
ROOT
ATOM      1  N   UNL     1       2.566   5.254  19.907  0.00  0.00    +0.000 N 
ATOM      2  C   UNL     1       2.331   4.444  21.099  0.00  0.00    +0.000 C 
ATOM      3  C   UNL     1       2.291   6.615  19.807  0.00  0.00    +0.000 C 
ATOM      4  O   UNL     1       2.654   7.254  18.819  0.00  0.00    +0.000 OA
ATOM      5  N   UNL     1       1.582   7.161  20.854  0.00  0.00    +0.000 N 
ATOM      6  H   UNL     1       1.525   6.627  21.703  0.00  0.00    +0.000 HD
ENDROOT
BRANCH   5   7
ATOM      7  C   UNL     1       1.129   8.496  20.932  0.00  0.00    +0.000 A 
ATOM      8  C   UNL     1       1.088   9.360  19.835  0.00  0.00    +0.000 A 
ATOM      9  C   UNL     1       0.643  10.676  19.976  0.00  0.00    +0.000 A 
ATOM     10  C   UNL     1       0.227  11.141  21.218  0.00  0.00    +0.000 A 
ATOM     11  C   UNL     1       0.293  10.297  22.329  0.00  0.00    +0.000 A 
ATOM     12  C   UNL     1       0.704   8.968  22.180  0.00  0.00    +0.000 A 
BRANCH  10  13
ATOM     13  O   UNL     1      -0.178  12.454  21.260  0.00  0.00    +0.000 OA
BRANCH  13  14
ATOM     14  C   UNL     1      -1.321  12.792  21.946  0.00  0.00    +0.000 A 
ATOM     15  C   UNL     1      -2.524  12.452  21.320  0.00  0.00    +0.000 A 
ATOM     16  C   UNL     1      -3.740  12.770  21.923  0.00  0.00    +0.000 A 
ATOM     17  C   UNL     1      -3.759  13.429  23.152  0.00  0.00    +0.000 A 
ATOM     18  C   UNL     1      -2.560  13.731  23.800  0.00  0.00    +0.000 A 
ATOM     19  C   UNL     1      -1.344  13.386  23.210  0.00  0.00    +0.000 A 
ENDBRANCH  13  14
ENDBRANCH  10  13
ENDBRANCH   5   7
BRANCH   1  21
ATOM     20  C   UNL     1       2.516   3.399  18.223  0.00  0.00    +0.000 C 
ATOM     21  C   UNL     1       3.251   4.628  18.753  0.00  0.00    +0.000 C 
BRANCH  21  22
ATOM     22  C   UNL     1       4.732   4.319  19.050  0.00  0.00    +0.000 C 
ATOM     23  O   UNL     1       5.087   3.269  19.592  0.00  0.00    +0.000 OA
BRANCH  22  24
ATOM     24  C   UNL     1       5.788   5.286  18.594  0.00  0.00    +0.000 A 
ATOM     25  C   UNL     1       5.520   6.081  17.471  0.00  0.00    +0.000 A 
ATOM     26  C   UNL     1       6.435   7.048  17.048  0.00  0.00    +0.000 A 
ATOM     27  C   UNL     1       7.631   7.227  17.740  0.00  0.00    +0.000 A 
ATOM     28  C   UNL     1       7.921   6.425  18.840  0.00  0.00    +0.000 A 
ATOM     29  C   UNL     1       7.010   5.454  19.263  0.00  0.00    +0.000 A 
ENDBRANCH  22  24
ENDBRANCH  21  22
ENDBRANCH   1  21
TORSDOF 6
ENDMDL
MODEL 4
REMARK VINA RESULT:      -8.2      2.790      9.533
REMARK  Name = 
REMARK  8 active torsions:
REMARK  status: ('A' for Active; 'I' for Inactive)
REMARK    1  A    between atoms: C_1  and  C_2
REMARK    2  A    between atoms: C_2  and  C_3
REMARK    3  A    between atoms: C_2  and  N_11
REMARK    4  A    between atoms: C_3  and  C_5
REMARK    5  A    between atoms: N_11  and  C_12
REMARK    6  A    between atoms: N_15  and  C_16
REMARK    7  A    between atoms: C_19  and  O_20
REMARK    8  A    between atoms: O_20  and  C_21
REMARK                            x       y       z     vdW  Elec       q    Type
REMARK                         _______ _______ _______ _____ _____    ______ ____
ROOT
ATOM      1  N   UNL     1       4.089   6.698  17.642  0.00  0.00    +0.000 N 
ATOM      2  C   UNL     1       4.610   6.879  16.290  0.00  0.00    +0.000 C 
ATOM      3  C   UNL     1       3.103   7.491  18.223  0.00  0.00    +0.000 C 
ATOM      4  O   UNL     1       2.615   7.183  19.311  0.00  0.00    +0.000 OA
ATOM      5  N   UNL     1       2.752   8.622  17.520  0.00  0.00    +0.000 N 
ATOM      6  H   UNL     1       3.034   8.675  16.557  0.00  0.00    +0.000 HD
ENDROOT
BRANCH   5   7
ATOM      7  C   UNL     1       1.834   9.606  17.950  0.00  0.00    +0.000 A 
ATOM      8  C   UNL     1       2.215  10.889  18.352  0.00  0.00    +0.000 A 
ATOM      9  C   UNL     1       1.264  11.816  18.781  0.00  0.00    +0.000 A 
ATOM     10  C   UNL     1      -0.083  11.471  18.805  0.00  0.00    +0.000 A 
ATOM     11  C   UNL     1      -0.473  10.182  18.436  0.00  0.00    +0.000 A 
ATOM     12  C   UNL     1       0.477   9.266  17.970  0.00  0.00    +0.000 A 
BRANCH  10  13
ATOM     13  O   UNL     1      -0.941  12.446  19.258  0.00  0.00    +0.000 OA
BRANCH  13  14
ATOM     14  C   UNL     1      -1.487  12.340  20.516  0.00  0.00    +0.000 A 
ATOM     15  C   UNL     1      -2.830  12.713  20.624  0.00  0.00    +0.000 A 
ATOM     16  C   UNL     1      -3.473  12.663  21.860  0.00  0.00    +0.000 A 
ATOM     17  C   UNL     1      -2.775  12.242  22.992  0.00  0.00    +0.000 A 
ATOM     18  C   UNL     1      -1.448  11.826  22.879  0.00  0.00    +0.000 A 
ATOM     19  C   UNL     1      -0.814  11.849  21.636  0.00  0.00    +0.000 A 
ENDBRANCH  13  14
ENDBRANCH  10  13
ENDBRANCH   5   7
BRANCH   1  21
ATOM     20  C   UNL     1       6.035   5.243  18.254  0.00  0.00    +0.000 C 
ATOM     21  C   UNL     1       4.543   5.524  18.422  0.00  0.00    +0.000 C 
BRANCH  21  22
ATOM     22  C   UNL     1       3.693   4.270  18.138  0.00  0.00    +0.000 C 
ATOM     23  O   UNL     1       3.755   3.665  17.065  0.00  0.00    +0.000 OA
BRANCH  22  24
ATOM     24  C   UNL     1       2.822   3.713  19.228  0.00  0.00    +0.000 A 
ATOM     25  C   UNL     1       3.440   3.061  20.305  0.00  0.00    +0.000 A 
ATOM     26  C   UNL     1       2.684   2.590  21.381  0.00  0.00    +0.000 A 
ATOM     27  C   UNL     1       1.301   2.762  21.391  0.00  0.00    +0.000 A 
ATOM     28  C   UNL     1       0.672   3.383  20.315  0.00  0.00    +0.000 A 
ATOM     29  C   UNL     1       1.426   3.851  19.235  0.00  0.00    +0.000 A 
ENDBRANCH  22  24
ENDBRANCH  21  22
ENDBRANCH   1  21
TORSDOF 6
ENDMDL
MODEL 5
REMARK VINA RESULT:      -8.1      2.896      9.153
REMARK  Name = 
REMARK  8 active torsions:
REMARK  status: ('A' for Active; 'I' for Inactive)
REMARK    1  A    between atoms: C_1  and  C_2
REMARK    2  A    between atoms: C_2  and  C_3
REMARK    3  A    between atoms: C_2  and  N_11
REMARK    4  A    between atoms: C_3  and  C_5
REMARK    5  A    between atoms: N_11  and  C_12
REMARK    6  A    between atoms: N_15  and  C_16
REMARK    7  A    between atoms: C_19  and  O_20
REMARK    8  A    between atoms: O_20  and  C_21
REMARK                            x       y       z     vdW  Elec       q    Type
REMARK                         _______ _______ _______ _____ _____    ______ ____
ROOT
ATOM      1  N   UNL     1       2.458   4.612  20.014  0.00  0.00    +0.000 N 
ATOM      2  C   UNL     1       2.326   4.130  21.386  0.00  0.00    +0.000 C 
ATOM      3  C   UNL     1       2.296   5.939  19.621  0.00  0.00    +0.000 C 
ATOM      4  O   UNL     1       2.567   6.286  18.472  0.00  0.00    +0.000 OA
ATOM      5  N   UNL     1       1.799   6.791  20.582  0.00  0.00    +0.000 N 
ATOM      6  H   UNL     1       1.817   6.475  21.536  0.00  0.00    +0.000 HD
ENDROOT
BRANCH   5   7
ATOM      7  C   UNL     1       1.485   8.154  20.389  0.00  0.00    +0.000 A 
ATOM      8  C   UNL     1       1.523   8.783  19.142  0.00  0.00    +0.000 A 
ATOM      9  C   UNL     1       1.216  10.138  19.014  0.00  0.00    +0.000 A 
ATOM     10  C   UNL     1       0.860  10.881  20.135  0.00  0.00    +0.000 A 
ATOM     11  C   UNL     1       0.850  10.272  21.391  0.00  0.00    +0.000 A 
ATOM     12  C   UNL     1       1.121   8.904  21.513  0.00  0.00    +0.000 A 
BRANCH  10  13
ATOM     13  O   UNL     1       0.591  12.210  19.910  0.00  0.00    +0.000 OA
BRANCH  13  14
ATOM     14  C   UNL     1       1.620  13.071  19.607  0.00  0.00    +0.000 A 
ATOM     15  C   UNL     1       2.425  13.452  20.684  0.00  0.00    +0.000 A 
ATOM     16  C   UNL     1       3.483  14.338  20.487  0.00  0.00    +0.000 A 
ATOM     17  C   UNL     1       3.740  14.846  19.214  0.00  0.00    +0.000 A 
ATOM     18  C   UNL     1       2.966  14.433  18.129  0.00  0.00    +0.000 A 
ATOM     19  C   UNL     1       1.926  13.524  18.322  0.00  0.00    +0.000 A 
ENDBRANCH  13  14
ENDBRANCH  10  13
ENDBRANCH   5   7
BRANCH   1  21
ATOM     20  C   UNL     1       2.218   2.303  19.072  0.00  0.00    +0.000 C 
ATOM     21  C   UNL     1       2.908   3.661  18.972  0.00  0.00    +0.000 C 
BRANCH  21  22
ATOM     22  C   UNL     1       4.442   3.518  18.936  0.00  0.00    +0.000 C 
ATOM     23  O   UNL     1       5.063   2.897  19.803  0.00  0.00    +0.000 OA
BRANCH  22  24
ATOM     24  C   UNL     1       5.204   4.077  17.769  0.00  0.00    +0.000 A 
ATOM     25  C   UNL     1       6.499   4.567  17.995  0.00  0.00    +0.000 A 
ATOM     26  C   UNL     1       7.280   5.029  16.933  0.00  0.00    +0.000 A 
ATOM     27  C   UNL     1       6.775   5.012  15.635  0.00  0.00    +0.000 A 
ATOM     28  C   UNL     1       5.481   4.555  15.401  0.00  0.00    +0.000 A 
ATOM     29  C   UNL     1       4.695   4.096  16.462  0.00  0.00    +0.000 A 
ENDBRANCH  22  24
ENDBRANCH  21  22
ENDBRANCH   1  21
TORSDOF 6
ENDMDL
MODEL 6
REMARK VINA RESULT:      -8.1      3.100      9.219
REMARK  Name = 
REMARK  8 active torsions:
REMARK  status: ('A' for Active; 'I' for Inactive)
REMARK    1  A    between atoms: C_1  and  C_2
REMARK    2  A    between atoms: C_2  and  C_3
REMARK    3  A    between atoms: C_2  and  N_11
REMARK    4  A    between atoms: C_3  and  C_5
REMARK    5  A    between atoms: N_11  and  C_12
REMARK    6  A    between atoms: N_15  and  C_16
REMARK    7  A    between atoms: C_19  and  O_20
REMARK    8  A    between atoms: O_20  and  C_21
REMARK                            x       y       z     vdW  Elec       q    Type
REMARK                         _______ _______ _______ _____ _____    ______ ____
ROOT
ATOM      1  N   UNL     1       2.577   4.733  20.054  0.00  0.00    +0.000 N 
ATOM      2  C   UNL     1       2.350   4.183  21.387  0.00  0.00    +0.000 C 
ATOM      3  C   UNL     1       2.396   6.070  19.708  0.00  0.00    +0.000 C 
ATOM      4  O   UNL     1       2.749   6.481  18.602  0.00  0.00    +0.000 OA
ATOM      5  N   UNL     1       1.787   6.857  20.659  0.00  0.00    +0.000 N 
ATOM      6  H   UNL     1       1.737   6.497  21.596  0.00  0.00    +0.000 HD
ENDROOT
BRANCH   5   7
ATOM      7  C   UNL     1       1.436   8.216  20.500  0.00  0.00    +0.000 A 
ATOM      8  C   UNL     1       1.474   8.881  19.271  0.00  0.00    +0.000 A 
ATOM      9  C   UNL     1       1.130  10.230  19.177  0.00  0.00    +0.000 A 
ATOM     10  C   UNL     1       0.735  10.929  20.313  0.00  0.00    +0.000 A 
ATOM     11  C   UNL     1       0.725  10.285  21.552  0.00  0.00    +0.000 A 
ATOM     12  C   UNL     1       1.034   8.923  21.639  0.00  0.00    +0.000 A 
BRANCH  10  13
ATOM     13  O   UNL     1       0.432  12.257  20.122  0.00  0.00    +0.000 OA
BRANCH  13  14
ATOM     14  C   UNL     1       1.443  13.161  19.896  0.00  0.00    +0.000 A 
ATOM     15  C   UNL     1       1.383  13.842  18.677  0.00  0.00    +0.000 A 
ATOM     16  C   UNL     1       2.372  14.765  18.342  0.00  0.00    +0.000 A 
ATOM     17  C   UNL     1       3.425  15.009  19.223  0.00  0.00    +0.000 A 
ATOM     18  C   UNL     1       3.465  14.364  20.460  0.00  0.00    +0.000 A 
ATOM     19  C   UNL     1       2.458  13.462  20.807  0.00  0.00    +0.000 A 
ENDBRANCH  13  14
ENDBRANCH  10  13
ENDBRANCH   5   7
BRANCH   1  21
ATOM     20  C   UNL     1       2.402   2.525  18.882  0.00  0.00    +0.000 C 
ATOM     21  C   UNL     1       3.151   3.849  19.014  0.00  0.00    +0.000 C 
BRANCH  21  22
ATOM     22  C   UNL     1       4.664   3.629  19.205  0.00  0.00    +0.000 C 
ATOM     23  O   UNL     1       5.112   2.685  19.862  0.00  0.00    +0.000 OA
BRANCH  22  24
ATOM     24  C   UNL     1       5.633   4.539  18.504  0.00  0.00    +0.000 A 
ATOM     25  C   UNL     1       5.572   4.621  17.105  0.00  0.00    +0.000 A 
ATOM     26  C   UNL     1       6.398   5.506  16.408  0.00  0.00    +0.000 A 
ATOM     27  C   UNL     1       7.296   6.315  17.100  0.00  0.00    +0.000 A 
ATOM     28  C   UNL     1       7.385   6.224  18.486  0.00  0.00    +0.000 A 
ATOM     29  C   UNL     1       6.564   5.335  19.186  0.00  0.00    +0.000 A 
ENDBRANCH  22  24
ENDBRANCH  21  22
ENDBRANCH   1  21
TORSDOF 6
ENDMDL
MODEL 7
REMARK VINA RESULT:      -8.1      3.257      9.468
REMARK  Name = 
REMARK  8 active torsions:
REMARK  status: ('A' for Active; 'I' for Inactive)
REMARK    1  A    between atoms: C_1  and  C_2
REMARK    2  A    between atoms: C_2  and  C_3
REMARK    3  A    between atoms: C_2  and  N_11
REMARK    4  A    between atoms: C_3  and  C_5
REMARK    5  A    between atoms: N_11  and  C_12
REMARK    6  A    between atoms: N_15  and  C_16
REMARK    7  A    between atoms: C_19  and  O_20
REMARK    8  A    between atoms: O_20  and  C_21
REMARK                            x       y       z     vdW  Elec       q    Type
REMARK                         _______ _______ _______ _____ _____    ______ ____
ROOT
ATOM      1  N   UNL     1       2.600   5.152  19.949  0.00  0.00    +0.000 N 
ATOM      2  C   UNL     1       2.368   4.333  21.135  0.00  0.00    +0.000 C 
ATOM      3  C   UNL     1       2.328   6.515  19.862  0.00  0.00    +0.000 C 
ATOM      4  O   UNL     1       2.689   7.161  18.878  0.00  0.00    +0.000 OA
ATOM      5  N   UNL     1       1.624   7.053  20.916  0.00  0.00    +0.000 N 
ATOM      6  H   UNL     1       1.568   6.512  21.761  0.00  0.00    +0.000 HD
ENDROOT
BRANCH   5   7
ATOM      7  C   UNL     1       1.174   8.389  21.007  0.00  0.00    +0.000 A 
ATOM      8  C   UNL     1       0.876   9.019  22.219  0.00  0.00    +0.000 A 
ATOM      9  C   UNL     1       0.421  10.338  22.247  0.00  0.00    +0.000 A 
ATOM     10  C   UNL     1       0.266  11.046  21.060  0.00  0.00    +0.000 A 
ATOM     11  C   UNL     1       0.530  10.418  19.841  0.00  0.00    +0.000 A 
ATOM     12  C   UNL     1       1.022   9.108  19.816  0.00  0.00    +0.000 A 
BRANCH  10  13
ATOM     13  O   UNL     1      -0.202  12.333  21.188  0.00  0.00    +0.000 OA
BRANCH  13  14
ATOM     14  C   UNL     1       0.371  13.343  20.451  0.00  0.00    +0.000 A 
ATOM     15  C   UNL     1      -0.490  14.019  19.583  0.00  0.00    +0.000 A 
ATOM     16  C   UNL     1      -0.004  15.046  18.776  0.00  0.00    +0.000 A 
ATOM     17  C   UNL     1       1.344  15.399  18.832  0.00  0.00    +0.000 A 
ATOM     18  C   UNL     1       2.197  14.755  19.730  0.00  0.00    +0.000 A 
ATOM     19  C   UNL     1       1.703  13.748  20.559  0.00  0.00    +0.000 A 
ENDBRANCH  13  14
ENDBRANCH  10  13
ENDBRANCH   5   7
BRANCH   1  21
ATOM     20  C   UNL     1       2.565   3.285  18.278  0.00  0.00    +0.000 C 
ATOM     21  C   UNL     1       3.280   4.535  18.787  0.00  0.00    +0.000 C 
BRANCH  21  22
ATOM     22  C   UNL     1       4.772   4.263  19.061  0.00  0.00    +0.000 C 
ATOM     23  O   UNL     1       5.162   3.225  19.603  0.00  0.00    +0.000 OA
BRANCH  22  24
ATOM     24  C   UNL     1       5.797   5.251  18.580  0.00  0.00    +0.000 A 
ATOM     25  C   UNL     1       5.499   6.018  17.445  0.00  0.00    +0.000 A 
ATOM     26  C   UNL     1       6.384   7.002  16.999  0.00  0.00    +0.000 A 
ATOM     27  C   UNL     1       7.578   7.229  17.680  0.00  0.00    +0.000 A 
ATOM     28  C   UNL     1       7.899   6.456  18.792  0.00  0.00    +0.000 A 
ATOM     29  C   UNL     1       7.018   5.466  19.238  0.00  0.00    +0.000 A 
ENDBRANCH  22  24
ENDBRANCH  21  22
ENDBRANCH   1  21
TORSDOF 6
ENDMDL
MODEL 8
REMARK VINA RESULT:      -8.1      3.200     10.189
REMARK  Name = 
REMARK  8 active torsions:
REMARK  status: ('A' for Active; 'I' for Inactive)
REMARK    1  A    between atoms: C_1  and  C_2
REMARK    2  A    between atoms: C_2  and  C_3
REMARK    3  A    between atoms: C_2  and  N_11
REMARK    4  A    between atoms: C_3  and  C_5
REMARK    5  A    between atoms: N_11  and  C_12
REMARK    6  A    between atoms: N_15  and  C_16
REMARK    7  A    between atoms: C_19  and  O_20
REMARK    8  A    between atoms: O_20  and  C_21
REMARK                            x       y       z     vdW  Elec       q    Type
REMARK                         _______ _______ _______ _____ _____    ______ ____
ROOT
ATOM      1  N   UNL     1       2.537   5.139  19.946  0.00  0.00    +0.000 N 
ATOM      2  C   UNL     1       2.239   4.326  21.121  0.00  0.00    +0.000 C 
ATOM      3  C   UNL     1       2.328   6.514  19.860  0.00  0.00    +0.000 C 
ATOM      4  O   UNL     1       2.740   7.148  18.889  0.00  0.00    +0.000 OA
ATOM      5  N   UNL     1       1.624   7.078  20.900  0.00  0.00    +0.000 N 
ATOM      6  H   UNL     1       1.523   6.535  21.740  0.00  0.00    +0.000 HD
ENDROOT
BRANCH   5   7
ATOM      7  C   UNL     1       1.232   8.432  20.989  0.00  0.00    +0.000 A 
ATOM      8  C   UNL     1       1.013   9.090  22.202  0.00  0.00    +0.000 A 
ATOM      9  C   UNL     1       0.613  10.427  22.228  0.00  0.00    +0.000 A 
ATOM     10  C   UNL     1       0.434  11.124  21.038  0.00  0.00    +0.000 A 
ATOM     11  C   UNL     1       0.619  10.468  19.819  0.00  0.00    +0.000 A 
ATOM     12  C   UNL     1       1.056   9.139  19.795  0.00  0.00    +0.000 A 
BRANCH  10  13
ATOM     13  O   UNL     1       0.024  12.430  21.165  0.00  0.00    +0.000 OA
BRANCH  13  14
ATOM     14  C   UNL     1      -1.228  12.705  21.665  0.00  0.00    +0.000 A 
ATOM     15  C   UNL     1      -1.257  13.240  22.956  0.00  0.00    +0.000 A 
ATOM     16  C   UNL     1      -2.478  13.535  23.563  0.00  0.00    +0.000 A 
ATOM     17  C   UNL     1      -3.671  13.293  22.883  0.00  0.00    +0.000 A 
ATOM     18  C   UNL     1      -3.643  12.800  21.578  0.00  0.00    +0.000 A 
ATOM     19  C   UNL     1      -2.421  12.533  20.960  0.00  0.00    +0.000 A 
ENDBRANCH  13  14
ENDBRANCH  10  13
ENDBRANCH   5   7
BRANCH   1  21
ATOM     20  C   UNL     1       2.538   3.202  18.356  0.00  0.00    +0.000 C 
ATOM     21  C   UNL     1       3.216   4.498  18.796  0.00  0.00    +0.000 C 
BRANCH  21  22
ATOM     22  C   UNL     1       4.722   4.293  19.049  0.00  0.00    +0.000 C 
ATOM     23  O   UNL     1       5.169   3.257  19.550  0.00  0.00    +0.000 OA
BRANCH  22  24
ATOM     24  C   UNL     1       5.692   5.348  18.597  0.00  0.00    +0.000 A 
ATOM     25  C   UNL     1       6.894   5.490  19.304  0.00  0.00    +0.000 A 
ATOM     26  C   UNL     1       7.863   6.404  18.882  0.00  0.00    +0.000 A 
ATOM     27  C   UNL     1       7.640   7.188  17.753  0.00  0.00    +0.000 A 
ATOM     28  C   UNL     1       6.439   7.076  17.058  0.00  0.00    +0.000 A 
ATOM     29  C   UNL     1       5.465   6.166  17.480  0.00  0.00    +0.000 A 
ENDBRANCH  22  24
ENDBRANCH  21  22
ENDBRANCH   1  21
TORSDOF 6
ENDMDL
MODEL 9
REMARK VINA RESULT:      -8.0      1.727      2.572
REMARK  Name = 
REMARK  8 active torsions:
REMARK  status: ('A' for Active; 'I' for Inactive)
REMARK    1  A    between atoms: C_1  and  C_2
REMARK    2  A    between atoms: C_2  and  C_3
REMARK    3  A    between atoms: C_2  and  N_11
REMARK    4  A    between atoms: C_3  and  C_5
REMARK    5  A    between atoms: N_11  and  C_12
REMARK    6  A    between atoms: N_15  and  C_16
REMARK    7  A    between atoms: C_19  and  O_20
REMARK    8  A    between atoms: O_20  and  C_21
REMARK                            x       y       z     vdW  Elec       q    Type
REMARK                         _______ _______ _______ _____ _____    ______ ____
ROOT
ATOM      1  N   UNL     1       0.155  10.709  20.542  0.00  0.00    +0.000 N 
ATOM      2  C   UNL     1       0.000  10.700  21.993  0.00  0.00    +0.000 C 
ATOM      3  C   UNL     1       0.658   9.649  19.792  0.00  0.00    +0.000 C 
ATOM      4  O   UNL     1       0.619   9.682  18.562  0.00  0.00    +0.000 OA
ATOM      5  N   UNL     1       1.207   8.613  20.514  0.00  0.00    +0.000 N 
ATOM      6  H   UNL     1       0.998   8.570  21.496  0.00  0.00    +0.000 HD
ENDROOT
BRANCH   5   7
ATOM      7  C   UNL     1       1.841   7.475  19.967  0.00  0.00    +0.000 A 
ATOM      8  C   UNL     1       1.821   6.218  20.576  0.00  0.00    +0.000 A 
ATOM      9  C   UNL     1       2.478   5.131  19.996  0.00  0.00    +0.000 A 
ATOM     10  C   UNL     1       3.157   5.290  18.792  0.00  0.00    +0.000 A 
ATOM     11  C   UNL     1       3.211   6.549  18.190  0.00  0.00    +0.000 A 
ATOM     12  C   UNL     1       2.520   7.628  18.753  0.00  0.00    +0.000 A 
BRANCH  10  13
ATOM     13  O   UNL     1       3.785   4.167  18.308  0.00  0.00    +0.000 OA
BRANCH  13  14
ATOM     14  C   UNL     1       4.883   4.300  17.490  0.00  0.00    +0.000 A 
ATOM     15  C   UNL     1       6.101   4.507  18.144  0.00  0.00    +0.000 A 
ATOM     16  C   UNL     1       7.271   4.676  17.406  0.00  0.00    +0.000 A 
ATOM     17  C   UNL     1       7.228   4.640  16.012  0.00  0.00    +0.000 A 
ATOM     18  C   UNL     1       6.021   4.389  15.358  0.00  0.00    +0.000 A 
ATOM     19  C   UNL     1       4.856   4.191  16.098  0.00  0.00    +0.000 A 
ENDBRANCH  13  14
ENDBRANCH  10  13
ENDBRANCH   5   7
BRANCH   1  21
ATOM     20  C   UNL     1       0.295  13.187  20.198  0.00  0.00    +0.000 C 
ATOM     21  C   UNL     1      -0.362  11.872  19.784  0.00  0.00    +0.000 C 
BRANCH  21  22
ATOM     22  C   UNL     1      -1.899  11.965  19.834  0.00  0.00    +0.000 C 
ATOM     23  O   UNL     1      -2.502  12.340  20.844  0.00  0.00    +0.000 OA
BRANCH  22  24
ATOM     24  C   UNL     1      -2.693  11.670  18.593  0.00  0.00    +0.000 A 
ATOM     25  C   UNL     1      -1.994  11.406  17.406  0.00  0.00    +0.000 A 
ATOM     26  C   UNL     1      -2.679  11.053  16.240  0.00  0.00    +0.000 A 
ATOM     27  C   UNL     1      -4.069  10.964  16.247  0.00  0.00    +0.000 A 
ATOM     28  C   UNL     1      -4.776  11.251  17.411  0.00  0.00    +0.000 A 
ATOM     29  C   UNL     1      -4.094  11.609  18.577  0.00  0.00    +0.000 A 
ENDBRANCH  22  24
ENDBRANCH  21  22
ENDBRANCH   1  21
TORSDOF 6
ENDMDL
