MODEL 1
REMARK VINA RESULT:      -6.8      0.000      0.000
REMARK  Name = 
REMARK  4 active torsions:
REMARK  status: ('A' for Active; 'I' for Inactive)
REMARK    1  A    between atoms: C_2  and  C_7
REMARK    2  A    between atoms: N_3  and  C_4
REMARK    3  A    between atoms: N_14  and  C_15
REMARK    4  A    between atoms: C_15  and  C_16
REMARK                            x       y       z     vdW  Elec       q    Type
REMARK                         _______ _______ _______ _____ _____    ______ ____
ROOT
ATOM      1  C   UNL     1       5.039   5.529  17.436  0.00  0.00    +0.000 C 
ATOM      2  C   UNL     1       5.271   4.069  17.843  0.00  0.00    +0.000 C 
ATOM      3  C   UNL     1       5.027   3.889  19.334  0.00  0.00    +0.000 C 
ATOM      4  O   UNL     1       3.717   4.339  19.681  0.00  0.00    +0.000 OA
ATOM      5  C   UNL     1       3.545   5.734  19.417  0.00  0.00    +0.000 C 
ATOM      6  C   UNL     1       2.177   6.178  19.907  0.00  0.00    +0.000 C 
ATOM      7  C   UNL     1       1.982   7.667  19.632  0.00  0.00    +0.000 C 
ATOM      8  N   UNL     1       2.149   8.009  18.207  0.00  0.00    +0.000 NA
ATOM      9  C   UNL     1       3.426   7.508  17.656  0.00  0.00    +0.000 C 
ATOM     10  C   UNL     1       3.658   6.012  17.917  0.00  0.00    +0.000 C 
ENDROOT
BRANCH   1  12
ATOM     11  O   UNL     1       5.264   6.852  15.456  0.00  0.00    +0.000 OA
ATOM     12  C   UNL     1       5.253   5.722  15.945  0.00  0.00    +0.000 C 
ATOM     13  N   UNL     1       5.424   4.576  15.200  0.00  0.00    +0.000 N 
ATOM     14  H   UNL     1       5.334   3.669  15.641  0.00  0.00    +0.000 HD
BRANCH  13  15
ATOM     15  C   UNL     1       5.635   4.631  13.787  0.00  0.00    +0.000 C 
ATOM     16  C   UNL     1       7.006   4.548  13.180  0.00  0.00    +0.000 C 
ATOM     17  C   UNL     1       6.059   3.391  13.052  0.00  0.00    +0.000 C 
ENDBRANCH  13  15
ENDBRANCH   1  12
BRANCH   8  18
ATOM     18  C   UNL     1       2.105   9.473  17.993  0.00  0.00    +0.000 C 
BRANCH  18  19
ATOM     19  C   UNL     1       0.816  10.095  18.455  0.00  0.00    +0.000 A 
ATOM     20  C   UNL     1      -0.478   9.828  17.898  0.00  0.00    +0.000 A 
ATOM     21  C   UNL     1      -1.473  10.592  18.469  0.00  0.00    +0.000 A 
ATOM     22  S   UNL     1      -0.869  11.614  19.698  0.00  0.00    +0.000 S 
ATOM     23  C   UNL     1       0.726  11.047  19.457  0.00  0.00    +0.000 A 
ENDBRANCH  18  19
ENDBRANCH   8  18
TORSDOF 4
ENDMDL
MODEL 2
REMARK VINA RESULT:      -6.8      2.421      3.180
REMARK  Name = 
REMARK  4 active torsions:
REMARK  status: ('A' for Active; 'I' for Inactive)
REMARK    1  A    between atoms: C_2  and  C_7
REMARK    2  A    between atoms: N_3  and  C_4
REMARK    3  A    between atoms: N_14  and  C_15
REMARK    4  A    between atoms: C_15  and  C_16
REMARK                            x       y       z     vdW  Elec       q    Type
REMARK                         _______ _______ _______ _____ _____    ______ ____
ROOT
ATOM      1  C   UNL     1       4.487   3.721  18.330  0.00  0.00    +0.000 C 
ATOM      2  C   UNL     1       4.357   2.364  17.628  0.00  0.00    +0.000 C 
ATOM      3  C   UNL     1       3.491   1.421  18.451  0.00  0.00    +0.000 C 
ATOM      4  O   UNL     1       2.218   2.014  18.708  0.00  0.00    +0.000 OA
ATOM      5  C   UNL     1       2.334   3.216  19.474  0.00  0.00    +0.000 C 
ATOM      6  C   UNL     1       0.947   3.739  19.810  0.00  0.00    +0.000 C 
ATOM      7  C   UNL     1       1.058   5.022  20.629  0.00  0.00    +0.000 C 
ATOM      8  N   UNL     1       1.845   6.066  19.947  0.00  0.00    +0.000 NA
ATOM      9  C   UNL     1       3.170   5.574  19.510  0.00  0.00    +0.000 C 
ATOM     10  C   UNL     1       3.097   4.281  18.684  0.00  0.00    +0.000 C 
ENDROOT
BRANCH   1  12
ATOM     11  O   UNL     1       5.034   4.926  16.337  0.00  0.00    +0.000 OA
ATOM     12  C   UNL     1       5.328   4.683  17.509  0.00  0.00    +0.000 C 
ATOM     13  N   UNL     1       6.412   5.243  18.147  0.00  0.00    +0.000 N 
ATOM     14  H   UNL     1       6.649   4.952  19.087  0.00  0.00    +0.000 HD
BRANCH  13  15
ATOM     15  C   UNL     1       7.277   6.163  17.477  0.00  0.00    +0.000 C 
ATOM     16  C   UNL     1       6.955   7.626  17.367  0.00  0.00    +0.000 C 
ATOM     17  C   UNL     1       8.055   7.168  18.279  0.00  0.00    +0.000 C 
ENDBRANCH  13  15
ENDBRANCH   1  12
BRANCH   8  18
ATOM     18  C   UNL     1       2.064   7.239  20.824  0.00  0.00    +0.000 C 
BRANCH  18  19
ATOM     19  C   UNL     1       1.279   8.447  20.393  0.00  0.00    +0.000 A 
ATOM     20  C   UNL     1       0.238   9.073  21.157  0.00  0.00    +0.000 A 
ATOM     21  C   UNL     1      -0.359  10.120  20.489  0.00  0.00    +0.000 A 
ATOM     22  S   UNL     1       0.342  10.381  18.953  0.00  0.00    +0.000 S 
ATOM     23  C   UNL     1       1.434   9.085  19.174  0.00  0.00    +0.000 A 
ENDBRANCH  18  19
ENDBRANCH   8  18
TORSDOF 4
ENDMDL
MODEL 3
REMARK VINA RESULT:      -6.8      1.709      2.106
REMARK  Name = 
REMARK  4 active torsions:
REMARK  status: ('A' for Active; 'I' for Inactive)
REMARK    1  A    between atoms: C_2  and  C_7
REMARK    2  A    between atoms: N_3  and  C_4
REMARK    3  A    between atoms: N_14  and  C_15
REMARK    4  A    between atoms: C_15  and  C_16
REMARK                            x       y       z     vdW  Elec       q    Type
REMARK                         _______ _______ _______ _____ _____    ______ ____
ROOT
ATOM      1  C   UNL     1       4.264   3.782  18.081  0.00  0.00    +0.000 C 
ATOM      2  C   UNL     1       4.083   2.329  17.627  0.00  0.00    +0.000 C 
ATOM      3  C   UNL     1       3.429   1.506  18.728  0.00  0.00    +0.000 C 
ATOM      4  O   UNL     1       2.192   2.101  19.123  0.00  0.00    +0.000 OA
ATOM      5  C   UNL     1       2.380   3.411  19.666  0.00  0.00    +0.000 C 
ATOM      6  C   UNL     1       1.050   3.946  20.170  0.00  0.00    +0.000 C 
ATOM      7  C   UNL     1       1.237   5.344  20.752  0.00  0.00    +0.000 C 
ATOM      8  N   UNL     1       1.834   6.287  19.787  0.00  0.00    +0.000 NA
ATOM      9  C   UNL     1       3.083   5.765  19.192  0.00  0.00    +0.000 C 
ATOM     10  C   UNL     1       2.932   4.357  18.598  0.00  0.00    +0.000 C 
ENDROOT
BRANCH   1  12
ATOM     11  O   UNL     1       5.259   5.776  17.214  0.00  0.00    +0.000 OA
ATOM     12  C   UNL     1       4.893   4.623  16.984  0.00  0.00    +0.000 C 
ATOM     13  N   UNL     1       5.015   4.024  15.750  0.00  0.00    +0.000 N 
ATOM     14  H   UNL     1       4.631   3.099  15.598  0.00  0.00    +0.000 HD
BRANCH  13  15
ATOM     15  C   UNL     1       5.592   4.716  14.640  0.00  0.00    +0.000 C 
ATOM     16  C   UNL     1       7.077   4.774  14.419  0.00  0.00    +0.000 C 
ATOM     17  C   UNL     1       6.218   3.932  13.521  0.00  0.00    +0.000 C 
ENDBRANCH  13  15
ENDBRANCH   1  12
BRANCH   8  18
ATOM     18  C   UNL     1       2.143   7.588  20.423  0.00  0.00    +0.000 C 
BRANCH  18  19
ATOM     19  C   UNL     1       1.267   8.706  19.927  0.00  0.00    +0.000 A 
ATOM     20  C   UNL     1       1.325   9.282  18.614  0.00  0.00    +0.000 A 
ATOM     21  C   UNL     1       0.455  10.338  18.457  0.00  0.00    +0.000 A 
ATOM     22  S   UNL     1      -0.459  10.631  19.871  0.00  0.00    +0.000 S 
ATOM     23  C   UNL     1       0.319   9.355  20.700  0.00  0.00    +0.000 A 
ENDBRANCH  18  19
ENDBRANCH   8  18
TORSDOF 4
ENDMDL
MODEL 4
REMARK VINA RESULT:      -6.6      1.581      1.915
REMARK  Name = 
REMARK  4 active torsions:
REMARK  status: ('A' for Active; 'I' for Inactive)
REMARK    1  A    between atoms: C_2  and  C_7
REMARK    2  A    between atoms: N_3  and  C_4
REMARK    3  A    between atoms: N_14  and  C_15
REMARK    4  A    between atoms: C_15  and  C_16
REMARK                            x       y       z     vdW  Elec       q    Type
REMARK                         _______ _______ _______ _____ _____    ______ ____
ROOT
ATOM      1  C   UNL     1       4.005   3.891  18.754  0.00  0.00    +0.000 C 
ATOM      2  C   UNL     1       3.758   2.565  19.483  0.00  0.00    +0.000 C 
ATOM      3  C   UNL     1       3.448   2.816  20.952  0.00  0.00    +0.000 C 
ATOM      4  O   UNL     1       2.342   3.712  21.079  0.00  0.00    +0.000 OA
ATOM      5  C   UNL     1       2.625   4.992  20.509  0.00  0.00    +0.000 C 
ATOM      6  C   UNL     1       1.460   5.932  20.772  0.00  0.00    +0.000 C 
ATOM      7  C   UNL     1       1.749   7.303  20.168  0.00  0.00    +0.000 C 
ATOM      8  N   UNL     1       2.036   7.240  18.723  0.00  0.00    +0.000 NA
ATOM      9  C   UNL     1       3.098   6.261  18.405  0.00  0.00    +0.000 C 
ATOM     10  C   UNL     1       2.841   4.868  18.999  0.00  0.00    +0.000 C 
ENDROOT
BRANCH   1  12
ATOM     11  O   UNL     1       3.397   3.280  16.523  0.00  0.00    +0.000 OA
ATOM     12  C   UNL     1       4.291   3.659  17.280  0.00  0.00    +0.000 C 
ATOM     13  N   UNL     1       5.584   3.891  16.866  0.00  0.00    +0.000 N 
ATOM     14  H   UNL     1       6.296   4.131  17.545  0.00  0.00    +0.000 HD
BRANCH  13  15
ATOM     15  C   UNL     1       5.973   3.708  15.502  0.00  0.00    +0.000 C 
ATOM     16  C   UNL     1       5.618   4.699  14.431  0.00  0.00    +0.000 C 
ATOM     17  C   UNL     1       7.036   4.589  14.910  0.00  0.00    +0.000 C 
ENDBRANCH  13  15
ENDBRANCH   1  12
BRANCH   8  18
ATOM     18  C   UNL     1       2.461   8.557  18.196  0.00  0.00    +0.000 C 
BRANCH  18  19
ATOM     19  C   UNL     1       1.418   9.625  18.378  0.00  0.00    +0.000 A 
ATOM     20  C   UNL     1       0.046   9.519  17.973  0.00  0.00    +0.000 A 
ATOM     21  C   UNL     1      -0.667  10.676  18.199  0.00  0.00    +0.000 A 
ATOM     22  S   UNL     1       0.293  11.889  18.924  0.00  0.00    +0.000 S 
ATOM     23  C   UNL     1       1.667  10.873  18.924  0.00  0.00    +0.000 A 
ENDBRANCH  18  19
ENDBRANCH   8  18
TORSDOF 4
ENDMDL
MODEL 5
REMARK VINA RESULT:      -6.6      5.377      7.795
REMARK  Name = 
REMARK  4 active torsions:
REMARK  status: ('A' for Active; 'I' for Inactive)
REMARK    1  A    between atoms: C_2  and  C_7
REMARK    2  A    between atoms: N_3  and  C_4
REMARK    3  A    between atoms: N_14  and  C_15
REMARK    4  A    between atoms: C_15  and  C_16
REMARK                            x       y       z     vdW  Elec       q    Type
REMARK                         _______ _______ _______ _____ _____    ______ ____
ROOT
ATOM      1  C   UNL     1       0.116  10.803  18.956  0.00  0.00    +0.000 C 
ATOM      2  C   UNL     1       0.749   9.594  18.257  0.00  0.00    +0.000 C 
ATOM      3  C   UNL     1       1.694   8.869  19.203  0.00  0.00    +0.000 C 
ATOM      4  O   UNL     1       1.010   8.497  20.400  0.00  0.00    +0.000 OA
ATOM      5  C   UNL     1       0.531   9.638  21.117  0.00  0.00    +0.000 C 
ATOM      6  C   UNL     1      -0.087   9.189  22.430  0.00  0.00    +0.000 C 
ATOM      7  C   UNL     1      -0.603  10.399  23.205  0.00  0.00    +0.000 C 
ATOM      8  N   UNL     1      -1.571  11.199  22.433  0.00  0.00    +0.000 NA
ATOM      9  C   UNL     1      -1.052  11.577  21.101  0.00  0.00    +0.000 C 
ATOM     10  C   UNL     1      -0.522  10.383  20.293  0.00  0.00    +0.000 C 
ENDROOT
BRANCH   1  12
ATOM     11  O   UNL     1      -0.900  12.755  18.018  0.00  0.00    +0.000 OA
ATOM     12  C   UNL     1      -0.851  11.524  18.033  0.00  0.00    +0.000 C 
ATOM     13  N   UNL     1      -1.648  10.728  17.242  0.00  0.00    +0.000 N 
ATOM     14  H   UNL     1      -1.617   9.721  17.346  0.00  0.00    +0.000 HD
BRANCH  13  15
ATOM     15  C   UNL     1      -2.596  11.292  16.332  0.00  0.00    +0.000 C 
ATOM     16  C   UNL     1      -3.098  10.539  15.133  0.00  0.00    +0.000 C 
ATOM     17  C   UNL     1      -4.004  10.768  16.308  0.00  0.00    +0.000 C 
ENDBRANCH  13  15
ENDBRANCH   1  12
BRANCH   8  18
ATOM     18  C   UNL     1      -1.937  12.443  23.147  0.00  0.00    +0.000 C 
BRANCH  18  19
ATOM     19  C   UNL     1      -3.424  12.639  23.260  0.00  0.00    +0.000 A 
ATOM     20  C   UNL     1      -4.188  12.496  24.466  0.00  0.00    +0.000 A 
ATOM     21  C   UNL     1      -5.540  12.664  24.263  0.00  0.00    +0.000 A 
ATOM     22  S   UNL     1      -5.904  13.025  22.633  0.00  0.00    +0.000 S 
ATOM     23  C   UNL     1      -4.254  12.941  22.193  0.00  0.00    +0.000 A 
ENDBRANCH  18  19
ENDBRANCH   8  18
TORSDOF 4
ENDMDL
MODEL 6
REMARK VINA RESULT:      -6.5      3.497      7.148
REMARK  Name = 
REMARK  4 active torsions:
REMARK  status: ('A' for Active; 'I' for Inactive)
REMARK    1  A    between atoms: C_2  and  C_7
REMARK    2  A    between atoms: N_3  and  C_4
REMARK    3  A    between atoms: N_14  and  C_15
REMARK    4  A    between atoms: C_15  and  C_16
REMARK                            x       y       z     vdW  Elec       q    Type
REMARK                         _______ _______ _______ _____ _____    ______ ____
ROOT
ATOM      1  C   UNL     1       1.945   5.801  19.667  0.00  0.00    +0.000 C 
ATOM      2  C   UNL     1       0.883   4.994  20.422  0.00  0.00    +0.000 C 
ATOM      3  C   UNL     1       0.987   3.517  20.069  0.00  0.00    +0.000 C 
ATOM      4  O   UNL     1       2.308   3.038  20.327  0.00  0.00    +0.000 OA
ATOM      5  C   UNL     1       3.285   3.707  19.526  0.00  0.00    +0.000 C 
ATOM      6  C   UNL     1       4.649   3.081  19.762  0.00  0.00    +0.000 C 
ATOM      7  C   UNL     1       5.701   3.788  18.912  0.00  0.00    +0.000 C 
ATOM      8  N   UNL     1       5.756   5.240  19.164  0.00  0.00    +0.000 NA
ATOM      9  C   UNL     1       4.429   5.880  19.044  0.00  0.00    +0.000 C 
ATOM     10  C   UNL     1       3.343   5.193  19.886  0.00  0.00    +0.000 C 
ENDROOT
BRANCH   1  12
ATOM     11  O   UNL     1       2.148   8.137  19.193  0.00  0.00    +0.000 OA
ATOM     12  C   UNL     1       1.871   7.274  20.028  0.00  0.00    +0.000 C 
ATOM     13  N   UNL     1       1.488   7.568  21.318  0.00  0.00    +0.000 N 
ATOM     14  H   UNL     1       1.342   6.819  21.984  0.00  0.00    +0.000 HD
BRANCH  13  15
ATOM     15  C   UNL     1       1.381   8.919  21.774  0.00  0.00    +0.000 C 
ATOM     16  C   UNL     1       0.216   9.795  21.411  0.00  0.00    +0.000 C 
ATOM     17  C   UNL     1       0.353   9.272  22.811  0.00  0.00    +0.000 C 
ENDBRANCH  13  15
ENDBRANCH   1  12
BRANCH   8  18
ATOM     18  C   UNL     1       6.674   5.919  18.222  0.00  0.00    +0.000 C 
BRANCH  18  19
ATOM     19  C   UNL     1       6.433   5.535  16.788  0.00  0.00    +0.000 A 
ATOM     20  C   UNL     1       5.362   6.026  15.969  0.00  0.00    +0.000 A 
ATOM     21  C   UNL     1       5.342   5.451  14.717  0.00  0.00    +0.000 A 
ATOM     22  S   UNL     1       6.622   4.340  14.502  0.00  0.00    +0.000 S 
ATOM     23  C   UNL     1       7.196   4.615  16.088  0.00  0.00    +0.000 A 
ENDBRANCH  18  19
ENDBRANCH   8  18
TORSDOF 4
ENDMDL
MODEL 7
REMARK VINA RESULT:      -6.3      3.314      7.271
REMARK  Name = 
REMARK  4 active torsions:
REMARK  status: ('A' for Active; 'I' for Inactive)
REMARK    1  A    between atoms: C_2  and  C_7
REMARK    2  A    between atoms: N_3  and  C_4
REMARK    3  A    between atoms: N_14  and  C_15
REMARK    4  A    between atoms: C_15  and  C_16
REMARK                            x       y       z     vdW  Elec       q    Type
REMARK                         _______ _______ _______ _____ _____    ______ ____
ROOT
ATOM      1  C   UNL     1       2.024   5.869  19.733  0.00  0.00    +0.000 C 
ATOM      2  C   UNL     1       1.291   5.016  20.776  0.00  0.00    +0.000 C 
ATOM      3  C   UNL     1       1.503   3.536  20.495  0.00  0.00    +0.000 C 
ATOM      4  O   UNL     1       2.899   3.236  20.443  0.00  0.00    +0.000 OA
ATOM      5  C   UNL     1       3.556   3.937  19.385  0.00  0.00    +0.000 C 
ATOM      6  C   UNL     1       5.008   3.495  19.308  0.00  0.00    +0.000 C 
ATOM      7  C   UNL     1       5.721   4.238  18.181  0.00  0.00    +0.000 C 
ATOM      8  N   UNL     1       5.641   5.703  18.326  0.00  0.00    +0.000 NA
ATOM      9  C   UNL     1       4.251   6.174  18.504  0.00  0.00    +0.000 C 
ATOM     10  C   UNL     1       3.501   5.447  19.630  0.00  0.00    +0.000 C 
ENDROOT
BRANCH   1  12
ATOM     11  O   UNL     1       2.020   8.181  19.121  0.00  0.00    +0.000 OA
ATOM     12  C   UNL     1       1.843   7.350  20.013  0.00  0.00    +0.000 C 
ATOM     13  N   UNL     1       1.484   7.689  21.299  0.00  0.00    +0.000 N 
ATOM     14  H   UNL     1       1.423   6.971  22.011  0.00  0.00    +0.000 HD
BRANCH  13  15
ATOM     15  C   UNL     1       1.284   9.051  21.682  0.00  0.00    +0.000 C 
ATOM     16  C   UNL     1      -0.017   9.765  21.447  0.00  0.00    +0.000 C 
ATOM     17  C   UNL     1       0.382   9.372  22.840  0.00  0.00    +0.000 C 
ENDBRANCH  13  15
ENDBRANCH   1  12
BRANCH   8  18
ATOM     18  C   UNL     1       6.207   6.395  17.145  0.00  0.00    +0.000 C 
BRANCH  18  19
ATOM     19  C   UNL     1       6.220   5.535  15.912  0.00  0.00    +0.000 A 
ATOM     20  C   UNL     1       7.399   5.024  15.272  0.00  0.00    +0.000 A 
ATOM     21  C   UNL     1       7.118   4.324  14.119  0.00  0.00    +0.000 A 
ATOM     22  S   UNL     1       5.440   4.248  13.808  0.00  0.00    +0.000 S 
ATOM     23  C   UNL     1       5.087   5.164  15.207  0.00  0.00    +0.000 A 
ENDBRANCH  18  19
ENDBRANCH   8  18
TORSDOF 4
ENDMDL
MODEL 8
REMARK VINA RESULT:      -6.3      1.461      1.840
REMARK  Name = 
REMARK  4 active torsions:
REMARK  status: ('A' for Active; 'I' for Inactive)
REMARK    1  A    between atoms: C_2  and  C_7
REMARK    2  A    between atoms: N_3  and  C_4
REMARK    3  A    between atoms: N_14  and  C_15
REMARK    4  A    between atoms: C_15  and  C_16
REMARK                            x       y       z     vdW  Elec       q    Type
REMARK                         _______ _______ _______ _____ _____    ______ ____
ROOT
ATOM      1  C   UNL     1       4.799   4.472  18.888  0.00  0.00    +0.000 C 
ATOM      2  C   UNL     1       4.797   2.941  18.811  0.00  0.00    +0.000 C 
ATOM      3  C   UNL     1       4.104   2.348  20.029  0.00  0.00    +0.000 C 
ATOM      4  O   UNL     1       2.784   2.880  20.156  0.00  0.00    +0.000 OA
ATOM      5  C   UNL     1       2.797   4.295  20.357  0.00  0.00    +0.000 C 
ATOM      6  C   UNL     1       1.378   4.786  20.596  0.00  0.00    +0.000 C 
ATOM      7  C   UNL     1       1.378   6.297  20.812  0.00  0.00    +0.000 C 
ATOM      8  N   UNL     1       1.989   7.032  19.689  0.00  0.00    +0.000 NA
ATOM      9  C   UNL     1       3.336   6.523  19.352  0.00  0.00    +0.000 C 
ATOM     10  C   UNL     1       3.374   5.004  19.130  0.00  0.00    +0.000 C 
ENDROOT
BRANCH   1  12
ATOM     11  O   UNL     1       6.280   5.997  17.790  0.00  0.00    +0.000 OA
ATOM     12  C   UNL     1       5.465   5.081  17.667  0.00  0.00    +0.000 C 
ATOM     13  N   UNL     1       5.101   4.555  16.447  0.00  0.00    +0.000 N 
ATOM     14  H   UNL     1       4.373   3.852  16.399  0.00  0.00    +0.000 HD
BRANCH  13  15
ATOM     15  C   UNL     1       5.661   5.045  15.227  0.00  0.00    +0.000 C 
ATOM     16  C   UNL     1       7.077   4.748  14.822  0.00  0.00    +0.000 C 
ATOM     17  C   UNL     1       5.937   4.090  14.100  0.00  0.00    +0.000 C 
ENDBRANCH  13  15
ENDBRANCH   1  12
BRANCH   8  18
ATOM     18  C   UNL     1       2.113   8.477  19.991  0.00  0.00    +0.000 C 
BRANCH  18  19
ATOM     19  C   UNL     1       0.928   9.277  19.525  0.00  0.00    +0.000 A 
ATOM     20  C   UNL     1      -0.068   9.856  20.381  0.00  0.00    +0.000 A 
ATOM     21  C   UNL     1      -1.079  10.475  19.679  0.00  0.00    +0.000 A 
ATOM     22  S   UNL     1      -0.829  10.394  17.991  0.00  0.00    +0.000 S 
ATOM     23  C   UNL     1       0.623   9.517  18.196  0.00  0.00    +0.000 A 
ENDBRANCH  18  19
ENDBRANCH   8  18
TORSDOF 4
ENDMDL
MODEL 9
REMARK VINA RESULT:      -6.2      7.094     10.193
REMARK  Name = 
REMARK  4 active torsions:
REMARK  status: ('A' for Active; 'I' for Inactive)
REMARK    1  A    between atoms: C_2  and  C_7
REMARK    2  A    between atoms: N_3  and  C_4
REMARK    3  A    between atoms: N_14  and  C_15
REMARK    4  A    between atoms: C_15  and  C_16
REMARK                            x       y       z     vdW  Elec       q    Type
REMARK                         _______ _______ _______ _____ _____    ______ ____
ROOT
ATOM      1  C   UNL     1      -3.999  11.618  17.277  0.00  0.00    +0.000 C 
ATOM      2  C   UNL     1      -4.109  10.568  16.164  0.00  0.00    +0.000 C 
ATOM      3  C   UNL     1      -2.730  10.230  15.615  0.00  0.00    +0.000 C 
ATOM      4  O   UNL     1      -1.867   9.803  16.670  0.00  0.00    +0.000 OA
ATOM      5  C   UNL     1      -1.665  10.831  17.643  0.00  0.00    +0.000 C 
ATOM      6  C   UNL     1      -0.655  10.360  18.676  0.00  0.00    +0.000 C 
ATOM      7  C   UNL     1      -0.430  11.450  19.721  0.00  0.00    +0.000 C 
ATOM      8  N   UNL     1      -1.679  11.870  20.383  0.00  0.00    +0.000 NA
ATOM      9  C   UNL     1      -2.730  12.244  19.412  0.00  0.00    +0.000 C 
ATOM     10  C   UNL     1      -2.982  11.170  18.344  0.00  0.00    +0.000 C 
ENDROOT
BRANCH   1  12
ATOM     11  O   UNL     1      -6.004  12.912  17.431  0.00  0.00    +0.000 OA
ATOM     12  C   UNL     1      -5.364  11.948  17.854  0.00  0.00    +0.000 C 
ATOM     13  N   UNL     1      -5.820  11.121  18.856  0.00  0.00    +0.000 N 
ATOM     14  H   UNL     1      -5.221  10.387  19.215  0.00  0.00    +0.000 HD
BRANCH  13  15
ATOM     15  C   UNL     1      -7.091  11.331  19.476  0.00  0.00    +0.000 C 
ATOM     16  C   UNL     1      -7.638  10.394  20.514  0.00  0.00    +0.000 C 
ATOM     17  C   UNL     1      -7.153  11.757  20.915  0.00  0.00    +0.000 C 
ENDBRANCH  13  15
ENDBRANCH   1  12
BRANCH   8  18
ATOM     18  C   UNL     1      -1.454  13.028  21.278  0.00  0.00    +0.000 C 
BRANCH  18  19
ATOM     19  C   UNL     1      -2.496  13.147  22.356  0.00  0.00    +0.000 A 
ATOM     20  C   UNL     1      -2.839  12.116  23.292  0.00  0.00    +0.000 A 
ATOM     21  C   UNL     1      -3.877  12.475  24.123  0.00  0.00    +0.000 A 
ATOM     22  S   UNL     1      -4.431  14.060  23.809  0.00  0.00    +0.000 S 
ATOM     23  C   UNL     1      -3.292  14.263  22.550  0.00  0.00    +0.000 A 
ENDBRANCH  18  19
ENDBRANCH   8  18
TORSDOF 4
ENDMDL
