MODEL 1
REMARK VINA RESULT:      -7.4      0.000      0.000
REMARK  Name = 
REMARK  6 active torsions:
REMARK  status: ('A' for Active; 'I' for Inactive)
REMARK    1  A    between atoms: C_1  and  C_2
REMARK    2  A    between atoms: N_4  and  C_5
REMARK    3  A    between atoms: C_8  and  C_9
REMARK    4  A    between atoms: N_11  and  N_12
REMARK    5  A    between atoms: C_13  and  C_14
REMARK    6  A    between atoms: C_21  and  O_22
REMARK                            x       y       z     vdW  Elec       q    Type
REMARK                         _______ _______ _______ _____ _____    ______ ____
ROOT
ATOM      1  C   UNL     1       4.120   6.158  17.811  0.00  0.00    +0.000 C 
ATOM      2  O   UNL     1       4.082   5.646  18.926  0.00  0.00    +0.000 OA
ATOM      3  N   UNL     1       3.622   7.415  17.482  0.00  0.00    +0.000 N 
ATOM      4  H   UNL     1       3.793   7.825  16.572  0.00  0.00    +0.000 HD
ENDROOT
BRANCH   1   8
ATOM      5  C   UNL     1       5.975   4.025  14.552  0.00  0.00    +0.000 A 
ATOM      6  C   UNL     1       5.513   3.339  15.678  0.00  0.00    +0.000 A 
ATOM      7  C   UNL     1       4.919   4.020  16.743  0.00  0.00    +0.000 A 
ATOM      8  C   UNL     1       4.761   5.406  16.693  0.00  0.00    +0.000 A 
ATOM      9  C   UNL     1       5.255   6.107  15.584  0.00  0.00    +0.000 A 
ATOM     10  C   UNL     1       5.865   5.421  14.523  0.00  0.00    +0.000 A 
BRANCH   5  14
ATOM     11  C   UNL     1       6.822   2.257  11.328  0.00  0.00    +0.000 C 
ATOM     12  C   UNL     1       5.953   3.062  12.255  0.00  0.00    +0.000 C 
ATOM     13  O   UNL     1       4.815   3.377  11.920  0.00  0.00    +0.000 OA
ATOM     14  N   UNL     1       6.575   3.370  13.454  0.00  0.00    +0.000 N 
ATOM     15  H   UNL     1       7.569   3.186  13.522  0.00  0.00    +0.000 HD
ENDBRANCH   5  14
ENDBRANCH   1   8
BRANCH   3  16
ATOM     16  N   UNL     1       2.986   8.160  18.428  0.00  0.00    +0.000 NA
ATOM     17  C   UNL     1       1.810   8.604  18.112  0.00  0.00    +0.000 C 
BRANCH  17  18
ATOM     18  C   UNL     1       1.039   9.436  19.061  0.00  0.00    +0.000 A 
ATOM     19  C   UNL     1       0.370  10.573  18.591  0.00  0.00    +0.000 A 
ATOM     20  C   UNL     1      -0.376  11.353  19.472  0.00  0.00    +0.000 A 
ATOM     21 BR   UNL     1      -1.283  12.882  18.830  0.00  0.00    +0.000 Br
ATOM     22  C   UNL     1      -0.462  11.017  20.822  0.00  0.00    +0.000 A 
ATOM     23  C   UNL     1       0.211   9.886  21.289  0.00  0.00    +0.000 A 
ATOM     24 BR   UNL     1       0.081   9.449  23.130  0.00  0.00    +0.000 Br
ATOM     25  C   UNL     1       0.964   9.091  20.414  0.00  0.00    +0.000 A 
BRANCH  25  26
ATOM     26  O   UNL     1       1.622   7.980  20.870  0.00  0.00    +0.000 OA
ATOM     27  H   UNL     1       2.450   8.276  21.295  0.00  0.00    +0.000 HD
ENDBRANCH  25  26
ENDBRANCH  17  18
ENDBRANCH   3  16
TORSDOF 5
ENDMDL
MODEL 2
REMARK VINA RESULT:      -7.3      0.389      1.057
REMARK  Name = 
REMARK  6 active torsions:
REMARK  status: ('A' for Active; 'I' for Inactive)
REMARK    1  A    between atoms: C_1  and  C_2
REMARK    2  A    between atoms: N_4  and  C_5
REMARK    3  A    between atoms: C_8  and  C_9
REMARK    4  A    between atoms: N_11  and  N_12
REMARK    5  A    between atoms: C_13  and  C_14
REMARK    6  A    between atoms: C_21  and  O_22
REMARK                            x       y       z     vdW  Elec       q    Type
REMARK                         _______ _______ _______ _____ _____    ______ ____
ROOT
ATOM      1  C   UNL     1       4.063   6.254  17.836  0.00  0.00    +0.000 C 
ATOM      2  O   UNL     1       4.127   5.753  18.955  0.00  0.00    +0.000 OA
ATOM      3  N   UNL     1       3.452   7.465  17.527  0.00  0.00    +0.000 N 
ATOM      4  H   UNL     1       3.540   7.877  16.606  0.00  0.00    +0.000 HD
ENDROOT
BRANCH   1   8
ATOM      5  C   UNL     1       5.888   4.150  14.540  0.00  0.00    +0.000 A 
ATOM      6  C   UNL     1       5.793   5.544  14.528  0.00  0.00    +0.000 A 
ATOM      7  C   UNL     1       5.196   6.235  15.586  0.00  0.00    +0.000 A 
ATOM      8  C   UNL     1       4.695   5.541  16.688  0.00  0.00    +0.000 A 
ATOM      9  C   UNL     1       4.751   4.140  16.692  0.00  0.00    +0.000 A 
ATOM     10  C   UNL     1       5.338   3.449  15.621  0.00  0.00    +0.000 A 
BRANCH   5  14
ATOM     11  C   UNL     1       6.749   2.204  11.425  0.00  0.00    +0.000 C 
ATOM     12  C   UNL     1       5.893   3.094  12.286  0.00  0.00    +0.000 C 
ATOM     13  O   UNL     1       4.786   3.454  11.896  0.00  0.00    +0.000 OA
ATOM     14  N   UNL     1       6.489   3.419  13.493  0.00  0.00    +0.000 N 
ATOM     15  H   UNL     1       7.468   3.186  13.605  0.00  0.00    +0.000 HD
ENDBRANCH   5  14
ENDBRANCH   1   8
BRANCH   3  16
ATOM     16  N   UNL     1       2.814   8.171  18.503  0.00  0.00    +0.000 NA
ATOM     17  C   UNL     1       1.906   9.006  18.105  0.00  0.00    +0.000 C 
BRANCH  17  18
ATOM     18  C   UNL     1       1.165   9.832  19.082  0.00  0.00    +0.000 A 
ATOM     19  C   UNL     1       0.763  11.125  18.722  0.00  0.00    +0.000 A 
ATOM     20  C   UNL     1       0.046  11.906  19.627  0.00  0.00    +0.000 A 
ATOM     21 BR   UNL     1      -0.500  13.646  19.133  0.00  0.00    +0.000 Br
ATOM     22  C   UNL     1      -0.274  11.415  20.892  0.00  0.00    +0.000 A 
ATOM     23  C   UNL     1       0.132  10.128  21.249  0.00  0.00    +0.000 A 
ATOM     24 BR   UNL     1      -0.314   9.483  22.976  0.00  0.00    +0.000 Br
ATOM     25  C   UNL     1       0.852   9.331  20.350  0.00  0.00    +0.000 A 
BRANCH  25  26
ATOM     26  O   UNL     1       1.250   8.068  20.697  0.00  0.00    +0.000 OA
ATOM     27  H   UNL     1       2.223   8.029  20.624  0.00  0.00    +0.000 HD
ENDBRANCH  25  26
ENDBRANCH  17  18
ENDBRANCH   3  16
TORSDOF 5
ENDMDL
MODEL 3
REMARK VINA RESULT:      -7.1      1.223      2.385
REMARK  Name = 
REMARK  6 active torsions:
REMARK  status: ('A' for Active; 'I' for Inactive)
REMARK    1  A    between atoms: C_1  and  C_2
REMARK    2  A    between atoms: N_4  and  C_5
REMARK    3  A    between atoms: C_8  and  C_9
REMARK    4  A    between atoms: N_11  and  N_12
REMARK    5  A    between atoms: C_13  and  C_14
REMARK    6  A    between atoms: C_21  and  O_22
REMARK                            x       y       z     vdW  Elec       q    Type
REMARK                         _______ _______ _______ _____ _____    ______ ____
ROOT
ATOM      1  C   UNL     1       4.129   6.243  17.845  0.00  0.00    +0.000 C 
ATOM      2  O   UNL     1       4.425   5.915  18.991  0.00  0.00    +0.000 OA
ATOM      3  N   UNL     1       3.259   7.272  17.499  0.00  0.00    +0.000 N 
ATOM      4  H   UNL     1       3.152   7.568  16.537  0.00  0.00    +0.000 HD
ENDROOT
BRANCH   1   8
ATOM      5  C   UNL     1       5.909   4.082  14.563  0.00  0.00    +0.000 A 
ATOM      6  C   UNL     1       5.833   5.476  14.537  0.00  0.00    +0.000 A 
ATOM      7  C   UNL     1       5.251   6.186  15.590  0.00  0.00    +0.000 A 
ATOM      8  C   UNL     1       4.746   5.510  16.702  0.00  0.00    +0.000 A 
ATOM      9  C   UNL     1       4.782   4.109  16.719  0.00  0.00    +0.000 A 
ATOM     10  C   UNL     1       5.354   3.399  15.653  0.00  0.00    +0.000 A 
BRANCH   5  14
ATOM     11  C   UNL     1       6.740   2.134  11.440  0.00  0.00    +0.000 C 
ATOM     12  C   UNL     1       5.914   3.059  12.292  0.00  0.00    +0.000 C 
ATOM     13  O   UNL     1       4.840   3.488  11.879  0.00  0.00    +0.000 OA
ATOM     14  N   UNL     1       6.494   3.332  13.520  0.00  0.00    +0.000 N 
ATOM     15  H   UNL     1       7.456   3.041  13.654  0.00  0.00    +0.000 HD
ENDBRANCH   5  14
ENDBRANCH   1   8
BRANCH   3  16
ATOM     16  N   UNL     1       2.618   7.974  18.475  0.00  0.00    +0.000 NA
ATOM     17  C   UNL     1       2.124   9.120  18.126  0.00  0.00    +0.000 C 
BRANCH  17  18
ATOM     18  C   UNL     1       1.422   9.969  19.112  0.00  0.00    +0.000 A 
ATOM     19  C   UNL     1       0.906   9.387  20.277  0.00  0.00    +0.000 A 
ATOM     20  C   UNL     1       0.260  10.181  21.222  0.00  0.00    +0.000 A 
ATOM     21 BR   UNL     1      -0.427   9.390  22.795  0.00  0.00    +0.000 Br
ATOM     22  C   UNL     1       0.117  11.552  21.020  0.00  0.00    +0.000 A 
ATOM     23  C   UNL     1       0.626  12.129  19.856  0.00  0.00    +0.000 A 
ATOM     24 BR   UNL     1       0.418  13.998  19.603  0.00  0.00    +0.000 Br
ATOM     25  C   UNL     1       1.280  11.344  18.897  0.00  0.00    +0.000 A 
BRANCH  25  26
ATOM     26  O   UNL     1       1.783  11.909  17.755  0.00  0.00    +0.000 OA
ATOM     27  H   UNL     1       2.741  12.047  17.887  0.00  0.00    +0.000 HD
ENDBRANCH  25  26
ENDBRANCH  17  18
ENDBRANCH   3  16
TORSDOF 5
ENDMDL
MODEL 4
REMARK VINA RESULT:      -7.0      1.056      2.166
REMARK  Name = 
REMARK  6 active torsions:
REMARK  status: ('A' for Active; 'I' for Inactive)
REMARK    1  A    between atoms: C_1  and  C_2
REMARK    2  A    between atoms: N_4  and  C_5
REMARK    3  A    between atoms: C_8  and  C_9
REMARK    4  A    between atoms: N_11  and  N_12
REMARK    5  A    between atoms: C_13  and  C_14
REMARK    6  A    between atoms: C_21  and  O_22
REMARK                            x       y       z     vdW  Elec       q    Type
REMARK                         _______ _______ _______ _____ _____    ______ ____
ROOT
ATOM      1  C   UNL     1       3.865   6.038  18.093  0.00  0.00    +0.000 C 
ATOM      2  O   UNL     1       3.871   5.487  19.190  0.00  0.00    +0.000 OA
ATOM      3  N   UNL     1       3.250   7.251  17.802  0.00  0.00    +0.000 N 
ATOM      4  H   UNL     1       3.385   7.707  16.909  0.00  0.00    +0.000 HD
ENDROOT
BRANCH   1   8
ATOM      5  C   UNL     1       5.938   4.208  14.781  0.00  0.00    +0.000 A 
ATOM      6  C   UNL     1       5.438   3.427  15.825  0.00  0.00    +0.000 A 
ATOM      7  C   UNL     1       4.773   4.009  16.907  0.00  0.00    +0.000 A 
ATOM      8  C   UNL     1       4.581   5.391  16.956  0.00  0.00    +0.000 A 
ATOM      9  C   UNL     1       5.112   6.187  15.932  0.00  0.00    +0.000 A 
ATOM     10  C   UNL     1       5.792   5.600  14.854  0.00  0.00    +0.000 A 
BRANCH   5  14
ATOM     11  C   UNL     1       6.984   2.630  11.518  0.00  0.00    +0.000 C 
ATOM     12  C   UNL     1       6.027   3.305  12.462  0.00  0.00    +0.000 C 
ATOM     13  O   UNL     1       4.859   3.491  12.133  0.00  0.00    +0.000 OA
ATOM     14  N   UNL     1       6.609   3.655  13.670  0.00  0.00    +0.000 N 
ATOM     15  H   UNL     1       7.618   3.589  13.735  0.00  0.00    +0.000 HD
ENDBRANCH   5  14
ENDBRANCH   1   8
BRANCH   3  16
ATOM     16  N   UNL     1       2.539   7.899  18.768  0.00  0.00    +0.000 NA
ATOM     17  C   UNL     1       1.539   8.615  18.361  0.00  0.00    +0.000 C 
BRANCH  17  18
ATOM     18  C   UNL     1       0.711   9.371  19.325  0.00  0.00    +0.000 A 
ATOM     19  C   UNL     1       0.832   9.100  20.694  0.00  0.00    +0.000 A 
ATOM     20  C   UNL     1       0.071   9.820  21.613  0.00  0.00    +0.000 A 
ATOM     21 BR   UNL     1       0.243   9.455  23.459  0.00  0.00    +0.000 Br
ATOM     22  C   UNL     1      -0.814  10.808  21.185  0.00  0.00    +0.000 A 
ATOM     23  C   UNL     1      -0.935  11.072  19.820  0.00  0.00    +0.000 A 
ATOM     24 BR   UNL     1      -2.147  12.421  19.261  0.00  0.00    +0.000 Br
ATOM     25  C   UNL     1      -0.177  10.358  18.884  0.00  0.00    +0.000 A 
BRANCH  25  26
ATOM     26  O   UNL     1      -0.292  10.617  17.544  0.00  0.00    +0.000 OA
ATOM     27  H   UNL     1       0.366  10.069  17.075  0.00  0.00    +0.000 HD
ENDBRANCH  25  26
ENDBRANCH  17  18
ENDBRANCH   3  16
TORSDOF 5
ENDMDL
MODEL 5
REMARK VINA RESULT:      -7.0      4.603      9.580
REMARK  Name = 
REMARK  6 active torsions:
REMARK  status: ('A' for Active; 'I' for Inactive)
REMARK    1  A    between atoms: C_1  and  C_2
REMARK    2  A    between atoms: N_4  and  C_5
REMARK    3  A    between atoms: C_8  and  C_9
REMARK    4  A    between atoms: N_11  and  N_12
REMARK    5  A    between atoms: C_13  and  C_14
REMARK    6  A    between atoms: C_21  and  O_22
REMARK                            x       y       z     vdW  Elec       q    Type
REMARK                         _______ _______ _______ _____ _____    ______ ____
ROOT
ATOM      1  C   UNL     1       0.462   9.689  18.753  0.00  0.00    +0.000 C 
ATOM      2  O   UNL     1       0.987   9.937  19.835  0.00  0.00    +0.000 OA
ATOM      3  N   UNL     1       0.957   8.805  17.800  0.00  0.00    +0.000 N 
ATOM      4  H   UNL     1       0.414   8.556  16.982  0.00  0.00    +0.000 HD
ENDROOT
BRANCH   1   8
ATOM      5  C   UNL     1      -3.255  11.651  17.781  0.00  0.00    +0.000 A 
ATOM      6  C   UNL     1      -2.709  10.696  16.920  0.00  0.00    +0.000 A 
ATOM      7  C   UNL     1      -1.502  10.061  17.220  0.00  0.00    +0.000 A 
ATOM      8  C   UNL     1      -0.823  10.360  18.402  0.00  0.00    +0.000 A 
ATOM      9  C   UNL     1      -1.343  11.344  19.254  0.00  0.00    +0.000 A 
ATOM     10  C   UNL     1      -2.549  11.991  18.942  0.00  0.00    +0.000 A 
BRANCH   5  14
ATOM     11  C   UNL     1      -6.843  12.690  17.245  0.00  0.00    +0.000 C 
ATOM     12  C   UNL     1      -5.741  11.794  17.745  0.00  0.00    +0.000 C 
ATOM     13  O   UNL     1      -6.009  10.727  18.289  0.00  0.00    +0.000 OA
ATOM     14  N   UNL     1      -4.475  12.309  17.514  0.00  0.00    +0.000 N 
ATOM     15  H   UNL     1      -4.415  13.272  17.206  0.00  0.00    +0.000 HD
ENDBRANCH   5  14
ENDBRANCH   1   8
BRANCH   3  16
ATOM     16  N   UNL     1       2.146   8.173  18.015  0.00  0.00    +0.000 NA
ATOM     17  C   UNL     1       2.121   6.878  17.973  0.00  0.00    +0.000 C 
BRANCH  17  18
ATOM     18  C   UNL     1       3.353   6.094  18.208  0.00  0.00    +0.000 A 
ATOM     19  C   UNL     1       4.590   6.627  17.823  0.00  0.00    +0.000 A 
ATOM     20  C   UNL     1       5.759   5.905  18.057  0.00  0.00    +0.000 A 
ATOM     21 BR   UNL     1       7.426   6.633  17.544  0.00  0.00    +0.000 Br
ATOM     22  C   UNL     1       5.711   4.654  18.669  0.00  0.00    +0.000 A 
ATOM     23  C   UNL     1       4.477   4.123  19.045  0.00  0.00    +0.000 A 
ATOM     24 BR   UNL     1       4.437   2.417  19.874  0.00  0.00    +0.000 Br
ATOM     25  C   UNL     1       3.293   4.837  18.818  0.00  0.00    +0.000 A 
BRANCH  25  26
ATOM     26  O   UNL     1       2.081   4.319  19.189  0.00  0.00    +0.000 OA
ATOM     27  H   UNL     1       1.406   4.667  18.575  0.00  0.00    +0.000 HD
ENDBRANCH  25  26
ENDBRANCH  17  18
ENDBRANCH   3  16
TORSDOF 5
ENDMDL
MODEL 6
REMARK VINA RESULT:      -7.0      4.473     10.399
REMARK  Name = 
REMARK  6 active torsions:
REMARK  status: ('A' for Active; 'I' for Inactive)
REMARK    1  A    between atoms: C_1  and  C_2
REMARK    2  A    between atoms: N_4  and  C_5
REMARK    3  A    between atoms: C_8  and  C_9
REMARK    4  A    between atoms: N_11  and  N_12
REMARK    5  A    between atoms: C_13  and  C_14
REMARK    6  A    between atoms: C_21  and  O_22
REMARK                            x       y       z     vdW  Elec       q    Type
REMARK                         _______ _______ _______ _____ _____    ______ ____
ROOT
ATOM      1  C   UNL     1       0.956   9.679  19.634  0.00  0.00    +0.000 C 
ATOM      2  O   UNL     1       1.023  10.094  18.481  0.00  0.00    +0.000 OA
ATOM      3  N   UNL     1       1.542   8.509  20.106  0.00  0.00    +0.000 N 
ATOM      4  H   UNL     1       1.549   8.286  21.094  0.00  0.00    +0.000 HD
ENDROOT
BRANCH   1   8
ATOM      5  C   UNL     1      -1.217  12.021  22.533  0.00  0.00    +0.000 A 
ATOM      6  C   UNL     1      -0.760  10.741  22.853  0.00  0.00    +0.000 A 
ATOM      7  C   UNL     1      -0.063   9.970  21.920  0.00  0.00    +0.000 A 
ATOM      8  C   UNL     1       0.204  10.476  20.647  0.00  0.00    +0.000 A 
ATOM      9  C   UNL     1      -0.283  11.744  20.303  0.00  0.00    +0.000 A 
ATOM     10  C   UNL     1      -0.996  12.510  21.238  0.00  0.00    +0.000 A 
BRANCH   5  14
ATOM     11  C   UNL     1      -3.743  13.952  24.564  0.00  0.00    +0.000 C 
ATOM     12  C   UNL     1      -3.297  12.909  23.576  0.00  0.00    +0.000 C 
ATOM     13  O   UNL     1      -4.125  12.233  22.972  0.00  0.00    +0.000 OA
ATOM     14  N   UNL     1      -1.919  12.832  23.451  0.00  0.00    +0.000 N 
ATOM     15  H   UNL     1      -1.363  13.335  24.131  0.00  0.00    +0.000 HD
ENDBRANCH   5  14
ENDBRANCH   1   8
BRANCH   3  16
ATOM     16  N   UNL     1       2.217   7.695  19.247  0.00  0.00    +0.000 NA
ATOM     17  C   UNL     1       2.331   6.454  19.603  0.00  0.00    +0.000 C 
BRANCH  17  18
ATOM     18  C   UNL     1       3.058   5.489  18.750  0.00  0.00    +0.000 A 
ATOM     19  C   UNL     1       3.820   5.962  17.674  0.00  0.00    +0.000 A 
ATOM     20  C   UNL     1       4.525   5.063  16.876  0.00  0.00    +0.000 A 
ATOM     21 BR   UNL     1       5.558   5.707  15.430  0.00  0.00    +0.000 Br
ATOM     22  C   UNL     1       4.478   3.694  17.134  0.00  0.00    +0.000 A 
ATOM     23  C   UNL     1       3.713   3.226  18.203  0.00  0.00    +0.000 A 
ATOM     24 BR   UNL     1       3.663   1.358  18.534  0.00  0.00    +0.000 Br
ATOM     25  C   UNL     1       3.000   4.117  19.015  0.00  0.00    +0.000 A 
BRANCH  25  26
ATOM     26  O   UNL     1       2.251   3.660  20.067  0.00  0.00    +0.000 OA
ATOM     27  H   UNL     1       2.036   4.424  20.635  0.00  0.00    +0.000 HD
ENDBRANCH  25  26
ENDBRANCH  17  18
ENDBRANCH   3  16
TORSDOF 5
ENDMDL
MODEL 7
REMARK VINA RESULT:      -6.9      4.577      9.599
REMARK  Name = 
REMARK  6 active torsions:
REMARK  status: ('A' for Active; 'I' for Inactive)
REMARK    1  A    between atoms: C_1  and  C_2
REMARK    2  A    between atoms: N_4  and  C_5
REMARK    3  A    between atoms: C_8  and  C_9
REMARK    4  A    between atoms: N_11  and  N_12
REMARK    5  A    between atoms: C_13  and  C_14
REMARK    6  A    between atoms: C_21  and  O_22
REMARK                            x       y       z     vdW  Elec       q    Type
REMARK                         _______ _______ _______ _____ _____    ______ ____
ROOT
ATOM      1  C   UNL     1       0.346   9.613  18.918  0.00  0.00    +0.000 C 
ATOM      2  O   UNL     1       0.705   9.487  20.085  0.00  0.00    +0.000 OA
ATOM      3  N   UNL     1       1.015   9.107  17.808  0.00  0.00    +0.000 N 
ATOM      4  H   UNL     1       0.602   9.143  16.885  0.00  0.00    +0.000 HD
ENDROOT
BRANCH   1   8
ATOM      5  C   UNL     1      -3.312  11.722  18.031  0.00  0.00    +0.000 A 
ATOM      6  C   UNL     1      -2.606  11.988  19.207  0.00  0.00    +0.000 A 
ATOM      7  C   UNL     1      -1.425  11.305  19.509  0.00  0.00    +0.000 A 
ATOM      8  C   UNL     1      -0.918  10.349  18.626  0.00  0.00    +0.000 A 
ATOM      9  C   UNL     1      -1.640  10.048  17.463  0.00  0.00    +0.000 A 
ATOM     10  C   UNL     1      -2.834  10.726  17.171  0.00  0.00    +0.000 A 
BRANCH   5  14
ATOM     11  C   UNL     1      -6.836  12.791  17.209  0.00  0.00    +0.000 C 
ATOM     12  C   UNL     1      -5.783  11.863  17.752  0.00  0.00    +0.000 C 
ATOM     13  O   UNL     1      -6.094  10.758  18.186  0.00  0.00    +0.000 OA
ATOM     14  N   UNL     1      -4.505  12.395  17.690  0.00  0.00    +0.000 N 
ATOM     15  H   UNL     1      -4.422  13.379  17.462  0.00  0.00    +0.000 HD
ENDBRANCH   5  14
ENDBRANCH   1   8
BRANCH   3  16
ATOM     16  N   UNL     1       2.199   8.453  17.972  0.00  0.00    +0.000 NA
ATOM     17  C   UNL     1       2.141   7.158  17.986  0.00  0.00    +0.000 C 
BRANCH  17  18
ATOM     18  C   UNL     1       3.365   6.351  18.172  0.00  0.00    +0.000 A 
ATOM     19  C   UNL     1       4.601   6.876  17.775  0.00  0.00    +0.000 A 
ATOM     20  C   UNL     1       5.764   6.132  17.964  0.00  0.00    +0.000 A 
ATOM     21 BR   UNL     1       7.430   6.849  17.433  0.00  0.00    +0.000 Br
ATOM     22  C   UNL     1       5.712   4.865  18.544  0.00  0.00    +0.000 A 
ATOM     23  C   UNL     1       4.478   4.342  18.934  0.00  0.00    +0.000 A 
ATOM     24 BR   UNL     1       4.431   2.616  19.719  0.00  0.00    +0.000 Br
ATOM     25  C   UNL     1       3.300   5.079  18.751  0.00  0.00    +0.000 A 
BRANCH  25  26
ATOM     26  O   UNL     1       2.089   4.569  19.135  0.00  0.00    +0.000 OA
ATOM     27  H   UNL     1       1.423   4.853  18.480  0.00  0.00    +0.000 HD
ENDBRANCH  25  26
ENDBRANCH  17  18
ENDBRANCH   3  16
TORSDOF 5
ENDMDL
MODEL 8
REMARK VINA RESULT:      -6.9      7.408      9.840
REMARK  Name = 
REMARK  6 active torsions:
REMARK  status: ('A' for Active; 'I' for Inactive)
REMARK    1  A    between atoms: C_1  and  C_2
REMARK    2  A    between atoms: N_4  and  C_5
REMARK    3  A    between atoms: C_8  and  C_9
REMARK    4  A    between atoms: N_11  and  N_12
REMARK    5  A    between atoms: C_13  and  C_14
REMARK    6  A    between atoms: C_21  and  O_22
REMARK                            x       y       z     vdW  Elec       q    Type
REMARK                         _______ _______ _______ _____ _____    ______ ____
ROOT
ATOM      1  C   UNL     1       8.511   9.354  18.449  0.00  0.00    +0.000 C 
ATOM      2  O   UNL     1       7.602   9.517  17.640  0.00  0.00    +0.000 OA
ATOM      3  N   UNL     1       8.878   8.138  19.017  0.00  0.00    +0.000 N 
ATOM      4  H   UNL     1       9.712   8.054  19.585  0.00  0.00    +0.000 HD
ENDROOT
BRANCH   1   8
ATOM      5  C   UNL     1      10.871  12.769  19.625  0.00  0.00    +0.000 A 
ATOM      6  C   UNL     1      10.283  11.946  20.588  0.00  0.00    +0.000 A 
ATOM      7  C   UNL     1       9.510  10.843  20.220  0.00  0.00    +0.000 A 
ATOM      8  C   UNL     1       9.323  10.532  18.872  0.00  0.00    +0.000 A 
ATOM      9  C   UNL     1       9.877  11.373  17.897  0.00  0.00    +0.000 A 
ATOM     10  C   UNL     1      10.641  12.489  18.271  0.00  0.00    +0.000 A 
BRANCH   5  14
ATOM     11  C   UNL     1      12.328  16.180  20.316  0.00  0.00    +0.000 C 
ATOM     12  C   UNL     1      11.218  15.196  20.059  0.00  0.00    +0.000 C 
ATOM     13  O   UNL     1      10.058  15.583  19.955  0.00  0.00    +0.000 OA
ATOM     14  N   UNL     1      11.664  13.888  19.959  0.00  0.00    +0.000 N 
ATOM     15  H   UNL     1      12.622  13.702  20.231  0.00  0.00    +0.000 HD
ENDBRANCH   5  14
ENDBRANCH   1   8
BRANCH   3  16
ATOM     16  N   UNL     1       8.170   7.012  18.721  0.00  0.00    +0.000 NA
ATOM     17  C   UNL     1       7.411   7.071  17.673  0.00  0.00    +0.000 C 
BRANCH  17  18
ATOM     18  C   UNL     1       6.589   5.910  17.271  0.00  0.00    +0.000 A 
ATOM     19  C   UNL     1       6.571   5.512  15.928  0.00  0.00    +0.000 A 
ATOM     20  C   UNL     1       5.816   4.407  15.542  0.00  0.00    +0.000 A 
ATOM     21 BR   UNL     1       5.802   3.870  13.730  0.00  0.00    +0.000 Br
ATOM     22  C   UNL     1       5.072   3.691  16.479  0.00  0.00    +0.000 A 
ATOM     23  C   UNL     1       5.086   4.094  17.815  0.00  0.00    +0.000 A 
ATOM     24 BR   UNL     1       4.064   3.106  19.072  0.00  0.00    +0.000 Br
ATOM     25  C   UNL     1       5.842   5.202  18.219  0.00  0.00    +0.000 A 
BRANCH  25  26
ATOM     26  O   UNL     1       5.860   5.597  19.530  0.00  0.00    +0.000 OA
ATOM     27  H   UNL     1       5.993   4.801  20.080  0.00  0.00    +0.000 HD
ENDBRANCH  25  26
ENDBRANCH  17  18
ENDBRANCH   3  16
TORSDOF 5
ENDMDL
MODEL 9
REMARK VINA RESULT:      -6.9      4.315     10.542
REMARK  Name = 
REMARK  6 active torsions:
REMARK  status: ('A' for Active; 'I' for Inactive)
REMARK    1  A    between atoms: C_1  and  C_2
REMARK    2  A    between atoms: N_4  and  C_5
REMARK    3  A    between atoms: C_8  and  C_9
REMARK    4  A    between atoms: N_11  and  N_12
REMARK    5  A    between atoms: C_13  and  C_14
REMARK    6  A    between atoms: C_21  and  O_22
REMARK                            x       y       z     vdW  Elec       q    Type
REMARK                         _______ _______ _______ _____ _____    ______ ____
ROOT
ATOM      1  C   UNL     1       0.814   9.690  19.341  0.00  0.00    +0.000 C 
ATOM      2  O   UNL     1       0.784  10.032  18.163  0.00  0.00    +0.000 OA
ATOM      3  N   UNL     1       1.431   8.544  19.834  0.00  0.00    +0.000 N 
ATOM      4  H   UNL     1       1.521   8.384  20.829  0.00  0.00    +0.000 HD
ENDROOT
BRANCH   1   8
ATOM      5  C   UNL     1      -1.082  12.163  22.325  0.00  0.00    +0.000 A 
ATOM      6  C   UNL     1      -0.819  12.665  21.049  0.00  0.00    +0.000 A 
ATOM      7  C   UNL     1      -0.198  11.877  20.077  0.00  0.00    +0.000 A 
ATOM      8  C   UNL     1       0.159  10.558  20.363  0.00  0.00    +0.000 A 
ATOM      9  C   UNL     1      -0.065  10.057  21.653  0.00  0.00    +0.000 A 
ATOM     10  C   UNL     1      -0.676  10.857  22.630  0.00  0.00    +0.000 A 
BRANCH   5  14
ATOM     11  C   UNL     1      -3.450  13.960  24.649  0.00  0.00    +0.000 C 
ATOM     12  C   UNL     1      -3.073  12.955  23.594  0.00  0.00    +0.000 C 
ATOM     13  O   UNL     1      -3.936  12.265  23.059  0.00  0.00    +0.000 OA
ATOM     14  N   UNL     1      -1.713  12.928  23.330  0.00  0.00    +0.000 N 
ATOM     15  H   UNL     1      -1.107  13.434  23.965  0.00  0.00    +0.000 HD
ENDBRANCH   5  14
ENDBRANCH   1   8
BRANCH   3  16
ATOM     16  N   UNL     1       2.023   7.670  18.972  0.00  0.00    +0.000 NA
ATOM     17  C   UNL     1       2.585   6.632  19.506  0.00  0.00    +0.000 C 
BRANCH  17  18
ATOM     18  C   UNL     1       3.269   5.629  18.663  0.00  0.00    +0.000 A 
ATOM     19  C   UNL     1       3.102   4.266  18.943  0.00  0.00    +0.000 A 
ATOM     20  C   UNL     1       3.726   3.311  18.143  0.00  0.00    +0.000 A 
ATOM     21 BR   UNL     1       3.489   1.475  18.520  0.00  0.00    +0.000 Br
ATOM     22  C   UNL     1       4.520   3.697  17.064  0.00  0.00    +0.000 A 
ATOM     23  C   UNL     1       4.690   5.055  16.791  0.00  0.00    +0.000 A 
ATOM     24 BR   UNL     1       5.777   5.556  15.319  0.00  0.00    +0.000 Br
ATOM     25  C   UNL     1       4.068   6.027  17.586  0.00  0.00    +0.000 A 
BRANCH  25  26
ATOM     26  O   UNL     1       4.231   7.360  17.318  0.00  0.00    +0.000 OA
ATOM     27  H   UNL     1       3.455   7.833  17.674  0.00  0.00    +0.000 HD
ENDBRANCH  25  26
ENDBRANCH  17  18
ENDBRANCH   3  16
TORSDOF 5
ENDMDL
