MODEL 1
REMARK VINA RESULT:      -8.4      0.000      0.000
REMARK  Name = 
REMARK  6 active torsions:
REMARK  status: ('A' for Active; 'I' for Inactive)
REMARK    1  A    between atoms: C_1  and  C_2
REMARK    2  A    between atoms: C_2  and  C_3
REMARK    3  A    between atoms: C_3  and  C_4
REMARK    4  A    between atoms: C_4  and  C_5
REMARK    5  A    between atoms: N_7  and  C_8
REMARK    6  A    between atoms: C_18  and  N_19
REMARK                            x       y       z     vdW  Elec       q    Type
REMARK                         _______ _______ _______ _____ _____    ______ ____
ROOT
ATOM      1  C   UNL     1       6.049   4.278  16.550  0.00  0.00    +0.000 A 
ATOM      2  C   UNL     1       7.010   5.126  17.123  0.00  0.00    +0.000 A 
ATOM      3  C   UNL     1       6.938   5.535  18.453  0.00  0.00    +0.000 A 
ATOM      4  C   UNL     1       5.896   5.104  19.268  0.00  0.00    +0.000 A 
ATOM      5  C   UNL     1       4.905   4.260  18.733  0.00  0.00    +0.000 A 
ATOM      6  C   UNL     1       4.985   3.877  17.388  0.00  0.00    +0.000 A 
ATOM      7  N   UNL     1       3.885   3.075  17.155  0.00  0.00    +0.000 N 
ATOM      8  C   UNL     1       3.135   2.907  18.296  0.00  0.00    +0.000 A 
ATOM      9  C   UNL     1       1.981   2.173  18.534  0.00  0.00    +0.000 A 
ATOM     10  N   UNL     1       1.450   2.161  19.781  0.00  0.00    +0.000 NA
ATOM     11  C   UNL     1       2.039   2.860  20.765  0.00  0.00    +0.000 A 
ATOM     12  C   UNL     1       3.191   3.614  20.589  0.00  0.00    +0.000 A 
ATOM     13  C   UNL     1       3.754   3.639  19.302  0.00  0.00    +0.000 A 
ATOM     14  H   UNL     1       3.668   2.640  16.272  0.00  0.00    +0.000 HD
ENDROOT
BRANCH   1  17
ATOM     15  C   UNL     1       6.810   4.499  14.185  0.00  0.00    +0.000 C 
ATOM     16  O   UNL     1       7.601   5.428  14.313  0.00  0.00    +0.000 OA
ATOM     17  N   UNL     1       6.114   3.861  15.202  0.00  0.00    +0.000 N 
ATOM     18  H   UNL     1       5.669   2.986  14.969  0.00  0.00    +0.000 HD
BRANCH  15  19
ATOM     19  C   UNL     1       6.532   3.927  12.808  0.00  0.00    +0.000 C 
BRANCH  19  20
ATOM     20  C   UNL     1       5.035   3.730  12.589  0.00  0.00    +0.000 C 
BRANCH  20  22
ATOM     21  C   UNL     1       3.461   3.256  10.694  0.00  0.00    +0.000 C 
ATOM     22  C   UNL     1       4.751   2.839  11.384  0.00  0.00    +0.000 C 
ENDBRANCH  20  22
ENDBRANCH  19  20
ENDBRANCH  15  19
ENDBRANCH   1  17
BRANCH  11  23
ATOM     23  N   UNL     1       1.467   2.753  22.032  0.00  0.00    +0.000 N 
ATOM     24  H   UNL     1       1.948   1.997  22.513  0.00  0.00    +0.000 HD
ATOM     25  H   UNL     1       0.468   2.601  21.983  0.00  0.00    +0.000 HD
ENDBRANCH  11  23
TORSDOF 5
ENDMDL
MODEL 2
REMARK VINA RESULT:      -8.3      3.155      5.393
REMARK  Name = 
REMARK  6 active torsions:
REMARK  status: ('A' for Active; 'I' for Inactive)
REMARK    1  A    between atoms: C_1  and  C_2
REMARK    2  A    between atoms: C_2  and  C_3
REMARK    3  A    between atoms: C_3  and  C_4
REMARK    4  A    between atoms: C_4  and  C_5
REMARK    5  A    between atoms: N_7  and  C_8
REMARK    6  A    between atoms: C_18  and  N_19
REMARK                            x       y       z     vdW  Elec       q    Type
REMARK                         _______ _______ _______ _____ _____    ______ ____
ROOT
ATOM      1  C   UNL     1       6.180   6.103  16.621  0.00  0.00    +0.000 A 
ATOM      2  C   UNL     1       6.598   5.157  15.671  0.00  0.00    +0.000 A 
ATOM      3  C   UNL     1       5.976   3.918  15.538  0.00  0.00    +0.000 A 
ATOM      4  C   UNL     1       4.901   3.577  16.353  0.00  0.00    +0.000 A 
ATOM      5  C   UNL     1       4.455   4.491  17.326  0.00  0.00    +0.000 A 
ATOM      6  C   UNL     1       5.107   5.723  17.458  0.00  0.00    +0.000 A 
ATOM      7  N   UNL     1       4.465   6.386  18.484  0.00  0.00    +0.000 N 
ATOM      8  C   UNL     1       3.418   5.645  18.983  0.00  0.00    +0.000 A 
ATOM      9  C   UNL     1       2.495   5.921  19.982  0.00  0.00    +0.000 A 
ATOM     10  N   UNL     1       1.533   5.008  20.265  0.00  0.00    +0.000 NA
ATOM     11  C   UNL     1       1.490   3.851  19.584  0.00  0.00    +0.000 A 
ATOM     12  C   UNL     1       2.386   3.517  18.578  0.00  0.00    +0.000 A 
ATOM     13  C   UNL     1       3.389   4.451  18.272  0.00  0.00    +0.000 A 
ATOM     14  H   UNL     1       4.706   7.308  18.813  0.00  0.00    +0.000 HD
ENDROOT
BRANCH   1  17
ATOM     15  C   UNL     1       7.695   7.719  17.769  0.00  0.00    +0.000 C 
ATOM     16  O   UNL     1       8.198   6.969  18.599  0.00  0.00    +0.000 OA
ATOM     17  N   UNL     1       6.808   7.362  16.764  0.00  0.00    +0.000 N 
ATOM     18  H   UNL     1       6.648   8.041  16.035  0.00  0.00    +0.000 HD
BRANCH  15  19
ATOM     19  C   UNL     1       8.047   9.195  17.769  0.00  0.00    +0.000 C 
BRANCH  19  20
ATOM     20  C   UNL     1       9.014   9.526  18.901  0.00  0.00    +0.000 C 
BRANCH  20  22
ATOM     21  C   UNL     1      10.333  11.406  17.890  0.00  0.00    +0.000 C 
ATOM     22  C   UNL     1       9.326  11.019  18.962  0.00  0.00    +0.000 C 
ENDBRANCH  20  22
ENDBRANCH  19  20
ENDBRANCH  15  19
ENDBRANCH   1  17
BRANCH  11  23
ATOM     23  N   UNL     1       0.439   2.987  19.893  0.00  0.00    +0.000 N 
ATOM     24  H   UNL     1      -0.262   3.101  19.165  0.00  0.00    +0.000 HD
ATOM     25  H   UNL     1       0.066   3.164  20.816  0.00  0.00    +0.000 HD
ENDBRANCH  11  23
TORSDOF 5
ENDMDL
MODEL 3
REMARK VINA RESULT:      -8.0      2.929      5.446
REMARK  Name = 
REMARK  6 active torsions:
REMARK  status: ('A' for Active; 'I' for Inactive)
REMARK    1  A    between atoms: C_1  and  C_2
REMARK    2  A    between atoms: C_2  and  C_3
REMARK    3  A    between atoms: C_3  and  C_4
REMARK    4  A    between atoms: C_4  and  C_5
REMARK    5  A    between atoms: N_7  and  C_8
REMARK    6  A    between atoms: C_18  and  N_19
REMARK                            x       y       z     vdW  Elec       q    Type
REMARK                         _______ _______ _______ _____ _____    ______ ____
ROOT
ATOM      1  C   UNL     1       6.854   5.495  17.229  0.00  0.00    +0.000 A 
ATOM      2  C   UNL     1       7.197   5.138  15.915  0.00  0.00    +0.000 A 
ATOM      3  C   UNL     1       6.445   4.228  15.175  0.00  0.00    +0.000 A 
ATOM      4  C   UNL     1       5.310   3.640  15.723  0.00  0.00    +0.000 A 
ATOM      5  C   UNL     1       4.934   3.961  17.041  0.00  0.00    +0.000 A 
ATOM      6  C   UNL     1       5.715   4.862  17.776  0.00  0.00    +0.000 A 
ATOM      7  N   UNL     1       5.113   4.966  19.014  0.00  0.00    +0.000 N 
ATOM      8  C   UNL     1       3.973   4.199  19.084  0.00  0.00    +0.000 A 
ATOM      9  C   UNL     1       3.050   4.021  20.106  0.00  0.00    +0.000 A 
ATOM     10  N   UNL     1       1.982   3.211  19.900  0.00  0.00    +0.000 NA
ATOM     11  C   UNL     1       1.835   2.589  18.718  0.00  0.00    +0.000 A 
ATOM     12  C   UNL     1       2.723   2.725  17.661  0.00  0.00    +0.000 A 
ATOM     13  C   UNL     1       3.836   3.560  17.858  0.00  0.00    +0.000 A 
ATOM     14  H   UNL     1       5.444   5.548  19.767  0.00  0.00    +0.000 HD
ENDROOT
BRANCH   1  17
ATOM     15  C   UNL     1       7.670   7.787  17.782  0.00  0.00    +0.000 C 
ATOM     16  O   UNL     1       6.963   8.441  17.024  0.00  0.00    +0.000 OA
ATOM     17  N   UNL     1       7.612   6.415  17.987  0.00  0.00    +0.000 N 
ATOM     18  H   UNL     1       8.107   6.053  18.789  0.00  0.00    +0.000 HD
BRANCH  15  19
ATOM     19  C   UNL     1       8.719   8.482  18.628  0.00  0.00    +0.000 C 
BRANCH  19  20
ATOM     20  C   UNL     1       8.759   9.977  18.331  0.00  0.00    +0.000 C 
BRANCH  20  22
ATOM     21  C   UNL     1      10.756  11.452  18.691  0.00  0.00    +0.000 C 
ATOM     22  C   UNL     1       9.592  10.738  19.359  0.00  0.00    +0.000 C 
ENDBRANCH  20  22
ENDBRANCH  19  20
ENDBRANCH  15  19
ENDBRANCH   1  17
BRANCH  11  23
ATOM     23  N   UNL     1       0.682   1.818  18.562  0.00  0.00    +0.000 N 
ATOM     24  H   UNL     1       0.026   2.372  18.018  0.00  0.00    +0.000 HD
ATOM     25  H   UNL     1       0.298   1.532  19.453  0.00  0.00    +0.000 HD
ENDBRANCH  11  23
TORSDOF 5
ENDMDL
MODEL 4
REMARK VINA RESULT:      -7.9      1.285      1.301
REMARK  Name = 
REMARK  6 active torsions:
REMARK  status: ('A' for Active; 'I' for Inactive)
REMARK    1  A    between atoms: C_1  and  C_2
REMARK    2  A    between atoms: C_2  and  C_3
REMARK    3  A    between atoms: C_3  and  C_4
REMARK    4  A    between atoms: C_4  and  C_5
REMARK    5  A    between atoms: N_7  and  C_8
REMARK    6  A    between atoms: C_18  and  N_19
REMARK                            x       y       z     vdW  Elec       q    Type
REMARK                         _______ _______ _______ _____ _____    ______ ____
ROOT
ATOM      1  C   UNL     1       4.993   5.137  15.793  0.00  0.00    +0.000 A 
ATOM      2  C   UNL     1       5.181   6.521  15.932  0.00  0.00    +0.000 A 
ATOM      3  C   UNL     1       4.768   7.214  17.067  0.00  0.00    +0.000 A 
ATOM      4  C   UNL     1       4.149   6.543  18.117  0.00  0.00    +0.000 A 
ATOM      5  C   UNL     1       3.931   5.156  18.016  0.00  0.00    +0.000 A 
ATOM      6  C   UNL     1       4.336   4.482  16.858  0.00  0.00    +0.000 A 
ATOM      7  N   UNL     1       3.983   3.160  17.044  0.00  0.00    +0.000 N 
ATOM      8  C   UNL     1       3.405   2.963  18.277  0.00  0.00    +0.000 A 
ATOM      9  C   UNL     1       2.931   1.813  18.894  0.00  0.00    +0.000 A 
ATOM     10  N   UNL     1       2.421   1.897  20.148  0.00  0.00    +0.000 NA
ATOM     11  C   UNL     1       2.377   3.085  20.772  0.00  0.00    +0.000 A 
ATOM     12  C   UNL     1       2.832   4.268  20.208  0.00  0.00    +0.000 A 
ATOM     13  C   UNL     1       3.363   4.200  18.909  0.00  0.00    +0.000 A 
ATOM     14  H   UNL     1       4.150   2.421  16.379  0.00  0.00    +0.000 HD
ENDROOT
BRANCH   1  17
ATOM     15  C   UNL     1       6.630   4.564  13.999  0.00  0.00    +0.000 C 
ATOM     16  O   UNL     1       7.600   5.196  14.402  0.00  0.00    +0.000 OA
ATOM     17  N   UNL     1       5.408   4.427  14.643  0.00  0.00    +0.000 N 
ATOM     18  H   UNL     1       4.788   3.711  14.296  0.00  0.00    +0.000 HD
BRANCH  15  19
ATOM     19  C   UNL     1       6.708   3.814  12.683  0.00  0.00    +0.000 C 
BRANCH  19  20
ATOM     20  C   UNL     1       5.394   3.101  12.380  0.00  0.00    +0.000 C 
BRANCH  20  22
ATOM     21  C   UNL     1       3.431   2.958  10.824  0.00  0.00    +0.000 C 
ATOM     22  C   UNL     1       4.600   3.813  11.288  0.00  0.00    +0.000 C 
ENDBRANCH  20  22
ENDBRANCH  19  20
ENDBRANCH  15  19
ENDBRANCH   1  17
BRANCH  11  23
ATOM     23  N   UNL     1       1.892   3.081  22.080  0.00  0.00    +0.000 N 
ATOM     24  H   UNL     1       1.679   4.046  22.321  0.00  0.00    +0.000 HD
ATOM     25  H   UNL     1       2.549   2.660  22.724  0.00  0.00    +0.000 HD
ENDBRANCH  11  23
TORSDOF 5
ENDMDL
MODEL 5
REMARK VINA RESULT:      -7.7      3.479      4.046
REMARK  Name = 
REMARK  6 active torsions:
REMARK  status: ('A' for Active; 'I' for Inactive)
REMARK    1  A    between atoms: C_1  and  C_2
REMARK    2  A    between atoms: C_2  and  C_3
REMARK    3  A    between atoms: C_3  and  C_4
REMARK    4  A    between atoms: C_4  and  C_5
REMARK    5  A    between atoms: N_7  and  C_8
REMARK    6  A    between atoms: C_18  and  N_19
REMARK                            x       y       z     vdW  Elec       q    Type
REMARK                         _______ _______ _______ _____ _____    ______ ____
ROOT
ATOM      1  C   UNL     1       4.367   4.435  17.730  0.00  0.00    +0.000 A 
ATOM      2  C   UNL     1       4.372   3.386  18.664  0.00  0.00    +0.000 A 
ATOM      3  C   UNL     1       3.733   3.489  19.897  0.00  0.00    +0.000 A 
ATOM      4  C   UNL     1       3.054   4.653  20.244  0.00  0.00    +0.000 A 
ATOM      5  C   UNL     1       3.031   5.734  19.343  0.00  0.00    +0.000 A 
ATOM      6  C   UNL     1       3.697   5.617  18.117  0.00  0.00    +0.000 A 
ATOM      7  N   UNL     1       3.510   6.821  17.466  0.00  0.00    +0.000 N 
ATOM      8  C   UNL     1       2.731   7.677  18.209  0.00  0.00    +0.000 A 
ATOM      9  C   UNL     1       2.269   8.960  17.943  0.00  0.00    +0.000 A 
ATOM     10  N   UNL     1       1.482   9.582  18.855  0.00  0.00    +0.000 NA
ATOM     11  C   UNL     1       1.165   8.956  20.001  0.00  0.00    +0.000 A 
ATOM     12  C   UNL     1       1.597   7.678  20.324  0.00  0.00    +0.000 A 
ATOM     13  C   UNL     1       2.414   7.019  19.391  0.00  0.00    +0.000 A 
ATOM     14  H   UNL     1       3.871   7.041  16.552  0.00  0.00    +0.000 HD
ENDROOT
BRANCH   1  17
ATOM     15  C   UNL     1       6.384   4.407  16.264  0.00  0.00    +0.000 C 
ATOM     16  O   UNL     1       7.259   4.405  17.123  0.00  0.00    +0.000 OA
ATOM     17  N   UNL     1       5.015   4.338  16.478  0.00  0.00    +0.000 N 
ATOM     18  H   UNL     1       4.438   4.138  15.676  0.00  0.00    +0.000 HD
BRANCH  15  19
ATOM     19  C   UNL     1       6.765   4.469  14.797  0.00  0.00    +0.000 C 
BRANCH  19  20
ATOM     20  C   UNL     1       5.576   4.119  13.907  0.00  0.00    +0.000 C 
BRANCH  20  22
ATOM     21  C   UNL     1       4.821   3.182  11.706  0.00  0.00    +0.000 C 
ATOM     22  C   UNL     1       6.018   3.472  12.598  0.00  0.00    +0.000 C 
ENDBRANCH  20  22
ENDBRANCH  19  20
ENDBRANCH  15  19
ENDBRANCH   1  17
BRANCH  11  23
ATOM     23  N   UNL     1       0.305   9.638  20.863  0.00  0.00    +0.000 N 
ATOM     24  H   UNL     1       0.324  10.617  20.588  0.00  0.00    +0.000 HD
ATOM     25  H   UNL     1       0.563   9.507  21.832  0.00  0.00    +0.000 HD
ENDBRANCH  11  23
TORSDOF 5
ENDMDL
MODEL 6
REMARK VINA RESULT:      -7.7      0.921      1.183
REMARK  Name = 
REMARK  6 active torsions:
REMARK  status: ('A' for Active; 'I' for Inactive)
REMARK    1  A    between atoms: C_1  and  C_2
REMARK    2  A    between atoms: C_2  and  C_3
REMARK    3  A    between atoms: C_3  and  C_4
REMARK    4  A    between atoms: C_4  and  C_5
REMARK    5  A    between atoms: N_7  and  C_8
REMARK    6  A    between atoms: C_18  and  N_19
REMARK                            x       y       z     vdW  Elec       q    Type
REMARK                         _______ _______ _______ _____ _____    ______ ____
ROOT
ATOM      1  C   UNL     1       5.974   3.921  16.318  0.00  0.00    +0.000 A 
ATOM      2  C   UNL     1       7.039   4.704  16.790  0.00  0.00    +0.000 A 
ATOM      3  C   UNL     1       7.098   5.159  18.105  0.00  0.00    +0.000 A 
ATOM      4  C   UNL     1       6.086   4.843  19.006  0.00  0.00    +0.000 A 
ATOM      5  C   UNL     1       4.993   4.069  18.574  0.00  0.00    +0.000 A 
ATOM      6  C   UNL     1       4.943   3.639  17.242  0.00  0.00    +0.000 A 
ATOM      7  N   UNL     1       3.768   2.925  17.116  0.00  0.00    +0.000 N 
ATOM      8  C   UNL     1       3.091   2.857  18.312  0.00  0.00    +0.000 A 
ATOM      9  C   UNL     1       1.901   2.230  18.657  0.00  0.00    +0.000 A 
ATOM     10  N   UNL     1       1.463   2.302  19.938  0.00  0.00    +0.000 NA
ATOM     11  C   UNL     1       2.177   2.981  20.851  0.00  0.00    +0.000 A 
ATOM     12  C   UNL     1       3.370   3.629  20.567  0.00  0.00    +0.000 A 
ATOM     13  C   UNL     1       3.839   3.565  19.245  0.00  0.00    +0.000 A 
ATOM     14  H   UNL     1       3.453   2.482  16.268  0.00  0.00    +0.000 HD
ENDROOT
BRANCH   1  17
ATOM     15  C   UNL     1       6.338   4.147  13.860  0.00  0.00    +0.000 C 
ATOM     16  O   UNL     1       6.983   5.190  13.847  0.00  0.00    +0.000 OA
ATOM     17  N   UNL     1       5.907   3.457  14.985  0.00  0.00    +0.000 N 
ATOM     18  H   UNL     1       5.575   2.515  14.841  0.00  0.00    +0.000 HD
BRANCH  15  19
ATOM     19  C   UNL     1       5.956   3.476  12.554  0.00  0.00    +0.000 C 
BRANCH  19  20
ATOM     20  C   UNL     1       7.123   3.484  11.573  0.00  0.00    +0.000 C 
BRANCH  20  22
ATOM     21  C   UNL     1       6.270   1.172  11.106  0.00  0.00    +0.000 C 
ATOM     22  C   UNL     1       7.494   2.075  11.120  0.00  0.00    +0.000 C 
ENDBRANCH  20  22
ENDBRANCH  19  20
ENDBRANCH  15  19
ENDBRANCH   1  17
BRANCH  11  23
ATOM     23  N   UNL     1       1.691   2.962  22.159  0.00  0.00    +0.000 N 
ATOM     24  H   UNL     1       2.345   3.495  22.726  0.00  0.00    +0.000 HD
ATOM     25  H   UNL     1       1.566   2.019  22.501  0.00  0.00    +0.000 HD
ENDBRANCH  11  23
TORSDOF 5
ENDMDL
MODEL 7
REMARK VINA RESULT:      -7.7      4.083      7.922
REMARK  Name = 
REMARK  6 active torsions:
REMARK  status: ('A' for Active; 'I' for Inactive)
REMARK    1  A    between atoms: C_1  and  C_2
REMARK    2  A    between atoms: C_2  and  C_3
REMARK    3  A    between atoms: C_3  and  C_4
REMARK    4  A    between atoms: C_4  and  C_5
REMARK    5  A    between atoms: N_7  and  C_8
REMARK    6  A    between atoms: C_18  and  N_19
REMARK                            x       y       z     vdW  Elec       q    Type
REMARK                         _______ _______ _______ _____ _____    ______ ____
ROOT
ATOM      1  C   UNL     1       2.192   5.364  19.477  0.00  0.00    +0.000 A 
ATOM      2  C   UNL     1       1.355   4.267  19.222  0.00  0.00    +0.000 A 
ATOM      3  C   UNL     1       1.612   3.362  18.195  0.00  0.00    +0.000 A 
ATOM      4  C   UNL     1       2.728   3.520  17.379  0.00  0.00    +0.000 A 
ATOM      5  C   UNL     1       3.589   4.612  17.592  0.00  0.00    +0.000 A 
ATOM      6  C   UNL     1       3.302   5.521  18.617  0.00  0.00    +0.000 A 
ATOM      7  N   UNL     1       4.301   6.474  18.572  0.00  0.00    +0.000 N 
ATOM      8  C   UNL     1       5.222   6.190  17.590  0.00  0.00    +0.000 A 
ATOM      9  C   UNL     1       6.386   6.844  17.209  0.00  0.00    +0.000 A 
ATOM     10  N   UNL     1       7.136   6.328  16.205  0.00  0.00    +0.000 NA
ATOM     11  C   UNL     1       6.743   5.200  15.589  0.00  0.00    +0.000 A 
ATOM     12  C   UNL     1       5.590   4.504  15.922  0.00  0.00    +0.000 A 
ATOM     13  C   UNL     1       4.800   5.025  16.961  0.00  0.00    +0.000 A 
ATOM     14  H   UNL     1       4.371   7.263  19.195  0.00  0.00    +0.000 HD
ENDROOT
BRANCH   1  17
ATOM     15  C   UNL     1       1.771   7.657  20.366  0.00  0.00    +0.000 C 
ATOM     16  O   UNL     1       1.663   8.267  19.307  0.00  0.00    +0.000 OA
ATOM     17  N   UNL     1       1.937   6.287  20.516  0.00  0.00    +0.000 N 
ATOM     18  H   UNL     1       1.799   5.911  21.442  0.00  0.00    +0.000 HD
BRANCH  15  19
ATOM     19  C   UNL     1       1.707   8.408  21.682  0.00  0.00    +0.000 C 
BRANCH  19  20
ATOM     20  C   UNL     1       0.658   9.514  21.630  0.00  0.00    +0.000 C 
BRANCH  20  22
ATOM     21  C   UNL     1      -1.037  10.606  23.123  0.00  0.00    +0.000 C 
ATOM     22  C   UNL     1      -0.460   9.283  22.643  0.00  0.00    +0.000 C 
ENDBRANCH  20  22
ENDBRANCH  19  20
ENDBRANCH  15  19
ENDBRANCH   1  17
BRANCH  11  23
ATOM     23  N   UNL     1       7.596   4.701  14.605  0.00  0.00    +0.000 N 
ATOM     24  H   UNL     1       7.753   3.719  14.818  0.00  0.00    +0.000 HD
ATOM     25  H   UNL     1       8.459   5.225  14.553  0.00  0.00    +0.000 HD
ENDBRANCH  11  23
TORSDOF 5
ENDMDL
MODEL 8
REMARK VINA RESULT:      -7.7      1.693      1.890
REMARK  Name = 
REMARK  6 active torsions:
REMARK  status: ('A' for Active; 'I' for Inactive)
REMARK    1  A    between atoms: C_1  and  C_2
REMARK    2  A    between atoms: C_2  and  C_3
REMARK    3  A    between atoms: C_3  and  C_4
REMARK    4  A    between atoms: C_4  and  C_5
REMARK    5  A    between atoms: N_7  and  C_8
REMARK    6  A    between atoms: C_18  and  N_19
REMARK                            x       y       z     vdW  Elec       q    Type
REMARK                         _______ _______ _______ _____ _____    ______ ____
ROOT
ATOM      1  C   UNL     1       4.567   5.696  16.470  0.00  0.00    +0.000 A 
ATOM      2  C   UNL     1       4.462   7.079  16.689  0.00  0.00    +0.000 A 
ATOM      3  C   UNL     1       3.754   7.606  17.766  0.00  0.00    +0.000 A 
ATOM      4  C   UNL     1       3.122   6.763  18.675  0.00  0.00    +0.000 A 
ATOM      5  C   UNL     1       3.192   5.370  18.489  0.00  0.00    +0.000 A 
ATOM      6  C   UNL     1       3.892   4.861  17.388  0.00  0.00    +0.000 A 
ATOM      7  N   UNL     1       3.775   3.487  17.465  0.00  0.00    +0.000 N 
ATOM      8  C   UNL     1       3.064   3.105  18.579  0.00  0.00    +0.000 A 
ATOM      9  C   UNL     1       2.730   1.849  19.066  0.00  0.00    +0.000 A 
ATOM     10  N   UNL     1       2.028   1.753  20.222  0.00  0.00    +0.000 NA
ATOM     11  C   UNL     1       1.660   2.868  20.875  0.00  0.00    +0.000 A 
ATOM     12  C   UNL     1       1.961   4.150  20.437  0.00  0.00    +0.000 A 
ATOM     13  C   UNL     1       2.688   4.268  19.241  0.00  0.00    +0.000 A 
ATOM     14  H   UNL     1       4.181   2.839  16.809  0.00  0.00    +0.000 HD
ENDROOT
BRANCH   1  17
ATOM     15  C   UNL     1       6.663   5.088  15.262  0.00  0.00    +0.000 C 
ATOM     16  O   UNL     1       7.482   5.340  16.139  0.00  0.00    +0.000 OA
ATOM     17  N   UNL     1       5.282   5.154  15.378  0.00  0.00    +0.000 N 
ATOM     18  H   UNL     1       4.742   4.717  14.646  0.00  0.00    +0.000 HD
BRANCH  15  19
ATOM     19  C   UNL     1       7.135   4.632  13.894  0.00  0.00    +0.000 C 
BRANCH  19  20
ATOM     20  C   UNL     1       6.123   3.689  13.252  0.00  0.00    +0.000 C 
BRANCH  20  22
ATOM     21  C   UNL     1       5.831   1.986  11.434  0.00  0.00    +0.000 C 
ATOM     22  C   UNL     1       6.562   3.250  11.858  0.00  0.00    +0.000 C 
ENDBRANCH  20  22
ENDBRANCH  19  20
ENDBRANCH  15  19
ENDBRANCH   1  17
BRANCH  11  23
ATOM     23  N   UNL     1       0.990   2.687  22.085  0.00  0.00    +0.000 N 
ATOM     24  H   UNL     1       0.063   2.335  21.861  0.00  0.00    +0.000 HD
ATOM     25  H   UNL     1       0.957   3.539  22.628  0.00  0.00    +0.000 HD
ENDBRANCH  11  23
TORSDOF 5
ENDMDL
MODEL 9
REMARK VINA RESULT:      -7.6      1.156      1.184
REMARK  Name = 
REMARK  6 active torsions:
REMARK  status: ('A' for Active; 'I' for Inactive)
REMARK    1  A    between atoms: C_1  and  C_2
REMARK    2  A    between atoms: C_2  and  C_3
REMARK    3  A    between atoms: C_3  and  C_4
REMARK    4  A    between atoms: C_4  and  C_5
REMARK    5  A    between atoms: N_7  and  C_8
REMARK    6  A    between atoms: C_18  and  N_19
REMARK                            x       y       z     vdW  Elec       q    Type
REMARK                         _______ _______ _______ _____ _____    ______ ____
ROOT
ATOM      1  C   UNL     1       6.376   5.350  16.642  0.00  0.00    +0.000 A 
ATOM      2  C   UNL     1       7.387   5.834  17.487  0.00  0.00    +0.000 A 
ATOM      3  C   UNL     1       7.242   5.868  18.872  0.00  0.00    +0.000 A 
ATOM      4  C   UNL     1       6.073   5.409  19.470  0.00  0.00    +0.000 A 
ATOM      5  C   UNL     1       5.028   4.924  18.661  0.00  0.00    +0.000 A 
ATOM      6  C   UNL     1       5.186   4.918  17.270  0.00  0.00    +0.000 A 
ATOM      7  N   UNL     1       4.011   4.407  16.755  0.00  0.00    +0.000 N 
ATOM      8  C   UNL     1       3.134   4.060  17.757  0.00  0.00    +0.000 A 
ATOM      9  C   UNL     1       1.867   3.492  17.710  0.00  0.00    +0.000 A 
ATOM     10  N   UNL     1       1.218   3.226  18.870  0.00  0.00    +0.000 NA
ATOM     11  C   UNL     1       1.801   3.519  20.044  0.00  0.00    +0.000 A 
ATOM     12  C   UNL     1       3.061   4.089  20.156  0.00  0.00    +0.000 A 
ATOM     13  C   UNL     1       3.749   4.372  18.964  0.00  0.00    +0.000 A 
ATOM     14  H   UNL     1       3.822   4.274  15.775  0.00  0.00    +0.000 HD
ENDROOT
BRANCH   1  17
ATOM     15  C   UNL     1       6.447   4.180  14.440  0.00  0.00    +0.000 C 
ATOM     16  O   UNL     1       6.104   3.058  14.796  0.00  0.00    +0.000 OA
ATOM     17  N   UNL     1       6.515   5.315  15.236  0.00  0.00    +0.000 N 
ATOM     18  H   UNL     1       6.607   6.200  14.761  0.00  0.00    +0.000 HD
BRANCH  15  19
ATOM     19  C   UNL     1       6.828   4.431  12.993  0.00  0.00    +0.000 C 
BRANCH  19  20
ATOM     20  C   UNL     1       6.097   3.472  12.060  0.00  0.00    +0.000 C 
BRANCH  20  22
ATOM     21  C   UNL     1       3.940   2.980  10.878  0.00  0.00    +0.000 C 
ATOM     22  C   UNL     1       4.603   3.774  11.993  0.00  0.00    +0.000 C 
ENDBRANCH  20  22
ENDBRANCH  19  20
ENDBRANCH  15  19
ENDBRANCH   1  17
BRANCH  11  23
ATOM     23  N   UNL     1       1.095   3.165  21.194  0.00  0.00    +0.000 N 
ATOM     24  H   UNL     1       1.156   2.154  21.280  0.00  0.00    +0.000 HD
ATOM     25  H   UNL     1       0.138   3.490  21.163  0.00  0.00    +0.000 HD
ENDBRANCH  11  23
TORSDOF 5
ENDMDL
