MODEL 1
REMARK VINA RESULT:      -8.2      0.000      0.000
REMARK  Name = 
REMARK  4 active torsions:
REMARK  status: ('A' for Active; 'I' for Inactive)
REMARK    1  A    between atoms: C_2  and  C_3
REMARK    2  A    between atoms: C_2  and  C_12
REMARK    3  A    between atoms: C_3  and  C_4
REMARK    4  A    between atoms: C_4  and  C_5
REMARK                            x       y       z     vdW  Elec       q    Type
REMARK                         _______ _______ _______ _____ _____    ______ ____
ROOT
ATOM      1  O   UNL     1       7.598   4.427  18.501  0.00  0.00    +0.000 OA
ATOM      2  C   UNL     1       6.542   4.798  17.987  0.00  0.00    +0.000 C 
ENDROOT
BRANCH   2   3
ATOM      3  C   UNL     1       5.266   4.503  18.605  0.00  0.00    +0.000 A 
ATOM      4  N   UNL     1       4.508   5.351  19.273  0.00  0.00    +0.000 NA
ATOM      5  C   UNL     1       3.418   4.620  19.689  0.00  0.00    +0.000 A 
ATOM      6  C   UNL     1       2.297   5.017  20.433  0.00  0.00    +0.000 A 
ATOM      7  C   UNL     1       1.327   4.055  20.751  0.00  0.00    +0.000 A 
ATOM      8  C   UNL     1       1.469   2.729  20.336  0.00  0.00    +0.000 A 
ATOM      9  C   UNL     1       2.571   2.319  19.578  0.00  0.00    +0.000 A 
ATOM     10  C   UNL     1       3.517   3.297  19.273  0.00  0.00    +0.000 A 
ATOM     11  N   UNL     1       4.685   3.259  18.560  0.00  0.00    +0.000 N 
ATOM     12  H   UNL     1       5.083   2.459  18.087  0.00  0.00    +0.000 HD
ENDBRANCH   2   3
BRANCH   2  13
ATOM     13  C   UNL     1       6.531   5.639  16.724  0.00  0.00    +0.000 C 
BRANCH  13  14
ATOM     14  C   UNL     1       5.488   5.112  15.739  0.00  0.00    +0.000 C 
BRANCH  14  15
ATOM     15  C   UNL     1       6.095   4.721  14.415  0.00  0.00    +0.000 A 
ATOM     16  C   UNL     1       7.260   5.350  13.953  0.00  0.00    +0.000 A 
ATOM     17  C   UNL     1       7.820   4.995  12.724  0.00  0.00    +0.000 A 
ATOM     18  C   UNL     1       7.217   4.011  11.942  0.00  0.00    +0.000 A 
ATOM     19  C   UNL     1       6.058   3.384  12.392  0.00  0.00    +0.000 A 
ATOM     20 CL   UNL     1       5.312   2.168  11.428  0.00  0.00    +0.000 Cl
ATOM     21  C   UNL     1       5.495   3.733  13.621  0.00  0.00    +0.000 A 
ENDBRANCH  14  15
ENDBRANCH  13  14
ENDBRANCH   2  13
TORSDOF 4
ENDMDL
MODEL 2
REMARK VINA RESULT:      -8.1      2.550      6.913
REMARK  Name = 
REMARK  4 active torsions:
REMARK  status: ('A' for Active; 'I' for Inactive)
REMARK    1  A    between atoms: C_2  and  C_3
REMARK    2  A    between atoms: C_2  and  C_12
REMARK    3  A    between atoms: C_3  and  C_4
REMARK    4  A    between atoms: C_4  and  C_5
REMARK                            x       y       z     vdW  Elec       q    Type
REMARK                         _______ _______ _______ _____ _____    ______ ____
ROOT
ATOM      1  O   UNL     1       6.676   4.340  18.540  0.00  0.00    +0.000 OA
ATOM      2  C   UNL     1       6.179   5.090  17.701  0.00  0.00    +0.000 C 
ENDROOT
BRANCH   2   3
ATOM      3  C   UNL     1       6.323   4.827  16.284  0.00  0.00    +0.000 A 
ATOM      4  N   UNL     1       5.652   3.933  15.585  0.00  0.00    +0.000 NA
ATOM      5  C   UNL     1       6.141   4.028  14.301  0.00  0.00    +0.000 A 
ATOM      6  C   UNL     1       5.786   3.316  13.146  0.00  0.00    +0.000 A 
ATOM      7  C   UNL     1       6.468   3.591  11.951  0.00  0.00    +0.000 A 
ATOM      8  C   UNL     1       7.479   4.555  11.907  0.00  0.00    +0.000 A 
ATOM      9  C   UNL     1       7.834   5.286  13.046  0.00  0.00    +0.000 A 
ATOM     10  C   UNL     1       7.136   4.996  14.218  0.00  0.00    +0.000 A 
ATOM     11  N   UNL     1       7.209   5.509  15.485  0.00  0.00    +0.000 N 
ATOM     12  H   UNL     1       7.816   6.250  15.807  0.00  0.00    +0.000 HD
ENDBRANCH   2   3
BRANCH   2  13
ATOM     13  C   UNL     1       5.334   6.284  18.109  0.00  0.00    +0.000 C 
BRANCH  13  14
ATOM     14  C   UNL     1       3.926   6.168  17.527  0.00  0.00    +0.000 C 
BRANCH  14  15
ATOM     15  C   UNL     1       2.956   5.535  18.493  0.00  0.00    +0.000 A 
ATOM     16  C   UNL     1       2.664   6.155  19.716  0.00  0.00    +0.000 A 
ATOM     17  C   UNL     1       1.772   5.567  20.615  0.00  0.00    +0.000 A 
ATOM     18  C   UNL     1       1.167   4.350  20.303  0.00  0.00    +0.000 A 
ATOM     19  C   UNL     1       1.455   3.726  19.092  0.00  0.00    +0.000 A 
ATOM     20 CL   UNL     1       0.710   2.224  18.704  0.00  0.00    +0.000 Cl
ATOM     21  C   UNL     1       2.345   4.310  18.188  0.00  0.00    +0.000 A 
ENDBRANCH  14  15
ENDBRANCH  13  14
ENDBRANCH   2  13
TORSDOF 4
ENDMDL
MODEL 3
REMARK VINA RESULT:      -8.0      2.948      6.880
REMARK  Name = 
REMARK  4 active torsions:
REMARK  status: ('A' for Active; 'I' for Inactive)
REMARK    1  A    between atoms: C_2  and  C_3
REMARK    2  A    between atoms: C_2  and  C_12
REMARK    3  A    between atoms: C_3  and  C_4
REMARK    4  A    between atoms: C_4  and  C_5
REMARK                            x       y       z     vdW  Elec       q    Type
REMARK                         _______ _______ _______ _____ _____    ______ ____
ROOT
ATOM      1  O   UNL     1       6.834   4.358  18.514  0.00  0.00    +0.000 OA
ATOM      2  C   UNL     1       6.202   5.015  17.687  0.00  0.00    +0.000 C 
ENDROOT
BRANCH   2   3
ATOM      3  C   UNL     1       6.360   4.780  16.266  0.00  0.00    +0.000 A 
ATOM      4  N   UNL     1       5.720   3.876  15.550  0.00  0.00    +0.000 NA
ATOM      5  C   UNL     1       6.212   4.008  14.270  0.00  0.00    +0.000 A 
ATOM      6  C   UNL     1       5.884   3.305  13.102  0.00  0.00    +0.000 A 
ATOM      7  C   UNL     1       6.562   3.620  11.915  0.00  0.00    +0.000 A 
ATOM      8  C   UNL     1       7.542   4.615  11.892  0.00  0.00    +0.000 A 
ATOM      9  C   UNL     1       7.870   5.339  13.043  0.00  0.00    +0.000 A 
ATOM     10  C   UNL     1       7.176   5.007  14.208  0.00  0.00    +0.000 A 
ATOM     11  N   UNL     1       7.228   5.501  15.483  0.00  0.00    +0.000 N 
ATOM     12  H   UNL     1       7.810   6.256  15.820  0.00  0.00    +0.000 HD
ENDBRANCH   2   3
BRANCH   2  13
ATOM     13  C   UNL     1       5.179   6.051  18.116  0.00  0.00    +0.000 C 
BRANCH  13  14
ATOM     14  C   UNL     1       3.809   5.731  17.518  0.00  0.00    +0.000 C 
BRANCH  14  15
ATOM     15  C   UNL     1       3.175   4.519  18.152  0.00  0.00    +0.000 A 
ATOM     16  C   UNL     1       2.742   3.446  17.360  0.00  0.00    +0.000 A 
ATOM     17  C   UNL     1       2.148   2.325  17.945  0.00  0.00    +0.000 A 
ATOM     18  C   UNL     1       1.976   2.269  19.328  0.00  0.00    +0.000 A 
ATOM     19  C   UNL     1       2.400   3.332  20.121  0.00  0.00    +0.000 A 
ATOM     20 CL   UNL     1       2.189   3.265  21.827  0.00  0.00    +0.000 Cl
ATOM     21  C   UNL     1       2.996   4.454  19.542  0.00  0.00    +0.000 A 
ENDBRANCH  14  15
ENDBRANCH  13  14
ENDBRANCH   2  13
TORSDOF 4
ENDMDL
MODEL 4
REMARK VINA RESULT:      -7.9      2.945      6.878
REMARK  Name = 
REMARK  4 active torsions:
REMARK  status: ('A' for Active; 'I' for Inactive)
REMARK    1  A    between atoms: C_2  and  C_3
REMARK    2  A    between atoms: C_2  and  C_12
REMARK    3  A    between atoms: C_3  and  C_4
REMARK    4  A    between atoms: C_4  and  C_5
REMARK                            x       y       z     vdW  Elec       q    Type
REMARK                         _______ _______ _______ _____ _____    ______ ____
ROOT
ATOM      1  O   UNL     1       7.771   4.883  18.327  0.00  0.00    +0.000 OA
ATOM      2  C   UNL     1       6.847   5.242  17.597  0.00  0.00    +0.000 C 
ENDROOT
BRANCH   2   3
ATOM      3  C   UNL     1       6.849   4.933  16.182  0.00  0.00    +0.000 A 
ATOM      4  N   UNL     1       7.670   5.429  15.277  0.00  0.00    +0.000 NA
ATOM      5  C   UNL     1       7.279   4.869  14.081  0.00  0.00    +0.000 A 
ATOM      6  C   UNL     1       7.803   5.039  12.792  0.00  0.00    +0.000 A 
ATOM      7  C   UNL     1       7.194   4.364  11.724  0.00  0.00    +0.000 A 
ATOM      8  C   UNL     1       6.088   3.536  11.936  0.00  0.00    +0.000 A 
ATOM      9  C   UNL     1       5.563   3.341  13.217  0.00  0.00    +0.000 A 
ATOM     10  C   UNL     1       6.191   4.021  14.261  0.00  0.00    +0.000 A 
ATOM     11  N   UNL     1       5.960   4.057  15.609  0.00  0.00    +0.000 N 
ATOM     12  H   UNL     1       5.249   3.549  16.118  0.00  0.00    +0.000 HD
ENDBRANCH   2   3
BRANCH   2  13
ATOM     13  C   UNL     1       5.633   5.962  18.156  0.00  0.00    +0.000 C 
BRANCH  13  14
ATOM     14  C   UNL     1       5.133   5.266  19.421  0.00  0.00    +0.000 C 
BRANCH  14  15
ATOM     15  C   UNL     1       3.765   4.660  19.240  0.00  0.00    +0.000 A 
ATOM     16  C   UNL     1       3.096   4.767  18.013  0.00  0.00    +0.000 A 
ATOM     17  C   UNL     1       1.825   4.213  17.845  0.00  0.00    +0.000 A 
ATOM     18  C   UNL     1       1.208   3.551  18.906  0.00  0.00    +0.000 A 
ATOM     19  C   UNL     1       1.864   3.443  20.129  0.00  0.00    +0.000 A 
ATOM     20 CL   UNL     1       1.103   2.626  21.439  0.00  0.00    +0.000 Cl
ATOM     21  C   UNL     1       3.135   3.994  20.302  0.00  0.00    +0.000 A 
ENDBRANCH  14  15
ENDBRANCH  13  14
ENDBRANCH   2  13
TORSDOF 4
ENDMDL
MODEL 5
REMARK VINA RESULT:      -7.8      3.023      6.945
REMARK  Name = 
REMARK  4 active torsions:
REMARK  status: ('A' for Active; 'I' for Inactive)
REMARK    1  A    between atoms: C_2  and  C_3
REMARK    2  A    between atoms: C_2  and  C_12
REMARK    3  A    between atoms: C_3  and  C_4
REMARK    4  A    between atoms: C_4  and  C_5
REMARK                            x       y       z     vdW  Elec       q    Type
REMARK                         _______ _______ _______ _____ _____    ______ ____
ROOT
ATOM      1  O   UNL     1       7.696   6.211  17.690  0.00  0.00    +0.000 OA
ATOM      2  C   UNL     1       6.598   5.945  17.201  0.00  0.00    +0.000 C 
ENDROOT
BRANCH   2   3
ATOM      3  C   UNL     1       6.489   5.358  15.881  0.00  0.00    +0.000 A 
ATOM      4  N   UNL     1       5.504   4.596  15.446  0.00  0.00    +0.000 NA
ATOM      5  C   UNL     1       5.845   4.259  14.155  0.00  0.00    +0.000 A 
ATOM      6  C   UNL     1       5.161   3.470  13.219  0.00  0.00    +0.000 A 
ATOM      7  C   UNL     1       5.748   3.257  11.963  0.00  0.00    +0.000 A 
ATOM      8  C   UNL     1       6.987   3.818  11.645  0.00  0.00    +0.000 A 
ATOM      9  C   UNL     1       7.675   4.622  12.560  0.00  0.00    +0.000 A 
ATOM     10  C   UNL     1       7.066   4.821  13.799  0.00  0.00    +0.000 A 
ATOM     11  N   UNL     1       7.436   5.540  14.904  0.00  0.00    +0.000 N 
ATOM     12  H   UNL     1       8.270   6.101  15.013  0.00  0.00    +0.000 HD
ENDBRANCH   2   3
BRANCH   2  13
ATOM     13  C   UNL     1       5.313   6.155  17.983  0.00  0.00    +0.000 C 
BRANCH  13  14
ATOM     14  C   UNL     1       5.135   5.051  19.025  0.00  0.00    +0.000 C 
BRANCH  14  15
ATOM     15  C   UNL     1       3.734   4.495  19.038  0.00  0.00    +0.000 A 
ATOM     16  C   UNL     1       2.921   4.589  17.900  0.00  0.00    +0.000 A 
ATOM     17  C   UNL     1       1.620   4.081  17.913  0.00  0.00    +0.000 A 
ATOM     18  C   UNL     1       1.117   3.480  19.066  0.00  0.00    +0.000 A 
ATOM     19  C   UNL     1       1.918   3.386  20.201  0.00  0.00    +0.000 A 
ATOM     20 CL   UNL     1       1.299   2.643  21.626  0.00  0.00    +0.000 Cl
ATOM     21  C   UNL     1       3.219   3.890  20.194  0.00  0.00    +0.000 A 
ENDBRANCH  14  15
ENDBRANCH  13  14
ENDBRANCH   2  13
TORSDOF 4
ENDMDL
MODEL 6
REMARK VINA RESULT:      -7.7      2.460      6.369
REMARK  Name = 
REMARK  4 active torsions:
REMARK  status: ('A' for Active; 'I' for Inactive)
REMARK    1  A    between atoms: C_2  and  C_3
REMARK    2  A    between atoms: C_2  and  C_12
REMARK    3  A    between atoms: C_3  and  C_4
REMARK    4  A    between atoms: C_4  and  C_5
REMARK                            x       y       z     vdW  Elec       q    Type
REMARK                         _______ _______ _______ _____ _____    ______ ____
ROOT
ATOM      1  O   UNL     1       6.735   7.427  17.186  0.00  0.00    +0.000 OA
ATOM      2  C   UNL     1       6.839   6.204  17.095  0.00  0.00    +0.000 C 
ENDROOT
BRANCH   2   3
ATOM      3  C   UNL     1       6.648   5.530  15.827  0.00  0.00    +0.000 A 
ATOM      4  N   UNL     1       5.603   4.803  15.480  0.00  0.00    +0.000 NA
ATOM      5  C   UNL     1       5.877   4.351  14.208  0.00  0.00    +0.000 A 
ATOM      6  C   UNL     1       5.113   3.541  13.356  0.00  0.00    +0.000 A 
ATOM      7  C   UNL     1       5.641   3.199  12.102  0.00  0.00    +0.000 A 
ATOM      8  C   UNL     1       6.901   3.655  11.706  0.00  0.00    +0.000 A 
ATOM      9  C   UNL     1       7.669   4.478  12.536  0.00  0.00    +0.000 A 
ATOM     10  C   UNL     1       7.117   4.806  13.775  0.00  0.00    +0.000 A 
ATOM     11  N   UNL     1       7.570   5.578  14.810  0.00  0.00    +0.000 N 
ATOM     12  H   UNL     1       8.440   6.091  14.851  0.00  0.00    +0.000 HD
ENDBRANCH   2   3
BRANCH   2  13
ATOM     13  C   UNL     1       7.241   5.354  18.287  0.00  0.00    +0.000 C 
BRANCH  13  14
ATOM     14  C   UNL     1       6.206   5.477  19.405  0.00  0.00    +0.000 C 
BRANCH  14  15
ATOM     15  C   UNL     1       4.844   4.988  18.982  0.00  0.00    +0.000 A 
ATOM     16  C   UNL     1       3.791   5.894  18.792  0.00  0.00    +0.000 A 
ATOM     17  C   UNL     1       2.526   5.442  18.408  0.00  0.00    +0.000 A 
ATOM     18  C   UNL     1       2.300   4.080  18.216  0.00  0.00    +0.000 A 
ATOM     19  C   UNL     1       3.341   3.174  18.406  0.00  0.00    +0.000 A 
ATOM     20 CL   UNL     1       3.064   1.492  18.170  0.00  0.00    +0.000 Cl
ATOM     21  C   UNL     1       4.607   3.619  18.788  0.00  0.00    +0.000 A 
ENDBRANCH  14  15
ENDBRANCH  13  14
ENDBRANCH   2  13
TORSDOF 4
ENDMDL
MODEL 7
REMARK VINA RESULT:      -7.6      2.544      6.878
REMARK  Name = 
REMARK  4 active torsions:
REMARK  status: ('A' for Active; 'I' for Inactive)
REMARK    1  A    between atoms: C_2  and  C_3
REMARK    2  A    between atoms: C_2  and  C_12
REMARK    3  A    between atoms: C_3  and  C_4
REMARK    4  A    between atoms: C_4  and  C_5
REMARK                            x       y       z     vdW  Elec       q    Type
REMARK                         _______ _______ _______ _____ _____    ______ ____
ROOT
ATOM      1  O   UNL     1       7.689   6.491  17.972  0.00  0.00    +0.000 OA
ATOM      2  C   UNL     1       6.792   5.765  17.543  0.00  0.00    +0.000 C 
ENDROOT
BRANCH   2   3
ATOM      3  C   UNL     1       6.803   5.292  16.174  0.00  0.00    +0.000 A 
ATOM      4  N   UNL     1       7.606   5.705  15.213  0.00  0.00    +0.000 NA
ATOM      5  C   UNL     1       7.233   4.995  14.093  0.00  0.00    +0.000 A 
ATOM      6  C   UNL     1       7.751   5.030  12.790  0.00  0.00    +0.000 A 
ATOM      7  C   UNL     1       7.164   4.213  11.812  0.00  0.00    +0.000 A 
ATOM      8  C   UNL     1       6.087   3.380  12.125  0.00  0.00    +0.000 A 
ATOM      9  C   UNL     1       5.570   3.319  13.423  0.00  0.00    +0.000 A 
ATOM     10  C   UNL     1       6.176   4.138  14.376  0.00  0.00    +0.000 A 
ATOM     11  N   UNL     1       5.944   4.325  15.712  0.00  0.00    +0.000 N 
ATOM     12  H   UNL     1       5.251   3.856  16.281  0.00  0.00    +0.000 HD
ENDBRANCH   2   3
BRANCH   2  13
ATOM     13  C   UNL     1       5.673   5.276  18.444  0.00  0.00    +0.000 C 
BRANCH  13  14
ATOM     14  C   UNL     1       4.325   5.808  17.961  0.00  0.00    +0.000 C 
BRANCH  14  15
ATOM     15  C   UNL     1       3.172   5.278  18.777  0.00  0.00    +0.000 A 
ATOM     16  C   UNL     1       2.780   5.923  19.957  0.00  0.00    +0.000 A 
ATOM     17  C   UNL     1       1.718   5.430  20.718  0.00  0.00    +0.000 A 
ATOM     18  C   UNL     1       1.041   4.281  20.308  0.00  0.00    +0.000 A 
ATOM     19  C   UNL     1       1.428   3.632  19.138  0.00  0.00    +0.000 A 
ATOM     20 CL   UNL     1       0.594   2.215  18.631  0.00  0.00    +0.000 Cl
ATOM     21  C   UNL     1       2.487   4.122  18.373  0.00  0.00    +0.000 A 
ENDBRANCH  14  15
ENDBRANCH  13  14
ENDBRANCH   2  13
TORSDOF 4
ENDMDL
MODEL 8
REMARK VINA RESULT:      -7.6      0.731      1.412
REMARK  Name = 
REMARK  4 active torsions:
REMARK  status: ('A' for Active; 'I' for Inactive)
REMARK    1  A    between atoms: C_2  and  C_3
REMARK    2  A    between atoms: C_2  and  C_12
REMARK    3  A    between atoms: C_3  and  C_4
REMARK    4  A    between atoms: C_4  and  C_5
REMARK                            x       y       z     vdW  Elec       q    Type
REMARK                         _______ _______ _______ _____ _____    ______ ____
ROOT
ATOM      1  O   UNL     1       7.668   6.069  19.035  0.00  0.00    +0.000 OA
ATOM      2  C   UNL     1       6.760   5.662  18.310  0.00  0.00    +0.000 C 
ENDROOT
BRANCH   2   3
ATOM      3  C   UNL     1       5.543   5.115  18.873  0.00  0.00    +0.000 A 
ATOM      4  N   UNL     1       5.349   3.864  19.245  0.00  0.00    +0.000 NA
ATOM      5  C   UNL     1       4.047   3.812  19.690  0.00  0.00    +0.000 A 
ATOM      6  C   UNL     1       3.313   2.733  20.204  0.00  0.00    +0.000 A 
ATOM      7  C   UNL     1       1.974   2.942  20.565  0.00  0.00    +0.000 A 
ATOM      8  C   UNL     1       1.380   4.199  20.422  0.00  0.00    +0.000 A 
ATOM      9  C   UNL     1       2.102   5.291  19.928  0.00  0.00    +0.000 A 
ATOM     10  C   UNL     1       3.433   5.054  19.581  0.00  0.00    +0.000 A 
ATOM     11  N   UNL     1       4.415   5.870  19.088  0.00  0.00    +0.000 N 
ATOM     12  H   UNL     1       4.343   6.859  18.890  0.00  0.00    +0.000 HD
ENDBRANCH   2   3
BRANCH   2  13
ATOM     13  C   UNL     1       6.842   5.780  16.799  0.00  0.00    +0.000 C 
BRANCH  13  14
ATOM     14  C   UNL     1       6.164   4.584  16.131  0.00  0.00    +0.000 C 
BRANCH  14  15
ATOM     15  C   UNL     1       6.513   4.469  14.669  0.00  0.00    +0.000 A 
ATOM     16  C   UNL     1       7.481   5.309  14.101  0.00  0.00    +0.000 A 
ATOM     17  C   UNL     1       7.801   5.208  12.745  0.00  0.00    +0.000 A 
ATOM     18  C   UNL     1       7.152   4.271  11.943  0.00  0.00    +0.000 A 
ATOM     19  C   UNL     1       6.187   3.435  12.499  0.00  0.00    +0.000 A 
ATOM     20 CL   UNL     1       5.385   2.278  11.510  0.00  0.00    +0.000 Cl
ATOM     21  C   UNL     1       5.864   3.530  13.854  0.00  0.00    +0.000 A 
ENDBRANCH  14  15
ENDBRANCH  13  14
ENDBRANCH   2  13
TORSDOF 4
ENDMDL
MODEL 9
REMARK VINA RESULT:      -7.6      1.017      1.128
REMARK  Name = 
REMARK  4 active torsions:
REMARK  status: ('A' for Active; 'I' for Inactive)
REMARK    1  A    between atoms: C_2  and  C_3
REMARK    2  A    between atoms: C_2  and  C_12
REMARK    3  A    between atoms: C_3  and  C_4
REMARK    4  A    between atoms: C_4  and  C_5
REMARK                            x       y       z     vdW  Elec       q    Type
REMARK                         _______ _______ _______ _____ _____    ______ ____
ROOT
ATOM      1  O   UNL     1       6.939   4.435  18.417  0.00  0.00    +0.000 OA
ATOM      2  C   UNL     1       5.845   4.331  17.861  0.00  0.00    +0.000 C 
ENDROOT
BRANCH   2   3
ATOM      3  C   UNL     1       4.654   3.987  18.610  0.00  0.00    +0.000 A 
ATOM      4  N   UNL     1       3.418   4.342  18.316  0.00  0.00    +0.000 NA
ATOM      5  C   UNL     1       2.636   3.808  19.316  0.00  0.00    +0.000 A 
ATOM      6  C   UNL     1       1.248   3.871  19.504  0.00  0.00    +0.000 A 
ATOM      7  C   UNL     1       0.695   3.256  20.638  0.00  0.00    +0.000 A 
ATOM      8  C   UNL     1       1.507   2.592  21.561  0.00  0.00    +0.000 A 
ATOM      9  C   UNL     1       2.891   2.505  21.380  0.00  0.00    +0.000 A 
ATOM     10  C   UNL     1       3.413   3.121  20.242  0.00  0.00    +0.000 A 
ATOM     11  N   UNL     1       4.686   3.224  19.752  0.00  0.00    +0.000 N 
ATOM     12  H   UNL     1       5.526   2.831  20.154  0.00  0.00    +0.000 HD
ENDBRANCH   2   3
BRANCH   2  13
ATOM     13  C   UNL     1       5.680   4.627  16.381  0.00  0.00    +0.000 C 
BRANCH  13  14
ATOM     14  C   UNL     1       7.022   5.016  15.760  0.00  0.00    +0.000 C 
BRANCH  14  15
ATOM     15  C   UNL     1       7.061   4.764  14.274  0.00  0.00    +0.000 A 
ATOM     16  C   UNL     1       7.854   5.562  13.438  0.00  0.00    +0.000 A 
ATOM     17  C   UNL     1       7.887   5.335  12.060  0.00  0.00    +0.000 A 
ATOM     18  C   UNL     1       7.121   4.311  11.504  0.00  0.00    +0.000 A 
ATOM     19  C   UNL     1       6.328   3.516  12.328  0.00  0.00    +0.000 A 
ATOM     20 CL   UNL     1       5.382   2.252  11.643  0.00  0.00    +0.000 Cl
ATOM     21  C   UNL     1       6.293   3.737  13.705  0.00  0.00    +0.000 A 
ENDBRANCH  14  15
ENDBRANCH  13  14
ENDBRANCH   2  13
TORSDOF 4
ENDMDL
