MODEL 1
REMARK VINA RESULT:      -6.7      0.000      0.000
REMARK  Name = 
REMARK  12 active torsions:
REMARK  status: ('A' for Active; 'I' for Inactive)
REMARK    1  A    between atoms: C_1  and  C_2
REMARK    2  A    between atoms: C_2  and  C_3
REMARK    3  A    between atoms: C_3  and  C_4
REMARK    4  A    between atoms: C_4  and  C_5
REMARK    5  A    between atoms: C_5  and  C_6
REMARK    6  A    between atoms: C_6  and  C_7
REMARK    7  A    between atoms: C_7  and  N_8
REMARK    8  A    between atoms: N_13  and  C_14
REMARK    9  A    between atoms: C_14  and  C_15
REMARK   10  A    between atoms: C_14  and  C_17
REMARK   11  A    between atoms: C_15  and  O_16
REMARK   12  A    between atoms: C_17  and  C_18
REMARK                            x       y       z     vdW  Elec       q    Type
REMARK                         _______ _______ _______ _____ _____    ______ ____
ROOT
ATOM      1  N   UNL     1       6.535   3.680  15.426  0.00  0.00    +0.000 NA
ATOM      2  C   UNL     1       7.370   4.391  16.409  0.00  0.00    +0.000 C 
ATOM      3  C   UNL     1       6.680   5.462  17.249  0.00  0.00    +0.000 C 
ATOM      4  C   UNL     1       5.902   4.890  18.414  0.00  0.00    +0.000 C 
ATOM      5  O   UNL     1       6.306   5.050  19.565  0.00  0.00    +0.000 OA
ATOM      6  N   UNL     1       4.719   4.221  18.120  0.00  0.00    +0.000 N 
ATOM      7  C   UNL     1       4.357   3.871  16.744  0.00  0.00    +0.000 C 
ATOM      8  C   UNL     1       5.415   2.971  16.073  0.00  0.00    +0.000 C 
ENDROOT
BRANCH   1   9
ATOM      9  C   UNL     1       6.078   4.502  14.296  0.00  0.00    +0.000 C 
BRANCH   9  10
ATOM     10  C   UNL     1       6.832   4.278  12.978  0.00  0.00    +0.000 C 
BRANCH  10  11
ATOM     11  C   UNL     1       5.941   4.128  11.742  0.00  0.00    +0.000 C 
BRANCH  11  12
ATOM     12  C   UNL     1       4.971   2.950  11.852  0.00  0.00    +0.000 C 
BRANCH  12  13
ATOM     13  C   UNL     1       3.587   3.306  11.316  0.00  0.00    +0.000 C 
BRANCH  13  15
ATOM     14  C   UNL     1       2.583   4.551   9.372  0.00  0.00    +0.000 C 
ATOM     15  C   UNL     1       3.640   3.552   9.807  0.00  0.00    +0.000 C 
ENDBRANCH  13  15
ENDBRANCH  12  13
ENDBRANCH  11  12
ENDBRANCH  10  11
ENDBRANCH   9  10
ENDBRANCH   1   9
BRANCH   6  16
ATOM     16  C   UNL     1       3.817   3.806  19.227  0.00  0.00    +0.000 C 
BRANCH  16  17
ATOM     17  C   UNL     1       3.964   2.308  19.578  0.00  0.00    +0.000 C 
BRANCH  17  18
ATOM     18  O   UNL     1       5.226   2.000  20.170  0.00  0.00    +0.000 OA
ATOM     19  H   UNL     1       5.573   1.226  19.695  0.00  0.00    +0.000 HD
ENDBRANCH  17  18
ENDBRANCH  16  17
BRANCH  16  20
ATOM     20  C   UNL     1       2.359   4.253  18.952  0.00  0.00    +0.000 C 
BRANCH  20  21
ATOM     21  C   UNL     1       2.113   5.716  19.246  0.00  0.00    +0.000 A 
ATOM     22  C   UNL     1       2.395   6.698  18.286  0.00  0.00    +0.000 A 
ATOM     23  C   UNL     1       2.257   8.052  18.597  0.00  0.00    +0.000 A 
ATOM     24  C   UNL     1       1.815   8.436  19.861  0.00  0.00    +0.000 A 
ATOM     25  C   UNL     1       1.491   7.467  20.809  0.00  0.00    +0.000 A 
ATOM     26  C   UNL     1       1.636   6.114  20.503  0.00  0.00    +0.000 A 
ENDBRANCH  20  21
ENDBRANCH  16  20
ENDBRANCH   6  16
TORSDOF 11
ENDMDL
MODEL 2
REMARK VINA RESULT:      -6.6      3.879      6.680
REMARK  Name = 
REMARK  12 active torsions:
REMARK  status: ('A' for Active; 'I' for Inactive)
REMARK    1  A    between atoms: C_1  and  C_2
REMARK    2  A    between atoms: C_2  and  C_3
REMARK    3  A    between atoms: C_3  and  C_4
REMARK    4  A    between atoms: C_4  and  C_5
REMARK    5  A    between atoms: C_5  and  C_6
REMARK    6  A    between atoms: C_6  and  C_7
REMARK    7  A    between atoms: C_7  and  N_8
REMARK    8  A    between atoms: N_13  and  C_14
REMARK    9  A    between atoms: C_14  and  C_15
REMARK   10  A    between atoms: C_14  and  C_17
REMARK   11  A    between atoms: C_15  and  O_16
REMARK   12  A    between atoms: C_17  and  C_18
REMARK                            x       y       z     vdW  Elec       q    Type
REMARK                         _______ _______ _______ _____ _____    ______ ____
ROOT
ATOM      1  N   UNL     1       7.842   7.100  17.621  0.00  0.00    +0.000 NA
ATOM      2  C   UNL     1       7.923   6.252  18.821  0.00  0.00    +0.000 C 
ATOM      3  C   UNL     1       6.606   5.925  19.520  0.00  0.00    +0.000 C 
ATOM      4  C   UNL     1       5.845   4.801  18.851  0.00  0.00    +0.000 C 
ATOM      5  O   UNL     1       5.756   3.704  19.400  0.00  0.00    +0.000 OA
ATOM      6  N   UNL     1       5.240   5.081  17.632  0.00  0.00    +0.000 N 
ATOM      7  C   UNL     1       5.519   6.322  16.904  0.00  0.00    +0.000 C 
ATOM      8  C   UNL     1       7.015   6.479  16.568  0.00  0.00    +0.000 C 
ENDROOT
BRANCH   1   9
ATOM      9  C   UNL     1       7.443   8.492  17.874  0.00  0.00    +0.000 C 
BRANCH   9  10
ATOM     10  C   UNL     1       8.599   9.498  17.957  0.00  0.00    +0.000 C 
BRANCH  10  11
ATOM     11  C   UNL     1       9.006   9.899  19.378  0.00  0.00    +0.000 C 
BRANCH  11  12
ATOM     12  C   UNL     1       9.505  11.343  19.463  0.00  0.00    +0.000 C 
BRANCH  12  13
ATOM     13  C   UNL     1      11.004  11.440  19.192  0.00  0.00    +0.000 C 
BRANCH  13  15
ATOM     14  C   UNL     1      10.047  12.931  17.404  0.00  0.00    +0.000 C 
ATOM     15  C   UNL     1      11.267  12.156  17.867  0.00  0.00    +0.000 C 
ENDBRANCH  13  15
ENDBRANCH  12  13
ENDBRANCH  11  12
ENDBRANCH  10  11
ENDBRANCH   9  10
ENDBRANCH   1   9
BRANCH   6  16
ATOM     16  C   UNL     1       4.323   4.082  17.021  0.00  0.00    +0.000 C 
BRANCH  16  17
ATOM     17  C   UNL     1       4.702   3.748  15.561  0.00  0.00    +0.000 C 
BRANCH  17  18
ATOM     18  O   UNL     1       5.990   3.143  15.449  0.00  0.00    +0.000 OA
ATOM     19  H   UNL     1       6.587   3.826  15.099  0.00  0.00    +0.000 HD
ENDBRANCH  17  18
ENDBRANCH  16  17
BRANCH  16  20
ATOM     20  C   UNL     1       2.843   4.497  17.214  0.00  0.00    +0.000 C 
BRANCH  20  21
ATOM     21  C   UNL     1       2.258   4.044  18.532  0.00  0.00    +0.000 A 
ATOM     22  C   UNL     1       2.087   4.948  19.591  0.00  0.00    +0.000 A 
ATOM     23  C   UNL     1       1.637   4.505  20.835  0.00  0.00    +0.000 A 
ATOM     24  C   UNL     1       1.332   3.159  21.028  0.00  0.00    +0.000 A 
ATOM     25  C   UNL     1       1.457   2.260  19.971  0.00  0.00    +0.000 A 
ATOM     26  C   UNL     1       1.914   2.699  18.728  0.00  0.00    +0.000 A 
ENDBRANCH  20  21
ENDBRANCH  16  20
ENDBRANCH   6  16
TORSDOF 11
ENDMDL
MODEL 3
REMARK VINA RESULT:      -6.5      1.329      1.893
REMARK  Name = 
REMARK  12 active torsions:
REMARK  status: ('A' for Active; 'I' for Inactive)
REMARK    1  A    between atoms: C_1  and  C_2
REMARK    2  A    between atoms: C_2  and  C_3
REMARK    3  A    between atoms: C_3  and  C_4
REMARK    4  A    between atoms: C_4  and  C_5
REMARK    5  A    between atoms: C_5  and  C_6
REMARK    6  A    between atoms: C_6  and  C_7
REMARK    7  A    between atoms: C_7  and  N_8
REMARK    8  A    between atoms: N_13  and  C_14
REMARK    9  A    between atoms: C_14  and  C_15
REMARK   10  A    between atoms: C_14  and  C_17
REMARK   11  A    between atoms: C_15  and  O_16
REMARK   12  A    between atoms: C_17  and  C_18
REMARK                            x       y       z     vdW  Elec       q    Type
REMARK                         _______ _______ _______ _____ _____    ______ ____
ROOT
ATOM      1  N   UNL     1       6.664   4.352  15.490  0.00  0.00    +0.000 NA
ATOM      2  C   UNL     1       7.395   4.321  16.768  0.00  0.00    +0.000 C 
ATOM      3  C   UNL     1       7.309   5.573  17.638  0.00  0.00    +0.000 C 
ATOM      4  C   UNL     1       6.028   5.648  18.441  0.00  0.00    +0.000 C 
ATOM      5  O   UNL     1       6.054   5.490  19.660  0.00  0.00    +0.000 OA
ATOM      6  N   UNL     1       4.859   5.933  17.746  0.00  0.00    +0.000 N 
ATOM      7  C   UNL     1       4.815   5.924  16.281  0.00  0.00    +0.000 C 
ATOM      8  C   UNL     1       5.217   4.556  15.693  0.00  0.00    +0.000 C 
ENDROOT
BRANCH   1   9
ATOM      9  C   UNL     1       7.209   5.282  14.490  0.00  0.00    +0.000 C 
BRANCH   9  10
ATOM     10  C   UNL     1       7.699   4.628  13.190  0.00  0.00    +0.000 C 
BRANCH  10  11
ATOM     11  C   UNL     1       6.597   4.291  12.182  0.00  0.00    +0.000 C 
BRANCH  11  12
ATOM     12  C   UNL     1       6.105   2.848  12.306  0.00  0.00    +0.000 C 
BRANCH  12  13
ATOM     13  C   UNL     1       5.031   2.525  11.270  0.00  0.00    +0.000 C 
BRANCH  13  15
ATOM     14  C   UNL     1       3.161   3.615   9.986  0.00  0.00    +0.000 C 
ATOM     15  C   UNL     1       3.921   3.576  11.299  0.00  0.00    +0.000 C 
ENDBRANCH  13  15
ENDBRANCH  12  13
ENDBRANCH  11  12
ENDBRANCH  10  11
ENDBRANCH   9  10
ENDBRANCH   1   9
BRANCH   6  16
ATOM     16  C   UNL     1       3.607   6.209  18.499  0.00  0.00    +0.000 C 
BRANCH  16  17
ATOM     17  C   UNL     1       2.708   4.959  18.627  0.00  0.00    +0.000 C 
BRANCH  17  18
ATOM     18  O   UNL     1       3.155   4.057  19.639  0.00  0.00    +0.000 OA
ATOM     19  H   UNL     1       4.127   4.096  19.634  0.00  0.00    +0.000 HD
ENDBRANCH  17  18
ENDBRANCH  16  17
BRANCH  16  20
ATOM     20  C   UNL     1       2.883   7.456  17.934  0.00  0.00    +0.000 C 
BRANCH  20  21
ATOM     21  C   UNL     1       1.998   8.149  18.946  0.00  0.00    +0.000 A 
ATOM     22  C   UNL     1       1.293   9.312  18.607  0.00  0.00    +0.000 A 
ATOM     23  C   UNL     1       0.556  10.000  19.572  0.00  0.00    +0.000 A 
ATOM     24  C   UNL     1       0.497   9.519  20.879  0.00  0.00    +0.000 A 
ATOM     25  C   UNL     1       1.158   8.341  21.216  0.00  0.00    +0.000 A 
ATOM     26  C   UNL     1       1.903   7.656  20.256  0.00  0.00    +0.000 A 
ENDBRANCH  20  21
ENDBRANCH  16  20
ENDBRANCH   6  16
TORSDOF 11
ENDMDL
MODEL 4
REMARK VINA RESULT:      -6.3      4.113      7.081
REMARK  Name = 
REMARK  12 active torsions:
REMARK  status: ('A' for Active; 'I' for Inactive)
REMARK    1  A    between atoms: C_1  and  C_2
REMARK    2  A    between atoms: C_2  and  C_3
REMARK    3  A    between atoms: C_3  and  C_4
REMARK    4  A    between atoms: C_4  and  C_5
REMARK    5  A    between atoms: C_5  and  C_6
REMARK    6  A    between atoms: C_6  and  C_7
REMARK    7  A    between atoms: C_7  and  N_8
REMARK    8  A    between atoms: N_13  and  C_14
REMARK    9  A    between atoms: C_14  and  C_15
REMARK   10  A    between atoms: C_14  and  C_17
REMARK   11  A    between atoms: C_15  and  O_16
REMARK   12  A    between atoms: C_17  and  C_18
REMARK                            x       y       z     vdW  Elec       q    Type
REMARK                         _______ _______ _______ _____ _____    ______ ____
ROOT
ATOM      1  N   UNL     1       8.000   7.263  17.410  0.00  0.00    +0.000 NA
ATOM      2  C   UNL     1       8.153   6.387  18.583  0.00  0.00    +0.000 C 
ATOM      3  C   UNL     1       6.893   6.104  19.396  0.00  0.00    +0.000 C 
ATOM      4  C   UNL     1       6.021   5.030  18.782  0.00  0.00    +0.000 C 
ATOM      5  O   UNL     1       5.932   3.926  19.318  0.00  0.00    +0.000 OA
ATOM      6  N   UNL     1       5.319   5.364  17.630  0.00  0.00    +0.000 N 
ATOM      7  C   UNL     1       5.586   6.607  16.902  0.00  0.00    +0.000 C 
ATOM      8  C   UNL     1       7.051   6.703  16.429  0.00  0.00    +0.000 C 
ENDROOT
BRANCH   1   9
ATOM      9  C   UNL     1       7.692   8.666  17.724  0.00  0.00    +0.000 C 
BRANCH   9  10
ATOM     10  C   UNL     1       8.721   9.377  18.614  0.00  0.00    +0.000 C 
BRANCH  10  11
ATOM     11  C   UNL     1       9.155  10.761  18.122  0.00  0.00    +0.000 C 
BRANCH  11  12
ATOM     12  C   UNL     1      10.277  11.363  18.969  0.00  0.00    +0.000 C 
BRANCH  12  13
ATOM     13  C   UNL     1      10.008  11.200  20.463  0.00  0.00    +0.000 C 
BRANCH  13  15
ATOM     14  C   UNL     1      10.803  13.588  20.458  0.00  0.00    +0.000 C 
ATOM     15  C   UNL     1       9.918  12.565  21.146  0.00  0.00    +0.000 C 
ENDBRANCH  13  15
ENDBRANCH  12  13
ENDBRANCH  11  12
ENDBRANCH  10  11
ENDBRANCH   9  10
ENDBRANCH   1   9
BRANCH   6  16
ATOM     16  C   UNL     1       4.303   4.421  17.091  0.00  0.00    +0.000 C 
BRANCH  16  17
ATOM     17  C   UNL     1       4.523   4.109  15.594  0.00  0.00    +0.000 C 
BRANCH  17  18
ATOM     18  O   UNL     1       5.783   3.491  15.337  0.00  0.00    +0.000 OA
ATOM     19  H   UNL     1       5.625   2.532  15.329  0.00  0.00    +0.000 HD
ENDBRANCH  17  18
ENDBRANCH  16  17
BRANCH  16  20
ATOM     20  C   UNL     1       2.869   4.893  17.438  0.00  0.00    +0.000 C 
BRANCH  20  21
ATOM     21  C   UNL     1       2.316   4.264  18.697  0.00  0.00    +0.000 A 
ATOM     22  C   UNL     1       1.545   3.094  18.636  0.00  0.00    +0.000 A 
ATOM     23  C   UNL     1       0.958   2.573  19.790  0.00  0.00    +0.000 A 
ATOM     24  C   UNL     1       1.153   3.203  21.018  0.00  0.00    +0.000 A 
ATOM     25  C   UNL     1       1.951   4.342  21.096  0.00  0.00    +0.000 A 
ATOM     26  C   UNL     1       2.533   4.869  19.943  0.00  0.00    +0.000 A 
ENDBRANCH  20  21
ENDBRANCH  16  20
ENDBRANCH   6  16
TORSDOF 11
ENDMDL
MODEL 5
REMARK VINA RESULT:      -6.1      3.610      6.220
REMARK  Name = 
REMARK  12 active torsions:
REMARK  status: ('A' for Active; 'I' for Inactive)
REMARK    1  A    between atoms: C_1  and  C_2
REMARK    2  A    between atoms: C_2  and  C_3
REMARK    3  A    between atoms: C_3  and  C_4
REMARK    4  A    between atoms: C_4  and  C_5
REMARK    5  A    between atoms: C_5  and  C_6
REMARK    6  A    between atoms: C_6  and  C_7
REMARK    7  A    between atoms: C_7  and  N_8
REMARK    8  A    between atoms: N_13  and  C_14
REMARK    9  A    between atoms: C_14  and  C_15
REMARK   10  A    between atoms: C_14  and  C_17
REMARK   11  A    between atoms: C_15  and  O_16
REMARK   12  A    between atoms: C_17  and  C_18
REMARK                            x       y       z     vdW  Elec       q    Type
REMARK                         _______ _______ _______ _____ _____    ______ ____
ROOT
ATOM      1  N   UNL     1       7.252   6.602  16.965  0.00  0.00    +0.000 NA
ATOM      2  C   UNL     1       7.684   5.722  18.063  0.00  0.00    +0.000 C 
ATOM      3  C   UNL     1       6.753   5.620  19.268  0.00  0.00    +0.000 C 
ATOM      4  C   UNL     1       5.596   4.671  19.042  0.00  0.00    +0.000 C 
ATOM      5  O   UNL     1       5.557   3.594  19.635  0.00  0.00    +0.000 OA
ATOM      6  N   UNL     1       4.590   5.090  18.179  0.00  0.00    +0.000 N 
ATOM      7  C   UNL     1       4.747   6.279  17.337  0.00  0.00    +0.000 C 
ATOM      8  C   UNL     1       5.962   6.171  16.394  0.00  0.00    +0.000 C 
ENDROOT
BRANCH   1   9
ATOM      9  C   UNL     1       7.249   8.037  17.289  0.00  0.00    +0.000 C 
BRANCH   9  10
ATOM     10  C   UNL     1       8.403   8.505  18.187  0.00  0.00    +0.000 C 
BRANCH  10  11
ATOM     11  C   UNL     1       8.718  10.002  18.106  0.00  0.00    +0.000 C 
BRANCH  11  12
ATOM     12  C   UNL     1       9.414  10.527  19.363  0.00  0.00    +0.000 C 
BRANCH  12  13
ATOM     13  C   UNL     1      10.671  11.324  19.022  0.00  0.00    +0.000 C 
BRANCH  13  15
ATOM     14  C   UNL     1      10.579  13.368  17.556  0.00  0.00    +0.000 C 
ATOM     15  C   UNL     1      10.360  12.819  18.954  0.00  0.00    +0.000 C 
ENDBRANCH  13  15
ENDBRANCH  12  13
ENDBRANCH  11  12
ENDBRANCH  10  11
ENDBRANCH   9  10
ENDBRANCH   1   9
BRANCH   6  16
ATOM     16  C   UNL     1       3.341   4.291  18.066  0.00  0.00    +0.000 C 
BRANCH  16  17
ATOM     17  C   UNL     1       3.493   3.093  17.101  0.00  0.00    +0.000 C 
BRANCH  17  18
ATOM     18  O   UNL     1       3.920   1.902  17.761  0.00  0.00    +0.000 OA
ATOM     19  H   UNL     1       3.539   1.929  18.655  0.00  0.00    +0.000 HD
ENDBRANCH  17  18
ENDBRANCH  16  17
BRANCH  16  20
ATOM     20  C   UNL     1       2.126   5.201  17.761  0.00  0.00    +0.000 C 
BRANCH  20  21
ATOM     21  C   UNL     1       1.974   6.348  18.734  0.00  0.00    +0.000 A 
ATOM     22  C   UNL     1       1.923   6.115  20.116  0.00  0.00    +0.000 A 
ATOM     23  C   UNL     1       1.686   7.166  21.003  0.00  0.00    +0.000 A 
ATOM     24  C   UNL     1       1.520   8.463  20.520  0.00  0.00    +0.000 A 
ATOM     25  C   UNL     1       1.611   8.712  19.152  0.00  0.00    +0.000 A 
ATOM     26  C   UNL     1       1.839   7.662  18.264  0.00  0.00    +0.000 A 
ENDBRANCH  20  21
ENDBRANCH  16  20
ENDBRANCH   6  16
TORSDOF 11
ENDMDL
MODEL 6
REMARK VINA RESULT:      -6.1      3.252      5.956
REMARK  Name = 
REMARK  12 active torsions:
REMARK  status: ('A' for Active; 'I' for Inactive)
REMARK    1  A    between atoms: C_1  and  C_2
REMARK    2  A    between atoms: C_2  and  C_3
REMARK    3  A    between atoms: C_3  and  C_4
REMARK    4  A    between atoms: C_4  and  C_5
REMARK    5  A    between atoms: C_5  and  C_6
REMARK    6  A    between atoms: C_6  and  C_7
REMARK    7  A    between atoms: C_7  and  N_8
REMARK    8  A    between atoms: N_13  and  C_14
REMARK    9  A    between atoms: C_14  and  C_15
REMARK   10  A    between atoms: C_14  and  C_17
REMARK   11  A    between atoms: C_15  and  O_16
REMARK   12  A    between atoms: C_17  and  C_18
REMARK                            x       y       z     vdW  Elec       q    Type
REMARK                         _______ _______ _______ _____ _____    ______ ____
ROOT
ATOM      1  N   UNL     1       7.470   5.631  16.973  0.00  0.00    +0.000 NA
ATOM      2  C   UNL     1       7.709   5.156  18.346  0.00  0.00    +0.000 C 
ATOM      3  C   UNL     1       6.584   5.375  19.353  0.00  0.00    +0.000 C 
ATOM      4  C   UNL     1       5.487   4.336  19.249  0.00  0.00    +0.000 C 
ATOM      5  O   UNL     1       5.351   3.492  20.133  0.00  0.00    +0.000 OA
ATOM      6  N   UNL     1       4.645   4.411  18.146  0.00  0.00    +0.000 N 
ATOM      7  C   UNL     1       4.941   5.292  17.013  0.00  0.00    +0.000 C 
ATOM      8  C   UNL     1       6.301   4.971  16.362  0.00  0.00    +0.000 C 
ENDROOT
BRANCH   1   9
ATOM      9  C   UNL     1       7.405   7.093  16.829  0.00  0.00    +0.000 C 
BRANCH   9  10
ATOM     10  C   UNL     1       8.092   7.891  17.946  0.00  0.00    +0.000 C 
BRANCH  10  11
ATOM     11  C   UNL     1       8.230   9.392  17.677  0.00  0.00    +0.000 C 
BRANCH  11  12
ATOM     12  C   UNL     1       8.997  10.121  18.781  0.00  0.00    +0.000 C 
BRANCH  12  13
ATOM     13  C   UNL     1       9.098  11.620  18.505  0.00  0.00    +0.000 C 
BRANCH  13  15
ATOM     14  C   UNL     1      10.614  11.621  20.514  0.00  0.00    +0.000 C 
ATOM     15  C   UNL     1       9.530  12.373  19.764  0.00  0.00    +0.000 C 
ENDBRANCH  13  15
ENDBRANCH  12  13
ENDBRANCH  11  12
ENDBRANCH  10  11
ENDBRANCH   9  10
ENDBRANCH   1   9
BRANCH   6  16
ATOM     16  C   UNL     1       3.439   3.544  18.085  0.00  0.00    +0.000 C 
BRANCH  16  17
ATOM     17  C   UNL     1       3.646   2.307  17.182  0.00  0.00    +0.000 C 
BRANCH  17  18
ATOM     18  O   UNL     1       4.043   1.148  17.915  0.00  0.00    +0.000 OA
ATOM     19  H   UNL     1       3.226   0.680  18.156  0.00  0.00    +0.000 HD
ENDBRANCH  17  18
ENDBRANCH  16  17
BRANCH  16  20
ATOM     20  C   UNL     1       2.176   4.374  17.744  0.00  0.00    +0.000 C 
BRANCH  20  21
ATOM     21  C   UNL     1       1.977   5.568  18.651  0.00  0.00    +0.000 A 
ATOM     22  C   UNL     1       2.155   6.873  18.169  0.00  0.00    +0.000 A 
ATOM     23  C   UNL     1       2.065   7.964  19.034  0.00  0.00    +0.000 A 
ATOM     24  C   UNL     1       1.774   7.765  20.382  0.00  0.00    +0.000 A 
ATOM     25  C   UNL     1       1.553   6.476  20.862  0.00  0.00    +0.000 A 
ATOM     26  C   UNL     1       1.651   5.382  20.001  0.00  0.00    +0.000 A 
ENDBRANCH  20  21
ENDBRANCH  16  20
ENDBRANCH   6  16
TORSDOF 11
ENDMDL
MODEL 7
REMARK VINA RESULT:      -6.1      3.088      5.858
REMARK  Name = 
REMARK  12 active torsions:
REMARK  status: ('A' for Active; 'I' for Inactive)
REMARK    1  A    between atoms: C_1  and  C_2
REMARK    2  A    between atoms: C_2  and  C_3
REMARK    3  A    between atoms: C_3  and  C_4
REMARK    4  A    between atoms: C_4  and  C_5
REMARK    5  A    between atoms: C_5  and  C_6
REMARK    6  A    between atoms: C_6  and  C_7
REMARK    7  A    between atoms: C_7  and  N_8
REMARK    8  A    between atoms: N_13  and  C_14
REMARK    9  A    between atoms: C_14  and  C_15
REMARK   10  A    between atoms: C_14  and  C_17
REMARK   11  A    between atoms: C_15  and  O_16
REMARK   12  A    between atoms: C_17  and  C_18
REMARK                            x       y       z     vdW  Elec       q    Type
REMARK                         _______ _______ _______ _____ _____    ______ ____
ROOT
ATOM      1  N   UNL     1       7.455   5.269  16.852  0.00  0.00    +0.000 NA
ATOM      2  C   UNL     1       7.703   4.910  18.258  0.00  0.00    +0.000 C 
ATOM      3  C   UNL     1       6.589   5.225  19.253  0.00  0.00    +0.000 C 
ATOM      4  C   UNL     1       5.482   4.193  19.248  0.00  0.00    +0.000 C 
ATOM      5  O   UNL     1       5.346   3.428  20.202  0.00  0.00    +0.000 OA
ATOM      6  N   UNL     1       4.630   4.182  18.149  0.00  0.00    +0.000 N 
ATOM      7  C   UNL     1       4.923   4.960  16.943  0.00  0.00    +0.000 C 
ATOM      8  C   UNL     1       6.274   4.571  16.310  0.00  0.00    +0.000 C 
ENDROOT
BRANCH   1   9
ATOM      9  C   UNL     1       7.403   6.714  16.584  0.00  0.00    +0.000 C 
BRANCH   9  10
ATOM     10  C   UNL     1       7.691   7.613  17.795  0.00  0.00    +0.000 C 
BRANCH  10  11
ATOM     11  C   UNL     1       8.309   8.973  17.457  0.00  0.00    +0.000 C 
BRANCH  11  12
ATOM     12  C   UNL     1       8.917   9.663  18.678  0.00  0.00    +0.000 C 
BRANCH  12  13
ATOM     13  C   UNL     1       9.261  11.123  18.389  0.00  0.00    +0.000 C 
BRANCH  13  15
ATOM     14  C   UNL     1      10.328  11.689  20.598  0.00  0.00    +0.000 C 
ATOM     15  C   UNL     1      10.551  11.525  19.106  0.00  0.00    +0.000 C 
ENDBRANCH  13  15
ENDBRANCH  12  13
ENDBRANCH  11  12
ENDBRANCH  10  11
ENDBRANCH   9  10
ENDBRANCH   1   9
BRANCH   6  16
ATOM     16  C   UNL     1       3.415   3.326  18.173  0.00  0.00    +0.000 C 
BRANCH  16  17
ATOM     17  C   UNL     1       3.550   2.083  17.264  0.00  0.00    +0.000 C 
BRANCH  17  18
ATOM     18  O   UNL     1       3.930   0.911  17.983  0.00  0.00    +0.000 OA
ATOM     19  H   UNL     1       4.880   0.995  18.169  0.00  0.00    +0.000 HD
ENDBRANCH  17  18
ENDBRANCH  16  17
BRANCH  16  20
ATOM     20  C   UNL     1       2.139   4.166  17.914  0.00  0.00    +0.000 C 
BRANCH  20  21
ATOM     21  C   UNL     1       2.075   5.432  18.738  0.00  0.00    +0.000 A 
ATOM     22  C   UNL     1       1.721   5.388  20.094  0.00  0.00    +0.000 A 
ATOM     23  C   UNL     1       1.569   6.568  20.824  0.00  0.00    +0.000 A 
ATOM     24  C   UNL     1       1.790   7.801  20.213  0.00  0.00    +0.000 A 
ATOM     25  C   UNL     1       2.184   7.853  18.877  0.00  0.00    +0.000 A 
ATOM     26  C   UNL     1       2.328   6.676  18.143  0.00  0.00    +0.000 A 
ENDBRANCH  20  21
ENDBRANCH  16  20
ENDBRANCH   6  16
TORSDOF 11
ENDMDL
MODEL 8
REMARK VINA RESULT:      -6.1      1.176      1.755
REMARK  Name = 
REMARK  12 active torsions:
REMARK  status: ('A' for Active; 'I' for Inactive)
REMARK    1  A    between atoms: C_1  and  C_2
REMARK    2  A    between atoms: C_2  and  C_3
REMARK    3  A    between atoms: C_3  and  C_4
REMARK    4  A    between atoms: C_4  and  C_5
REMARK    5  A    between atoms: C_5  and  C_6
REMARK    6  A    between atoms: C_6  and  C_7
REMARK    7  A    between atoms: C_7  and  N_8
REMARK    8  A    between atoms: N_13  and  C_14
REMARK    9  A    between atoms: C_14  and  C_15
REMARK   10  A    between atoms: C_14  and  C_17
REMARK   11  A    between atoms: C_15  and  O_16
REMARK   12  A    between atoms: C_17  and  C_18
REMARK                            x       y       z     vdW  Elec       q    Type
REMARK                         _______ _______ _______ _____ _____    ______ ____
ROOT
ATOM      1  N   UNL     1       7.354   4.238  16.213  0.00  0.00    +0.000 NA
ATOM      2  C   UNL     1       7.646   4.599  17.610  0.00  0.00    +0.000 C 
ATOM      3  C   UNL     1       6.563   5.370  18.360  0.00  0.00    +0.000 C 
ATOM      4  C   UNL     1       5.458   4.480  18.884  0.00  0.00    +0.000 C 
ATOM      5  O   UNL     1       5.352   4.273  20.092  0.00  0.00    +0.000 OA
ATOM      6  N   UNL     1       4.571   3.952  17.952  0.00  0.00    +0.000 N 
ATOM      7  C   UNL     1       4.826   4.048  16.512  0.00  0.00    +0.000 C 
ATOM      8  C   UNL     1       6.157   3.382  16.108  0.00  0.00    +0.000 C 
ENDROOT
BRANCH   1   9
ATOM      9  C   UNL     1       7.292   5.374  15.282  0.00  0.00    +0.000 C 
BRANCH   9  10
ATOM     10  C   UNL     1       7.911   5.121  13.901  0.00  0.00    +0.000 C 
BRANCH  10  11
ATOM     11  C   UNL     1       6.916   5.129  12.736  0.00  0.00    +0.000 C 
BRANCH  11  12
ATOM     12  C   UNL     1       5.918   3.972  12.805  0.00  0.00    +0.000 C 
BRANCH  12  13
ATOM     13  C   UNL     1       6.378   2.778  11.972  0.00  0.00    +0.000 C 
BRANCH  13  15
ATOM     14  C   UNL     1       4.013   3.068  11.160  0.00  0.00    +0.000 C 
ATOM     15  C   UNL     1       5.188   2.114  11.278  0.00  0.00    +0.000 C 
ENDBRANCH  13  15
ENDBRANCH  12  13
ENDBRANCH  11  12
ENDBRANCH  10  11
ENDBRANCH   9  10
ENDBRANCH   1   9
BRANCH   6  16
ATOM     16  C   UNL     1       3.358   3.232  18.420  0.00  0.00    +0.000 C 
BRANCH  16  17
ATOM     17  C   UNL     1       3.300   1.777  17.901  0.00  0.00    +0.000 C 
BRANCH  17  18
ATOM     18  O   UNL     1       4.294   0.940  18.490  0.00  0.00    +0.000 OA
ATOM     19  H   UNL     1       4.999   0.839  17.829  0.00  0.00    +0.000 HD
ENDBRANCH  17  18
ENDBRANCH  16  17
BRANCH  16  20
ATOM     20  C   UNL     1       2.079   4.058  18.137  0.00  0.00    +0.000 C 
BRANCH  20  21
ATOM     21  C   UNL     1       2.058   5.395  18.843  0.00  0.00    +0.000 A 
ATOM     22  C   UNL     1       1.754   5.482  20.209  0.00  0.00    +0.000 A 
ATOM     23  C   UNL     1       1.642   6.726  20.832  0.00  0.00    +0.000 A 
ATOM     24  C   UNL     1       1.854   7.894  20.101  0.00  0.00    +0.000 A 
ATOM     25  C   UNL     1       2.199   7.817  18.754  0.00  0.00    +0.000 A 
ATOM     26  C   UNL     1       2.303   6.576  18.127  0.00  0.00    +0.000 A 
ENDBRANCH  20  21
ENDBRANCH  16  20
ENDBRANCH   6  16
TORSDOF 11
ENDMDL
MODEL 9
REMARK VINA RESULT:      -6.1      2.233      8.452
REMARK  Name = 
REMARK  12 active torsions:
REMARK  status: ('A' for Active; 'I' for Inactive)
REMARK    1  A    between atoms: C_1  and  C_2
REMARK    2  A    between atoms: C_2  and  C_3
REMARK    3  A    between atoms: C_3  and  C_4
REMARK    4  A    between atoms: C_4  and  C_5
REMARK    5  A    between atoms: C_5  and  C_6
REMARK    6  A    between atoms: C_6  and  C_7
REMARK    7  A    between atoms: C_7  and  N_8
REMARK    8  A    between atoms: N_13  and  C_14
REMARK    9  A    between atoms: C_14  and  C_15
REMARK   10  A    between atoms: C_14  and  C_17
REMARK   11  A    between atoms: C_15  and  O_16
REMARK   12  A    between atoms: C_17  and  C_18
REMARK                            x       y       z     vdW  Elec       q    Type
REMARK                         _______ _______ _______ _____ _____    ______ ____
ROOT
ATOM      1  N   UNL     1       2.552   5.395  20.126  0.00  0.00    +0.000 NA
ATOM      2  C   UNL     1       2.108   4.110  19.562  0.00  0.00    +0.000 C 
ATOM      3  C   UNL     1       2.118   3.988  18.041  0.00  0.00    +0.000 C 
ATOM      4  C   UNL     1       3.492   3.690  17.481  0.00  0.00    +0.000 C 
ATOM      5  O   UNL     1       3.738   2.582  17.006  0.00  0.00    +0.000 OA
ATOM      6  N   UNL     1       4.423   4.722  17.501  0.00  0.00    +0.000 N 
ATOM      7  C   UNL     1       4.178   5.962  18.242  0.00  0.00    +0.000 C 
ATOM      8  C   UNL     1       3.942   5.708  19.744  0.00  0.00    +0.000 C 
ENDROOT
BRANCH   1   9
ATOM      9  C   UNL     1       1.650   6.527  19.867  0.00  0.00    +0.000 C 
BRANCH   9  10
ATOM     10  C   UNL     1       1.604   7.592  20.972  0.00  0.00    +0.000 C 
BRANCH  10  11
ATOM     11  C   UNL     1       0.715   8.800  20.668  0.00  0.00    +0.000 C 
BRANCH  11  12
ATOM     12  C   UNL     1       0.754   9.854  21.776  0.00  0.00    +0.000 C 
BRANCH  12  13
ATOM     13  C   UNL     1       0.452  11.251  21.237  0.00  0.00    +0.000 C 
BRANCH  13  15
ATOM     14  C   UNL     1      -1.251  10.971  23.069  0.00  0.00    +0.000 C 
ATOM     15  C   UNL     1      -0.802  11.825  21.898  0.00  0.00    +0.000 C 
ENDBRANCH  13  15
ENDBRANCH  12  13
ENDBRANCH  11  12
ENDBRANCH  10  11
ENDBRANCH   9  10
ENDBRANCH   1   9
BRANCH   6  16
ATOM     16  C   UNL     1       5.721   4.553  16.795  0.00  0.00    +0.000 C 
BRANCH  16  17
ATOM     17  C   UNL     1       6.926   4.571  17.762  0.00  0.00    +0.000 C 
BRANCH  17  18
ATOM     18  O   UNL     1       8.127   4.095  17.158  0.00  0.00    +0.000 OA
ATOM     19  H   UNL     1       8.706   3.803  17.883  0.00  0.00    +0.000 HD
ENDBRANCH  17  18
ENDBRANCH  16  17
BRANCH  16  20
ATOM     20  C   UNL     1       5.842   5.545  15.611  0.00  0.00    +0.000 C 
BRANCH  20  21
ATOM     21  C   UNL     1       6.260   4.887  14.315  0.00  0.00    +0.000 A 
ATOM     22  C   UNL     1       7.433   5.281  13.655  0.00  0.00    +0.000 A 
ATOM     23  C   UNL     1       7.762   4.738  12.412  0.00  0.00    +0.000 A 
ATOM     24  C   UNL     1       6.934   3.782  11.827  0.00  0.00    +0.000 A 
ATOM     25  C   UNL     1       5.789   3.353  12.493  0.00  0.00    +0.000 A 
ATOM     26  C   UNL     1       5.453   3.899  13.732  0.00  0.00    +0.000 A 
ENDBRANCH  20  21
ENDBRANCH  16  20
ENDBRANCH   6  16
TORSDOF 11
ENDMDL
