MODEL 1
REMARK VINA RESULT:      -7.4      0.000      0.000
REMARK  Name = 
REMARK  14 active torsions:
REMARK  status: ('A' for Active; 'I' for Inactive)
REMARK    1  A    between atoms: C_1  and  C_2
REMARK    2  A    between atoms: C_2  and  C_11
REMARK    3  A    between atoms: C_3  and  C_4
REMARK    4  A    between atoms: C_4  and  S_5
REMARK    5  A    between atoms: S_5  and  C_6
REMARK    6  A    between atoms: C_6  and  C_7
REMARK    7  A    between atoms: C_7  and  C_8
REMARK    8  A    between atoms: C_8  and  O_10
REMARK    9  A    between atoms: C_11  and  C_12
REMARK   10  A    between atoms: C_12  and  N_13
REMARK   11  A    between atoms: C_15  and  C_16
REMARK   12  A    between atoms: C_16  and  C_17
REMARK   13  A    between atoms: C_17  and  C_18
REMARK   14  A    between atoms: C_21  and  C_22
REMARK                            x       y       z     vdW  Elec       q    Type
REMARK                         _______ _______ _______ _____ _____    ______ ____
ROOT
ATOM      1  N   UNL     1       7.696   7.767  17.550  0.00  0.00    +0.000 N 
ATOM      2  C   UNL     1       7.253   6.876  18.473  0.00  0.00    +0.000 A 
ATOM      3  C   UNL     1       7.069   5.714  17.755  0.00  0.00    +0.000 A 
ATOM      4  N   UNL     1       7.470   5.921  16.463  0.00  0.00    +0.000 NA
ATOM      5  N   UNL     1       7.868   7.182  16.352  0.00  0.00    +0.000 NA
ENDROOT
BRANCH   1   6
ATOM      6  C   UNL     1       7.940   9.174  17.771  0.00  0.00    +0.000 C 
BRANCH   6   7
ATOM      7  C   UNL     1       8.916   9.449  18.914  0.00  0.00    +0.000 C 
BRANCH   7   9
ATOM      8  C   UNL     1      10.547  11.122  19.950  0.00  0.00    +0.000 C 
ATOM      9  C   UNL     1       9.509  10.847  18.897  0.00  0.00    +0.000 C 
ATOM     10  C   UNL     1       9.155  11.725  17.935  0.00  0.00    +0.000 C 
BRANCH  10  11
ATOM     11  C   UNL     1       9.669  13.125  17.759  0.00  0.00    +0.000 C 
BRANCH  11  12
ATOM     12  S   UNL     1       8.565  14.263  18.651  0.00  0.00    +0.000 S 
BRANCH  12  13
ATOM     13  C   UNL     1       9.787  15.519  19.145  0.00  0.00    +0.000 C 
BRANCH  13  14
ATOM     14  C   UNL     1      10.920  15.508  18.129  0.00  0.00    +0.000 C 
BRANCH  14  15
ATOM     15  C   UNL     1      10.659  16.492  17.019  0.00  0.00    +0.000 C 
ATOM     16  O   UNL     1      10.407  17.672  17.170  0.00  0.00    +0.000 OA
BRANCH  15  17
ATOM     17  O   UNL     1      10.720  15.914  15.795  0.00  0.00    +0.000 OA
ATOM     18  H   UNL     1       9.864  15.575  15.472  0.00  0.00    +0.000 HD
ENDBRANCH  15  17
ENDBRANCH  14  15
ENDBRANCH  13  14
ENDBRANCH  12  13
ENDBRANCH  11  12
ENDBRANCH  10  11
ENDBRANCH   7   9
ENDBRANCH   6   7
ENDBRANCH   1   6
BRANCH   3  19
ATOM     19  C   UNL     1       6.494   4.427  18.214  0.00  0.00    +0.000 C 
BRANCH  19  20
ATOM     20  C   UNL     1       5.064   4.270  17.690  0.00  0.00    +0.000 C 
BRANCH  20  21
ATOM     21  C   UNL     1       4.152   5.354  18.150  0.00  0.00    +0.000 A 
ATOM     22  C   UNL     1       3.910   6.449  17.322  0.00  0.00    +0.000 A 
ATOM     23  C   UNL     1       3.077   7.469  17.759  0.00  0.00    +0.000 A 
ATOM     24  C   UNL     1       2.444   7.412  19.014  0.00  0.00    +0.000 A 
ATOM     25  C   UNL     1       2.697   6.300  19.829  0.00  0.00    +0.000 A 
ATOM     26  C   UNL     1       3.548   5.282  19.406  0.00  0.00    +0.000 A 
BRANCH  24  27
ATOM     27  C   UNL     1       1.549   8.502  19.436  0.00  0.00    +0.000 A 
ATOM     28  C   UNL     1       1.096   8.579  20.765  0.00  0.00    +0.000 A 
ATOM     29  C   UNL     1       0.192   9.558  21.166  0.00  0.00    +0.000 A 
ATOM     30  C   UNL     1      -0.254  10.501  20.251  0.00  0.00    +0.000 A 
ATOM     31  C   UNL     1       0.204  10.473  18.936  0.00  0.00    +0.000 A 
ATOM     32  C   UNL     1       1.096   9.478  18.532  0.00  0.00    +0.000 A 
ENDBRANCH  24  27
ENDBRANCH  20  21
ENDBRANCH  19  20
ENDBRANCH   3  19
TORSDOF 13
ENDMDL
MODEL 2
REMARK VINA RESULT:      -7.3      2.972      4.422
REMARK  Name = 
REMARK  14 active torsions:
REMARK  status: ('A' for Active; 'I' for Inactive)
REMARK    1  A    between atoms: C_1  and  C_2
REMARK    2  A    between atoms: C_2  and  C_11
REMARK    3  A    between atoms: C_3  and  C_4
REMARK    4  A    between atoms: C_4  and  S_5
REMARK    5  A    between atoms: S_5  and  C_6
REMARK    6  A    between atoms: C_6  and  C_7
REMARK    7  A    between atoms: C_7  and  C_8
REMARK    8  A    between atoms: C_8  and  O_10
REMARK    9  A    between atoms: C_11  and  C_12
REMARK   10  A    between atoms: C_12  and  N_13
REMARK   11  A    between atoms: C_15  and  C_16
REMARK   12  A    between atoms: C_16  and  C_17
REMARK   13  A    between atoms: C_17  and  C_18
REMARK   14  A    between atoms: C_21  and  C_22
REMARK                            x       y       z     vdW  Elec       q    Type
REMARK                         _______ _______ _______ _____ _____    ______ ____
ROOT
ATOM      1  N   UNL     1       8.901  11.524  18.168  0.00  0.00    +0.000 N 
ATOM      2  C   UNL     1       8.379  10.375  17.670  0.00  0.00    +0.000 A 
ATOM      3  C   UNL     1       8.694   9.426  18.619  0.00  0.00    +0.000 A 
ATOM      4  N   UNL     1       9.319  10.039  19.671  0.00  0.00    +0.000 NA
ATOM      5  N   UNL     1       9.427  11.331  19.390  0.00  0.00    +0.000 NA
ENDROOT
BRANCH   1   6
ATOM      6  C   UNL     1       8.934  12.806  17.500  0.00  0.00    +0.000 C 
BRANCH   6   7
ATOM      7  C   UNL     1       7.571  13.494  17.441  0.00  0.00    +0.000 C 
BRANCH   7   9
ATOM      8  C   UNL     1       6.160  15.476  18.224  0.00  0.00    +0.000 C 
ATOM      9  C   UNL     1       7.483  14.763  18.272  0.00  0.00    +0.000 C 
ATOM     10  C   UNL     1       8.521  15.142  19.046  0.00  0.00    +0.000 C 
BRANCH  10  11
ATOM     11  C   UNL     1       8.583  16.343  19.946  0.00  0.00    +0.000 C 
BRANCH  11  12
ATOM     12  S   UNL     1       9.202  17.757  18.982  0.00  0.00    +0.000 S 
BRANCH  12  13
ATOM     13  C   UNL     1      10.977  17.348  18.981  0.00  0.00    +0.000 C 
BRANCH  13  14
ATOM     14  C   UNL     1      11.487  17.445  17.550  0.00  0.00    +0.000 C 
BRANCH  14  15
ATOM     15  C   UNL     1      11.508  16.090  16.893  0.00  0.00    +0.000 C 
ATOM     16  O   UNL     1      12.261  15.180  17.181  0.00  0.00    +0.000 OA
BRANCH  15  17
ATOM     17  O   UNL     1      10.585  15.984  15.907  0.00  0.00    +0.000 OA
ATOM     18  H   UNL     1       9.663  16.082  16.213  0.00  0.00    +0.000 HD
ENDBRANCH  15  17
ENDBRANCH  14  15
ENDBRANCH  13  14
ENDBRANCH  12  13
ENDBRANCH  11  12
ENDBRANCH  10  11
ENDBRANCH   7   9
ENDBRANCH   6   7
ENDBRANCH   1   6
BRANCH   3  19
ATOM     19  C   UNL     1       8.475   7.961  18.567  0.00  0.00    +0.000 C 
BRANCH  19  20
ATOM     20  C   UNL     1       7.599   7.599  17.364  0.00  0.00    +0.000 C 
BRANCH  20  21
ATOM     21  C   UNL     1       6.415   6.772  17.733  0.00  0.00    +0.000 A 
ATOM     22  C   UNL     1       6.562   5.726  18.642  0.00  0.00    +0.000 A 
ATOM     23  C   UNL     1       5.465   4.942  18.969  0.00  0.00    +0.000 A 
ATOM     24  C   UNL     1       4.192   5.198  18.426  0.00  0.00    +0.000 A 
ATOM     25  C   UNL     1       4.066   6.259  17.518  0.00  0.00    +0.000 A 
ATOM     26  C   UNL     1       5.167   7.036  17.168  0.00  0.00    +0.000 A 
BRANCH  24  27
ATOM     27  C   UNL     1       3.046   4.360  18.813  0.00  0.00    +0.000 A 
ATOM     28  C   UNL     1       2.799   3.141  18.156  0.00  0.00    +0.000 A 
ATOM     29  C   UNL     1       1.681   2.370  18.456  0.00  0.00    +0.000 A 
ATOM     30  C   UNL     1       0.800   2.789  19.443  0.00  0.00    +0.000 A 
ATOM     31  C   UNL     1       1.037   3.973  20.137  0.00  0.00    +0.000 A 
ATOM     32  C   UNL     1       2.150   4.754  19.820  0.00  0.00    +0.000 A 
ENDBRANCH  24  27
ENDBRANCH  20  21
ENDBRANCH  19  20
ENDBRANCH   3  19
TORSDOF 13
ENDMDL
MODEL 3
REMARK VINA RESULT:      -7.3      5.079      9.893
REMARK  Name = 
REMARK  14 active torsions:
REMARK  status: ('A' for Active; 'I' for Inactive)
REMARK    1  A    between atoms: C_1  and  C_2
REMARK    2  A    between atoms: C_2  and  C_11
REMARK    3  A    between atoms: C_3  and  C_4
REMARK    4  A    between atoms: C_4  and  S_5
REMARK    5  A    between atoms: S_5  and  C_6
REMARK    6  A    between atoms: C_6  and  C_7
REMARK    7  A    between atoms: C_7  and  C_8
REMARK    8  A    between atoms: C_8  and  O_10
REMARK    9  A    between atoms: C_11  and  C_12
REMARK   10  A    between atoms: C_12  and  N_13
REMARK   11  A    between atoms: C_15  and  C_16
REMARK   12  A    between atoms: C_16  and  C_17
REMARK   13  A    between atoms: C_17  and  C_18
REMARK   14  A    between atoms: C_21  and  C_22
REMARK                            x       y       z     vdW  Elec       q    Type
REMARK                         _______ _______ _______ _____ _____    ______ ____
ROOT
ATOM      1  N   UNL     1       6.333   5.081  16.929  0.00  0.00    +0.000 N 
ATOM      2  C   UNL     1       6.515   6.404  17.169  0.00  0.00    +0.000 A 
ATOM      3  C   UNL     1       7.646   6.450  17.955  0.00  0.00    +0.000 A 
ATOM      4  N   UNL     1       8.138   5.181  18.099  0.00  0.00    +0.000 NA
ATOM      5  N   UNL     1       7.332   4.349  17.452  0.00  0.00    +0.000 NA
ENDROOT
BRANCH   1   6
ATOM      6  C   UNL     1       5.215   4.486  16.233  0.00  0.00    +0.000 C 
BRANCH   6   7
ATOM      7  C   UNL     1       4.226   3.783  17.161  0.00  0.00    +0.000 C 
BRANCH   7   9
ATOM      8  C   UNL     1       1.693   3.913  17.476  0.00  0.00    +0.000 C 
ATOM      9  C   UNL     1       3.016   4.626  17.526  0.00  0.00    +0.000 C 
ATOM     10  C   UNL     1       3.174   5.902  17.937  0.00  0.00    +0.000 C 
BRANCH  10  11
ATOM     11  C   UNL     1       2.092   6.852  18.363  0.00  0.00    +0.000 C 
BRANCH  11  12
ATOM     12  S   UNL     1       2.190   7.071  20.166  0.00  0.00    +0.000 S 
BRANCH  12  13
ATOM     13  C   UNL     1       1.324   5.556  20.686  0.00  0.00    +0.000 C 
BRANCH  13  14
ATOM     14  C   UNL     1       2.346   4.609  21.298  0.00  0.00    +0.000 C 
BRANCH  14  15
ATOM     15  C   UNL     1       2.037   3.179  20.942  0.00  0.00    +0.000 C 
ATOM     16  O   UNL     1       2.856   2.342  20.615  0.00  0.00    +0.000 OA
BRANCH  15  17
ATOM     17  O   UNL     1       0.711   2.909  21.011  0.00  0.00    +0.000 OA
ATOM     18  H   UNL     1       0.486   1.974  20.843  0.00  0.00    +0.000 HD
ENDBRANCH  15  17
ENDBRANCH  14  15
ENDBRANCH  13  14
ENDBRANCH  12  13
ENDBRANCH  11  12
ENDBRANCH  10  11
ENDBRANCH   7   9
ENDBRANCH   6   7
ENDBRANCH   1   6
BRANCH   3  19
ATOM     19  C   UNL     1       8.264   7.623  18.615  0.00  0.00    +0.000 C 
BRANCH  19  20
ATOM     20  C   UNL     1       8.188   8.848  17.699  0.00  0.00    +0.000 C 
BRANCH  20  21
ATOM     21  C   UNL     1       8.671  10.096  18.354  0.00  0.00    +0.000 A 
ATOM     22  C   UNL     1       8.571  11.311  17.678  0.00  0.00    +0.000 A 
ATOM     23  C   UNL     1       9.041  12.471  18.279  0.00  0.00    +0.000 A 
ATOM     24  C   UNL     1       9.592  12.455  19.573  0.00  0.00    +0.000 A 
ATOM     25  C   UNL     1       9.678  11.223  20.237  0.00  0.00    +0.000 A 
ATOM     26  C   UNL     1       9.229  10.052  19.632  0.00  0.00    +0.000 A 
BRANCH  24  27
ATOM     27  C   UNL     1      10.060  13.708  20.187  0.00  0.00    +0.000 A 
ATOM     28  C   UNL     1      10.834  14.620  19.447  0.00  0.00    +0.000 A 
ATOM     29  C   UNL     1      11.348  15.774  20.030  0.00  0.00    +0.000 A 
ATOM     30  C   UNL     1      11.071  16.056  21.361  0.00  0.00    +0.000 A 
ATOM     31  C   UNL     1      10.277  15.191  22.110  0.00  0.00    +0.000 A 
ATOM     32  C   UNL     1       9.779  14.024  21.527  0.00  0.00    +0.000 A 
ENDBRANCH  24  27
ENDBRANCH  20  21
ENDBRANCH  19  20
ENDBRANCH   3  19
TORSDOF 13
ENDMDL
MODEL 4
REMARK VINA RESULT:      -7.3      1.009      1.792
REMARK  Name = 
REMARK  14 active torsions:
REMARK  status: ('A' for Active; 'I' for Inactive)
REMARK    1  A    between atoms: C_1  and  C_2
REMARK    2  A    between atoms: C_2  and  C_11
REMARK    3  A    between atoms: C_3  and  C_4
REMARK    4  A    between atoms: C_4  and  S_5
REMARK    5  A    between atoms: S_5  and  C_6
REMARK    6  A    between atoms: C_6  and  C_7
REMARK    7  A    between atoms: C_7  and  C_8
REMARK    8  A    between atoms: C_8  and  O_10
REMARK    9  A    between atoms: C_11  and  C_12
REMARK   10  A    between atoms: C_12  and  N_13
REMARK   11  A    between atoms: C_15  and  C_16
REMARK   12  A    between atoms: C_16  and  C_17
REMARK   13  A    between atoms: C_17  and  C_18
REMARK   14  A    between atoms: C_21  and  C_22
REMARK                            x       y       z     vdW  Elec       q    Type
REMARK                         _______ _______ _______ _____ _____    ______ ____
ROOT
ATOM      1  N   UNL     1       7.805   7.642  17.538  0.00  0.00    +0.000 N 
ATOM      2  C   UNL     1       7.378   6.749  18.467  0.00  0.00    +0.000 A 
ATOM      3  C   UNL     1       7.030   5.639  17.728  0.00  0.00    +0.000 A 
ATOM      4  N   UNL     1       7.323   5.871  16.412  0.00  0.00    +0.000 NA
ATOM      5  N   UNL     1       7.813   7.099  16.308  0.00  0.00    +0.000 NA
ENDROOT
BRANCH   1   6
ATOM      6  C   UNL     1       8.187   9.014  17.786  0.00  0.00    +0.000 C 
BRANCH   6   7
ATOM      7  C   UNL     1       8.950   9.204  19.096  0.00  0.00    +0.000 C 
BRANCH   7   9
ATOM      8  C   UNL     1      10.094  11.172  17.934  0.00  0.00    +0.000 C 
ATOM      9  C   UNL     1       9.627  10.558  19.225  0.00  0.00    +0.000 C 
ATOM     10  C   UNL     1       9.710  11.165  20.427  0.00  0.00    +0.000 C 
BRANCH  10  11
ATOM     11  C   UNL     1      10.315  12.509  20.718  0.00  0.00    +0.000 C 
BRANCH  11  12
ATOM     12  S   UNL     1       9.021  13.776  20.541  0.00  0.00    +0.000 S 
BRANCH  12  13
ATOM     13  C   UNL     1       9.858  14.877  19.356  0.00  0.00    +0.000 C 
BRANCH  13  14
ATOM     14  C   UNL     1      11.322  14.468  19.279  0.00  0.00    +0.000 C 
BRANCH  14  15
ATOM     15  C   UNL     1      11.889  14.748  17.912  0.00  0.00    +0.000 C 
ATOM     16  O   UNL     1      11.946  15.843  17.385  0.00  0.00    +0.000 OA
BRANCH  15  17
ATOM     17  O   UNL     1      12.333  13.624  17.301  0.00  0.00    +0.000 OA
ATOM     18  H   UNL     1      11.909  13.445  16.440  0.00  0.00    +0.000 HD
ENDBRANCH  15  17
ENDBRANCH  14  15
ENDBRANCH  13  14
ENDBRANCH  12  13
ENDBRANCH  11  12
ENDBRANCH  10  11
ENDBRANCH   7   9
ENDBRANCH   6   7
ENDBRANCH   1   6
BRANCH   3  19
ATOM     19  C   UNL     1       6.394   4.384  18.193  0.00  0.00    +0.000 C 
BRANCH  19  20
ATOM     20  C   UNL     1       4.952   4.300  17.684  0.00  0.00    +0.000 C 
BRANCH  20  21
ATOM     21  C   UNL     1       4.067   5.347  18.267  0.00  0.00    +0.000 A 
ATOM     22  C   UNL     1       3.490   5.142  19.519  0.00  0.00    +0.000 A 
ATOM     23  C   UNL     1       2.648   6.107  20.053  0.00  0.00    +0.000 A 
ATOM     24  C   UNL     1       2.384   7.309  19.371  0.00  0.00    +0.000 A 
ATOM     25  C   UNL     1       2.978   7.497  18.115  0.00  0.00    +0.000 A 
ATOM     26  C   UNL     1       3.807   6.524  17.564  0.00  0.00    +0.000 A 
BRANCH  24  27
ATOM     27  C   UNL     1       1.504   8.320  19.978  0.00  0.00    +0.000 A 
ATOM     28  C   UNL     1       1.072   9.432  19.231  0.00  0.00    +0.000 A 
ATOM     29  C   UNL     1       0.301  10.436  19.807  0.00  0.00    +0.000 A 
ATOM     30  C   UNL     1      -0.082  10.334  21.138  0.00  0.00    +0.000 A 
ATOM     31  C   UNL     1       0.299   9.227  21.893  0.00  0.00    +0.000 A 
ATOM     32  C   UNL     1       1.089   8.231  21.318  0.00  0.00    +0.000 A 
ENDBRANCH  24  27
ENDBRANCH  20  21
ENDBRANCH  19  20
ENDBRANCH   3  19
TORSDOF 13
ENDMDL
MODEL 5
REMARK VINA RESULT:      -7.3      3.336      4.128
REMARK  Name = 
REMARK  14 active torsions:
REMARK  status: ('A' for Active; 'I' for Inactive)
REMARK    1  A    between atoms: C_1  and  C_2
REMARK    2  A    between atoms: C_2  and  C_11
REMARK    3  A    between atoms: C_3  and  C_4
REMARK    4  A    between atoms: C_4  and  S_5
REMARK    5  A    between atoms: S_5  and  C_6
REMARK    6  A    between atoms: C_6  and  C_7
REMARK    7  A    between atoms: C_7  and  C_8
REMARK    8  A    between atoms: C_8  and  O_10
REMARK    9  A    between atoms: C_11  and  C_12
REMARK   10  A    between atoms: C_12  and  N_13
REMARK   11  A    between atoms: C_15  and  C_16
REMARK   12  A    between atoms: C_16  and  C_17
REMARK   13  A    between atoms: C_17  and  C_18
REMARK   14  A    between atoms: C_21  and  C_22
REMARK                            x       y       z     vdW  Elec       q    Type
REMARK                         _______ _______ _______ _____ _____    ______ ____
ROOT
ATOM      1  N   UNL     1       7.846   7.263  18.358  0.00  0.00    +0.000 N 
ATOM      2  C   UNL     1       6.862   7.437  17.439  0.00  0.00    +0.000 A 
ATOM      3  C   UNL     1       6.319   6.179  17.288  0.00  0.00    +0.000 A 
ATOM      4  N   UNL     1       6.936   5.322  18.159  0.00  0.00    +0.000 NA
ATOM      5  N   UNL     1       7.862   6.002  18.822  0.00  0.00    +0.000 NA
ENDROOT
BRANCH   1   6
ATOM      6  C   UNL     1       8.793   8.265  18.792  0.00  0.00    +0.000 C 
BRANCH   6   7
ATOM      7  C   UNL     1       8.542   9.643  18.182  0.00  0.00    +0.000 C 
BRANCH   7   9
ATOM      8  C   UNL     1       9.951  11.753  17.869  0.00  0.00    +0.000 C 
ATOM      9  C   UNL     1       9.349  10.758  18.824  0.00  0.00    +0.000 C 
ATOM     10  C   UNL     1       9.428  10.855  20.167  0.00  0.00    +0.000 C 
BRANCH  10  11
ATOM     11  C   UNL     1      10.153  11.909  20.954  0.00  0.00    +0.000 C 
BRANCH  11  12
ATOM     12  S   UNL     1       8.939  13.129  21.543  0.00  0.00    +0.000 S 
BRANCH  12  13
ATOM     13  C   UNL     1       8.602  12.427  23.189  0.00  0.00    +0.000 C 
BRANCH  13  14
ATOM     14  C   UNL     1       7.222  11.786  23.161  0.00  0.00    +0.000 C 
BRANCH  14  15
ATOM     15  C   UNL     1       6.514  11.973  24.476  0.00  0.00    +0.000 C 
ATOM     16  O   UNL     1       6.297  13.042  25.013  0.00  0.00    +0.000 OA
BRANCH  15  17
ATOM     17  O   UNL     1       6.139  10.794  25.029  0.00  0.00    +0.000 OA
ATOM     18  H   UNL     1       6.409  10.688  25.961  0.00  0.00    +0.000 HD
ENDBRANCH  15  17
ENDBRANCH  14  15
ENDBRANCH  13  14
ENDBRANCH  12  13
ENDBRANCH  11  12
ENDBRANCH  10  11
ENDBRANCH   7   9
ENDBRANCH   6   7
ENDBRANCH   1   6
BRANCH   3  19
ATOM     19  C   UNL     1       5.277   5.732  16.335  0.00  0.00    +0.000 C 
BRANCH  19  20
ATOM     20  C   UNL     1       4.118   5.074  17.087  0.00  0.00    +0.000 C 
BRANCH  20  21
ATOM     21  C   UNL     1       3.362   6.030  17.944  0.00  0.00    +0.000 A 
ATOM     22  C   UNL     1       2.962   5.642  19.222  0.00  0.00    +0.000 A 
ATOM     23  C   UNL     1       2.240   6.525  20.012  0.00  0.00    +0.000 A 
ATOM     24  C   UNL     1       1.923   7.821  19.564  0.00  0.00    +0.000 A 
ATOM     25  C   UNL     1       2.339   8.192  18.277  0.00  0.00    +0.000 A 
ATOM     26  C   UNL     1       3.046   7.304  17.470  0.00  0.00    +0.000 A 
BRANCH  24  27
ATOM     27  C   UNL     1       1.174   8.738  20.438  0.00  0.00    +0.000 A 
ATOM     28  C   UNL     1       0.523   9.863  19.901  0.00  0.00    +0.000 A 
ATOM     29  C   UNL     1      -0.127  10.782  20.718  0.00  0.00    +0.000 A 
ATOM     30  C   UNL     1      -0.166  10.578  22.090  0.00  0.00    +0.000 A 
ATOM     31  C   UNL     1       0.438   9.454  22.648  0.00  0.00    +0.000 A 
ATOM     32  C   UNL     1       1.106   8.544  21.828  0.00  0.00    +0.000 A 
ENDBRANCH  24  27
ENDBRANCH  20  21
ENDBRANCH  19  20
ENDBRANCH   3  19
TORSDOF 13
ENDMDL
MODEL 6
REMARK VINA RESULT:      -7.2      2.936      3.587
REMARK  Name = 
REMARK  14 active torsions:
REMARK  status: ('A' for Active; 'I' for Inactive)
REMARK    1  A    between atoms: C_1  and  C_2
REMARK    2  A    between atoms: C_2  and  C_11
REMARK    3  A    between atoms: C_3  and  C_4
REMARK    4  A    between atoms: C_4  and  S_5
REMARK    5  A    between atoms: S_5  and  C_6
REMARK    6  A    between atoms: C_6  and  C_7
REMARK    7  A    between atoms: C_7  and  C_8
REMARK    8  A    between atoms: C_8  and  O_10
REMARK    9  A    between atoms: C_11  and  C_12
REMARK   10  A    between atoms: C_12  and  N_13
REMARK   11  A    between atoms: C_15  and  C_16
REMARK   12  A    between atoms: C_16  and  C_17
REMARK   13  A    between atoms: C_17  and  C_18
REMARK   14  A    between atoms: C_21  and  C_22
REMARK                            x       y       z     vdW  Elec       q    Type
REMARK                         _______ _______ _______ _____ _____    ______ ____
ROOT
ATOM      1  N   UNL     1       8.247   8.117  18.202  0.00  0.00    +0.000 N 
ATOM      2  C   UNL     1       8.009   6.921  18.798  0.00  0.00    +0.000 A 
ATOM      3  C   UNL     1       7.461   6.150  17.795  0.00  0.00    +0.000 A 
ATOM      4  N   UNL     1       7.456   6.872  16.632  0.00  0.00    +0.000 NA
ATOM      5  N   UNL     1       7.955   8.074  16.890  0.00  0.00    +0.000 NA
ENDROOT
BRANCH   1   6
ATOM      6  C   UNL     1       8.725   9.315  18.853  0.00  0.00    +0.000 C 
BRANCH   6   7
ATOM      7  C   UNL     1       9.310  10.341  17.884  0.00  0.00    +0.000 C 
BRANCH   7   9
ATOM      8  C   UNL     1      11.375  11.682  18.570  0.00  0.00    +0.000 C 
ATOM      9  C   UNL     1       9.874  11.578  18.561  0.00  0.00    +0.000 C 
ATOM     10  C   UNL     1       9.046  12.531  19.038  0.00  0.00    +0.000 C 
BRANCH  10  11
ATOM     11  C   UNL     1       9.440  13.819  19.700  0.00  0.00    +0.000 C 
BRANCH  11  12
ATOM     12  S   UNL     1       8.566  13.944  21.291  0.00  0.00    +0.000 S 
BRANCH  12  13
ATOM     13  C   UNL     1       9.299  12.505  22.134  0.00  0.00    +0.000 C 
BRANCH  13  14
ATOM     14  C   UNL     1       8.179  11.533  22.476  0.00  0.00    +0.000 C 
BRANCH  14  15
ATOM     15  C   UNL     1       7.889  11.543  23.954  0.00  0.00    +0.000 C 
ATOM     16  O   UNL     1       6.834  11.221  24.467  0.00  0.00    +0.000 OA
BRANCH  15  17
ATOM     17  O   UNL     1       8.949  11.972  24.682  0.00  0.00    +0.000 OA
ATOM     18  H   UNL     1       8.901  11.741  25.629  0.00  0.00    +0.000 HD
ENDBRANCH  15  17
ENDBRANCH  14  15
ENDBRANCH  13  14
ENDBRANCH  12  13
ENDBRANCH  11  12
ENDBRANCH  10  11
ENDBRANCH   7   9
ENDBRANCH   6   7
ENDBRANCH   1   6
BRANCH   3  19
ATOM     19  C   UNL     1       6.902   4.781  17.885  0.00  0.00    +0.000 C 
BRANCH  19  20
ATOM     20  C   UNL     1       5.523   4.728  17.220  0.00  0.00    +0.000 C 
BRANCH  20  21
ATOM     21  C   UNL     1       4.536   5.648  17.852  0.00  0.00    +0.000 A 
ATOM     22  C   UNL     1       4.004   5.335  19.101  0.00  0.00    +0.000 A 
ATOM     23  C   UNL     1       3.069   6.181  19.680  0.00  0.00    +0.000 A 
ATOM     24  C   UNL     1       2.662   7.370  19.045  0.00  0.00    +0.000 A 
ATOM     25  C   UNL     1       3.214   7.667  17.791  0.00  0.00    +0.000 A 
ATOM     26  C   UNL     1       4.137   6.813  17.195  0.00  0.00    +0.000 A 
BRANCH  24  27
ATOM     27  C   UNL     1       1.684   8.254  19.699  0.00  0.00    +0.000 A 
ATOM     28  C   UNL     1       1.269   8.006  21.020  0.00  0.00    +0.000 A 
ATOM     29  C   UNL     1       0.292   8.785  21.630  0.00  0.00    +0.000 A 
ATOM     30  C   UNL     1      -0.270   9.850  20.941  0.00  0.00    +0.000 A 
ATOM     31  C   UNL     1       0.146  10.144  19.645  0.00  0.00    +0.000 A 
ATOM     32  C   UNL     1       1.113   9.348  19.028  0.00  0.00    +0.000 A 
ENDBRANCH  24  27
ENDBRANCH  20  21
ENDBRANCH  19  20
ENDBRANCH   3  19
TORSDOF 13
ENDMDL
MODEL 7
REMARK VINA RESULT:      -7.2      3.316      4.321
REMARK  Name = 
REMARK  14 active torsions:
REMARK  status: ('A' for Active; 'I' for Inactive)
REMARK    1  A    between atoms: C_1  and  C_2
REMARK    2  A    between atoms: C_2  and  C_11
REMARK    3  A    between atoms: C_3  and  C_4
REMARK    4  A    between atoms: C_4  and  S_5
REMARK    5  A    between atoms: S_5  and  C_6
REMARK    6  A    between atoms: C_6  and  C_7
REMARK    7  A    between atoms: C_7  and  C_8
REMARK    8  A    between atoms: C_8  and  O_10
REMARK    9  A    between atoms: C_11  and  C_12
REMARK   10  A    between atoms: C_12  and  N_13
REMARK   11  A    between atoms: C_15  and  C_16
REMARK   12  A    between atoms: C_16  and  C_17
REMARK   13  A    between atoms: C_17  and  C_18
REMARK   14  A    between atoms: C_21  and  C_22
REMARK                            x       y       z     vdW  Elec       q    Type
REMARK                         _______ _______ _______ _____ _____    ______ ____
ROOT
ATOM      1  N   UNL     1       7.460   7.805  17.562  0.00  0.00    +0.000 N 
ATOM      2  C   UNL     1       6.121   7.789  17.784  0.00  0.00    +0.000 A 
ATOM      3  C   UNL     1       5.640   6.885  16.862  0.00  0.00    +0.000 A 
ATOM      4  N   UNL     1       6.694   6.343  16.178  0.00  0.00    +0.000 NA
ATOM      5  N   UNL     1       7.810   6.904  16.627  0.00  0.00    +0.000 NA
ENDROOT
BRANCH   1   6
ATOM      6  C   UNL     1       8.421   8.674  18.202  0.00  0.00    +0.000 C 
BRANCH   6   7
ATOM      7  C   UNL     1       8.240  10.148  17.842  0.00  0.00    +0.000 C 
BRANCH   7   9
ATOM      8  C   UNL     1       9.713  12.235  17.773  0.00  0.00    +0.000 C 
ATOM      9  C   UNL     1       9.180  11.085  18.581  0.00  0.00    +0.000 C 
ATOM     10  C   UNL     1       9.428  10.902  19.895  0.00  0.00    +0.000 C 
BRANCH  10  11
ATOM     11  C   UNL     1      10.301  11.751  20.774  0.00  0.00    +0.000 C 
BRANCH  11  12
ATOM     12  S   UNL     1       9.235  12.833  21.775  0.00  0.00    +0.000 S 
BRANCH  12  13
ATOM     13  C   UNL     1       8.085  11.580  22.427  0.00  0.00    +0.000 C 
BRANCH  13  14
ATOM     14  C   UNL     1       8.160  11.610  23.947  0.00  0.00    +0.000 C 
BRANCH  14  15
ATOM     15  C   UNL     1       6.783  11.569  24.555  0.00  0.00    +0.000 C 
ATOM     16  O   UNL     1       6.540  11.404  25.736  0.00  0.00    +0.000 OA
BRANCH  15  17
ATOM     17  O   UNL     1       5.808  11.724  23.628  0.00  0.00    +0.000 OA
ATOM     18  H   UNL     1       5.157  12.418  23.848  0.00  0.00    +0.000 HD
ENDBRANCH  15  17
ENDBRANCH  14  15
ENDBRANCH  13  14
ENDBRANCH  12  13
ENDBRANCH  11  12
ENDBRANCH  10  11
ENDBRANCH   7   9
ENDBRANCH   6   7
ENDBRANCH   1   6
BRANCH   3  19
ATOM     19  C   UNL     1       4.232   6.535  16.561  0.00  0.00    +0.000 C 
BRANCH  19  20
ATOM     20  C   UNL     1       3.581   5.868  17.775  0.00  0.00    +0.000 C 
BRANCH  20  21
ATOM     21  C   UNL     1       2.766   6.812  18.592  0.00  0.00    +0.000 A 
ATOM     22  C   UNL     1       2.430   6.476  19.902  0.00  0.00    +0.000 A 
ATOM     23  C   UNL     1       1.654   7.345  20.655  0.00  0.00    +0.000 A 
ATOM     24  C   UNL     1       1.219   8.578  20.136  0.00  0.00    +0.000 A 
ATOM     25  C   UNL     1       1.573   8.899  18.818  0.00  0.00    +0.000 A 
ATOM     26  C   UNL     1       2.334   8.022  18.049  0.00  0.00    +0.000 A 
BRANCH  24  27
ATOM     27  C   UNL     1       0.415   9.485  20.972  0.00  0.00    +0.000 A 
ATOM     28  C   UNL     1      -0.088  10.686  20.441  0.00  0.00    +0.000 A 
ATOM     29  C   UNL     1      -0.787  11.591  21.233  0.00  0.00    +0.000 A 
ATOM     30  C   UNL     1      -1.023  11.299  22.569  0.00  0.00    +0.000 A 
ATOM     31  C   UNL     1      -0.569  10.100  23.115  0.00  0.00    +0.000 A 
ATOM     32  C   UNL     1       0.148   9.203  22.322  0.00  0.00    +0.000 A 
ENDBRANCH  24  27
ENDBRANCH  20  21
ENDBRANCH  19  20
ENDBRANCH   3  19
TORSDOF 13
ENDMDL
MODEL 8
REMARK VINA RESULT:      -7.1      6.935     10.633
REMARK  Name = 
REMARK  14 active torsions:
REMARK  status: ('A' for Active; 'I' for Inactive)
REMARK    1  A    between atoms: C_1  and  C_2
REMARK    2  A    between atoms: C_2  and  C_11
REMARK    3  A    between atoms: C_3  and  C_4
REMARK    4  A    between atoms: C_4  and  S_5
REMARK    5  A    between atoms: S_5  and  C_6
REMARK    6  A    between atoms: C_6  and  C_7
REMARK    7  A    between atoms: C_7  and  C_8
REMARK    8  A    between atoms: C_8  and  O_10
REMARK    9  A    between atoms: C_11  and  C_12
REMARK   10  A    between atoms: C_12  and  N_13
REMARK   11  A    between atoms: C_15  and  C_16
REMARK   12  A    between atoms: C_16  and  C_17
REMARK   13  A    between atoms: C_17  and  C_18
REMARK   14  A    between atoms: C_21  and  C_22
REMARK                            x       y       z     vdW  Elec       q    Type
REMARK                         _______ _______ _______ _____ _____    ______ ____
ROOT
ATOM      1  N   UNL     1       1.768   8.510  19.338  0.00  0.00    +0.000 N 
ATOM      2  C   UNL     1       1.021   9.641  19.278  0.00  0.00    +0.000 A 
ATOM      3  C   UNL     1       0.360   9.670  20.487  0.00  0.00    +0.000 A 
ATOM      4  N   UNL     1       0.780   8.612  21.248  0.00  0.00    +0.000 NA
ATOM      5  N   UNL     1       1.657   7.915  20.538  0.00  0.00    +0.000 NA
ENDROOT
BRANCH   1   6
ATOM      6  C   UNL     1       2.574   7.962  18.269  0.00  0.00    +0.000 C 
BRANCH   6   7
ATOM      7  C   UNL     1       2.102   6.587  17.798  0.00  0.00    +0.000 C 
BRANCH   7   9
ATOM      8  C   UNL     1       4.496   5.951  18.431  0.00  0.00    +0.000 C 
ATOM      9  C   UNL     1       3.171   5.510  17.870  0.00  0.00    +0.000 C 
ATOM     10  C   UNL     1       2.883   4.240  17.516  0.00  0.00    +0.000 C 
BRANCH  10  11
ATOM     11  C   UNL     1       3.811   3.060  17.558  0.00  0.00    +0.000 C 
BRANCH  11  12
ATOM     12  S   UNL     1       3.156   1.853  18.752  0.00  0.00    +0.000 S 
BRANCH  12  13
ATOM     13  C   UNL     1       3.687   2.659  20.296  0.00  0.00    +0.000 C 
BRANCH  13  14
ATOM     14  C   UNL     1       2.469   2.814  21.195  0.00  0.00    +0.000 C 
BRANCH  14  15
ATOM     15  C   UNL     1       1.735   4.093  20.893  0.00  0.00    +0.000 C 
ATOM     16  O   UNL     1       0.671   4.173  20.308  0.00  0.00    +0.000 OA
BRANCH  15  17
ATOM     17  O   UNL     1       2.401   5.185  21.339  0.00  0.00    +0.000 OA
ATOM     18  H   UNL     1       1.848   5.986  21.413  0.00  0.00    +0.000 HD
ENDBRANCH  15  17
ENDBRANCH  14  15
ENDBRANCH  13  14
ENDBRANCH  12  13
ENDBRANCH  11  12
ENDBRANCH  10  11
ENDBRANCH   7   9
ENDBRANCH   6   7
ENDBRANCH   1   6
BRANCH   3  19
ATOM     19  C   UNL     1      -0.681  10.618  20.947  0.00  0.00    +0.000 C 
BRANCH  19  20
ATOM     20  C   UNL     1      -0.498  10.923  22.437  0.00  0.00    +0.000 C 
BRANCH  20  21
ATOM     21  C   UNL     1      -1.319  12.077  22.900  0.00  0.00    +0.000 A 
ATOM     22  C   UNL     1      -0.755  13.350  22.942  0.00  0.00    +0.000 A 
ATOM     23  C   UNL     1      -1.512  14.422  23.394  0.00  0.00    +0.000 A 
ATOM     24  C   UNL     1      -2.854  14.258  23.786  0.00  0.00    +0.000 A 
ATOM     25  C   UNL     1      -3.403  12.970  23.731  0.00  0.00    +0.000 A 
ATOM     26  C   UNL     1      -2.643  11.886  23.299  0.00  0.00    +0.000 A 
BRANCH  24  27
ATOM     27  C   UNL     1      -3.634  15.421  24.239  0.00  0.00    +0.000 A 
ATOM     28  C   UNL     1      -5.018  15.491  23.997  0.00  0.00    +0.000 A 
ATOM     29  C   UNL     1      -5.759  16.613  24.351  0.00  0.00    +0.000 A 
ATOM     30  C   UNL     1      -5.136  17.680  24.983  0.00  0.00    +0.000 A 
ATOM     31  C   UNL     1      -3.774  17.626  25.270  0.00  0.00    +0.000 A 
ATOM     32  C   UNL     1      -3.029  16.506  24.896  0.00  0.00    +0.000 A 
ENDBRANCH  24  27
ENDBRANCH  20  21
ENDBRANCH  19  20
ENDBRANCH   3  19
TORSDOF 13
ENDMDL
MODEL 9
REMARK VINA RESULT:      -7.1      1.563      2.132
REMARK  Name = 
REMARK  14 active torsions:
REMARK  status: ('A' for Active; 'I' for Inactive)
REMARK    1  A    between atoms: C_1  and  C_2
REMARK    2  A    between atoms: C_2  and  C_11
REMARK    3  A    between atoms: C_3  and  C_4
REMARK    4  A    between atoms: C_4  and  S_5
REMARK    5  A    between atoms: S_5  and  C_6
REMARK    6  A    between atoms: C_6  and  C_7
REMARK    7  A    between atoms: C_7  and  C_8
REMARK    8  A    between atoms: C_8  and  O_10
REMARK    9  A    between atoms: C_11  and  C_12
REMARK   10  A    between atoms: C_12  and  N_13
REMARK   11  A    between atoms: C_15  and  C_16
REMARK   12  A    between atoms: C_16  and  C_17
REMARK   13  A    between atoms: C_17  and  C_18
REMARK   14  A    between atoms: C_21  and  C_22
REMARK                            x       y       z     vdW  Elec       q    Type
REMARK                         _______ _______ _______ _____ _____    ______ ____
ROOT
ATOM      1  N   UNL     1       7.480   6.286  18.284  0.00  0.00    +0.000 N 
ATOM      2  C   UNL     1       6.583   5.750  19.150  0.00  0.00    +0.000 A 
ATOM      3  C   UNL     1       5.990   4.735  18.432  0.00  0.00    +0.000 A 
ATOM      4  N   UNL     1       6.590   4.649  17.205  0.00  0.00    +0.000 NA
ATOM      5  N   UNL     1       7.515   5.597  17.131  0.00  0.00    +0.000 NA
ENDROOT
BRANCH   1   6
ATOM      6  C   UNL     1       8.295   7.458  18.516  0.00  0.00    +0.000 C 
BRANCH   6   7
ATOM      7  C   UNL     1       7.775   8.708  17.807  0.00  0.00    +0.000 C 
BRANCH   7   9
ATOM      8  C   UNL     1       8.010  11.237  17.526  0.00  0.00    +0.000 C 
ATOM      9  C   UNL     1       8.450   9.994  18.250  0.00  0.00    +0.000 C 
ATOM     10  C   UNL     1       9.321   9.986  19.281  0.00  0.00    +0.000 C 
BRANCH  10  11
ATOM     11  C   UNL     1      10.044  11.168  19.859  0.00  0.00    +0.000 C 
BRANCH  11  12
ATOM     12  S   UNL     1      11.558  11.451  18.891  0.00  0.00    +0.000 S 
BRANCH  12  13
ATOM     13  C   UNL     1      11.093  13.014  18.081  0.00  0.00    +0.000 C 
BRANCH  13  14
ATOM     14  C   UNL     1      12.238  14.002  18.260  0.00  0.00    +0.000 C 
BRANCH  14  15
ATOM     15  C   UNL     1      11.733  15.325  18.772  0.00  0.00    +0.000 C 
ATOM     16  O   UNL     1      10.894  16.017  18.228  0.00  0.00    +0.000 OA
BRANCH  15  17
ATOM     17  O   UNL     1      12.332  15.689  19.932  0.00  0.00    +0.000 OA
ATOM     18  H   UNL     1      13.006  15.056  20.247  0.00  0.00    +0.000 HD
ENDBRANCH  15  17
ENDBRANCH  14  15
ENDBRANCH  13  14
ENDBRANCH  12  13
ENDBRANCH  11  12
ENDBRANCH  10  11
ENDBRANCH   7   9
ENDBRANCH   6   7
ENDBRANCH   1   6
BRANCH   3  19
ATOM     19  C   UNL     1       4.855   3.867  18.826  0.00  0.00    +0.000 C 
BRANCH  19  20
ATOM     20  C   UNL     1       3.570   4.329  18.134  0.00  0.00    +0.000 C 
BRANCH  20  21
ATOM     21  C   UNL     1       2.919   5.480  18.822  0.00  0.00    +0.000 A 
ATOM     22  C   UNL     1       2.910   6.732  18.212  0.00  0.00    +0.000 A 
ATOM     23  C   UNL     1       2.322   7.808  18.862  0.00  0.00    +0.000 A 
ATOM     24  C   UNL     1       1.705   7.658  20.118  0.00  0.00    +0.000 A 
ATOM     25  C   UNL     1       1.721   6.388  20.711  0.00  0.00    +0.000 A 
ATOM     26  C   UNL     1       2.327   5.309  20.074  0.00  0.00    +0.000 A 
BRANCH  24  27
ATOM     27  C   UNL     1       1.072   8.817  20.768  0.00  0.00    +0.000 A 
ATOM     28  C   UNL     1       0.689   8.756  22.120  0.00  0.00    +0.000 A 
ATOM     29  C   UNL     1       0.023   9.812  22.733  0.00  0.00    +0.000 A 
ATOM     30  C   UNL     1      -0.247  10.967  22.012  0.00  0.00    +0.000 A 
ATOM     31  C   UNL     1       0.152  11.073  20.682  0.00  0.00    +0.000 A 
ATOM     32  C   UNL     1       0.803  10.003  20.065  0.00  0.00    +0.000 A 
ENDBRANCH  24  27
ENDBRANCH  20  21
ENDBRANCH  19  20
ENDBRANCH   3  19
TORSDOF 13
ENDMDL
