MODEL 1
REMARK VINA RESULT:      -7.2      0.000      0.000
REMARK  Name = 
REMARK  8 active torsions:
REMARK  status: ('A' for Active; 'I' for Inactive)
REMARK    1  A    between atoms: C_1  and  C_2
REMARK    2  A    between atoms: C_2  and  C_3
REMARK    3  A    between atoms: C_2  and  C_19
REMARK    4  A    between atoms: C_3  and  N_4
REMARK    5  A    between atoms: N_4  and  C_5
REMARK    6  A    between atoms: N_8  and  C_9
REMARK    7  A    between atoms: C_9  and  C_10
REMARK    8  A    between atoms: C_9  and  C_11
REMARK                            x       y       z     vdW  Elec       q    Type
REMARK                         _______ _______ _______ _____ _____    ______ ____
ROOT
ATOM      1  C   UNL     1       7.251   4.385  16.265  0.00  0.00    +0.000 C 
ATOM      2  C   UNL     1       5.927   3.610  16.245  0.00  0.00    +0.000 C 
ATOM      3  C   UNL     1       4.818   4.359  16.989  0.00  0.00    +0.000 C 
ATOM      4  N   UNL     1       5.169   4.708  18.377  0.00  0.00    +0.000 NA
ATOM      5  C   UNL     1       6.467   5.407  18.445  0.00  0.00    +0.000 C 
ATOM      6  C   UNL     1       7.589   4.643  17.738  0.00  0.00    +0.000 C 
ENDROOT
BRANCH   1   7
ATOM      7  N   UNL     1       7.111   5.606  15.447  0.00  0.00    +0.000 NA
ATOM      8  H   UNL     1       6.546   6.286  15.962  0.00  0.00    +0.000 HD
BRANCH   7   9
ATOM      9  C   UNL     1       6.473   5.376  14.145  0.00  0.00    +0.000 C 
BRANCH   9  11
ATOM     10  C   UNL     1       8.050   5.860  12.197  0.00  0.00    +0.000 C 
ATOM     11  C   UNL     1       7.430   4.771  13.087  0.00  0.00    +0.000 C 
BRANCH  11  12
ATOM     12  C   UNL     1       6.803   3.623  12.308  0.00  0.00    +0.000 A 
ATOM     13  C   UNL     1       5.403   3.546  12.202  0.00  0.00    +0.000 A 
ATOM     14  C   UNL     1       4.792   2.487  11.526  0.00  0.00    +0.000 A 
ATOM     15  C   UNL     1       5.570   1.492  10.939  0.00  0.00    +0.000 A 
ATOM     16  C   UNL     1       6.958   1.566  11.012  0.00  0.00    +0.000 A 
ATOM     17  C   UNL     1       7.568   2.627  11.684  0.00  0.00    +0.000 A 
ENDBRANCH  11  12
ENDBRANCH   9  11
ENDBRANCH   7   9
ENDBRANCH   1   7
BRANCH   4  18
ATOM     18  C   UNL     1       4.101   5.482  19.072  0.00  0.00    +0.000 C 
ATOM     19  C   UNL     1       3.397   6.547  18.205  0.00  0.00    +0.000 C 
BRANCH  18  20
ATOM     20  C   UNL     1       3.099   4.574  19.789  0.00  0.00    +0.000 A 
ATOM     21  C   UNL     1       1.738   4.909  19.816  0.00  0.00    +0.000 A 
ATOM     22  C   UNL     1       0.854   4.073  20.486  0.00  0.00    +0.000 A 
ATOM     23  N   UNL     1       1.216   2.942  21.123  0.00  0.00    +0.000 NA
ATOM     24  C   UNL     1       2.530   2.633  21.095  0.00  0.00    +0.000 A 
ATOM     25  C   UNL     1       3.489   3.403  20.450  0.00  0.00    +0.000 A 
ENDBRANCH  18  20
ENDBRANCH   4  18
TORSDOF 6
ENDMDL
MODEL 2
REMARK VINA RESULT:      -7.1      0.410      1.419
REMARK  Name = 
REMARK  8 active torsions:
REMARK  status: ('A' for Active; 'I' for Inactive)
REMARK    1  A    between atoms: C_1  and  C_2
REMARK    2  A    between atoms: C_2  and  C_3
REMARK    3  A    between atoms: C_2  and  C_19
REMARK    4  A    between atoms: C_3  and  N_4
REMARK    5  A    between atoms: N_4  and  C_5
REMARK    6  A    between atoms: N_8  and  C_9
REMARK    7  A    between atoms: C_9  and  C_10
REMARK    8  A    between atoms: C_9  and  C_11
REMARK                            x       y       z     vdW  Elec       q    Type
REMARK                         _______ _______ _______ _____ _____    ______ ____
ROOT
ATOM      1  C   UNL     1       7.196   4.493  16.544  0.00  0.00    +0.000 C 
ATOM      2  C   UNL     1       5.904   3.668  16.530  0.00  0.00    +0.000 C 
ATOM      3  C   UNL     1       4.762   4.383  17.258  0.00  0.00    +0.000 C 
ATOM      4  N   UNL     1       5.093   4.766  18.641  0.00  0.00    +0.000 NA
ATOM      5  C   UNL     1       6.362   5.516  18.705  0.00  0.00    +0.000 C 
ATOM      6  C   UNL     1       7.517   4.786  18.015  0.00  0.00    +0.000 C 
ENDROOT
BRANCH   1   7
ATOM      7  N   UNL     1       7.013   5.696  15.707  0.00  0.00    +0.000 NA
ATOM      8  H   UNL     1       6.458   6.380  16.228  0.00  0.00    +0.000 HD
BRANCH   7   9
ATOM      9  C   UNL     1       6.332   5.432  14.434  0.00  0.00    +0.000 C 
BRANCH   9  11
ATOM     10  C   UNL     1       8.111   5.597  12.611  0.00  0.00    +0.000 C 
ATOM     11  C   UNL     1       7.205   4.653  13.417  0.00  0.00    +0.000 C 
BRANCH  11  12
ATOM     12  C   UNL     1       6.396   3.692  12.556  0.00  0.00    +0.000 A 
ATOM     13  C   UNL     1       7.045   2.609  11.937  0.00  0.00    +0.000 A 
ATOM     14  C   UNL     1       6.340   1.729  11.112  0.00  0.00    +0.000 A 
ATOM     15  C   UNL     1       4.978   1.913  10.897  0.00  0.00    +0.000 A 
ATOM     16  C   UNL     1       4.313   2.965  11.522  0.00  0.00    +0.000 A 
ATOM     17  C   UNL     1       5.017   3.842  12.350  0.00  0.00    +0.000 A 
ENDBRANCH  11  12
ENDBRANCH   9  11
ENDBRANCH   7   9
ENDBRANCH   1   7
BRANCH   4  18
ATOM     18  C   UNL     1       3.992   5.507  19.320  0.00  0.00    +0.000 C 
ATOM     19  C   UNL     1       3.307   6.591  18.460  0.00  0.00    +0.000 C 
BRANCH  18  20
ATOM     20  C   UNL     1       2.975   4.568  19.973  0.00  0.00    +0.000 A 
ATOM     21  C   UNL     1       3.408   3.536  20.818  0.00  0.00    +0.000 A 
ATOM     22  C   UNL     1       2.463   2.691  21.385  0.00  0.00    +0.000 A 
ATOM     23  N   UNL     1       1.135   2.793  21.178  0.00  0.00    +0.000 NA
ATOM     24  C   UNL     1       0.731   3.786  20.358  0.00  0.00    +0.000 A 
ATOM     25  C   UNL     1       1.598   4.682  19.747  0.00  0.00    +0.000 A 
ENDBRANCH  18  20
ENDBRANCH   4  18
TORSDOF 6
ENDMDL
MODEL 3
REMARK VINA RESULT:      -7.1      2.885      5.688
REMARK  Name = 
REMARK  8 active torsions:
REMARK  status: ('A' for Active; 'I' for Inactive)
REMARK    1  A    between atoms: C_1  and  C_2
REMARK    2  A    between atoms: C_2  and  C_3
REMARK    3  A    between atoms: C_2  and  C_19
REMARK    4  A    between atoms: C_3  and  N_4
REMARK    5  A    between atoms: N_4  and  C_5
REMARK    6  A    between atoms: N_8  and  C_9
REMARK    7  A    between atoms: C_9  and  C_10
REMARK    8  A    between atoms: C_9  and  C_11
REMARK                            x       y       z     vdW  Elec       q    Type
REMARK                         _______ _______ _______ _____ _____    ______ ____
ROOT
ATOM      1  C   UNL     1       2.732   3.133  18.734  0.00  0.00    +0.000 C 
ATOM      2  C   UNL     1       1.394   3.860  18.558  0.00  0.00    +0.000 C 
ATOM      3  C   UNL     1       1.587   5.364  18.337  0.00  0.00    +0.000 C 
ATOM      4  N   UNL     1       2.373   6.019  19.396  0.00  0.00    +0.000 NA
ATOM      5  C   UNL     1       3.647   5.315  19.635  0.00  0.00    +0.000 C 
ATOM      6  C   UNL     1       3.458   3.820  19.898  0.00  0.00    +0.000 C 
ENDROOT
BRANCH   1   7
ATOM      7  N   UNL     1       3.470   3.157  17.455  0.00  0.00    +0.000 NA
ATOM      8  H   UNL     1       3.366   2.248  16.997  0.00  0.00    +0.000 HD
BRANCH   7   9
ATOM      9  C   UNL     1       4.903   3.432  17.604  0.00  0.00    +0.000 C 
BRANCH   9  11
ATOM     10  C   UNL     1       5.975   3.943  15.344  0.00  0.00    +0.000 C 
ATOM     11  C   UNL     1       5.422   4.538  16.649  0.00  0.00    +0.000 C 
BRANCH  11  12
ATOM     12  C   UNL     1       6.373   5.512  17.333  0.00  0.00    +0.000 A 
ATOM     13  C   UNL     1       6.530   6.806  16.805  0.00  0.00    +0.000 A 
ATOM     14  C   UNL     1       7.420   7.713  17.385  0.00  0.00    +0.000 A 
ATOM     15  C   UNL     1       8.161   7.345  18.504  0.00  0.00    +0.000 A 
ATOM     16  C   UNL     1       8.000   6.077  19.056  0.00  0.00    +0.000 A 
ATOM     17  C   UNL     1       7.107   5.172  18.478  0.00  0.00    +0.000 A 
ENDBRANCH  11  12
ENDBRANCH   9  11
ENDBRANCH   7   9
ENDBRANCH   1   7
BRANCH   4  18
ATOM     18  C   UNL     1       2.598   7.471  19.141  0.00  0.00    +0.000 C 
ATOM     19  C   UNL     1       2.730   7.861  17.653  0.00  0.00    +0.000 C 
BRANCH  18  20
ATOM     20  C   UNL     1       1.585   8.353  19.875  0.00  0.00    +0.000 A 
ATOM     21  C   UNL     1       1.194   8.039  21.184  0.00  0.00    +0.000 A 
ATOM     22  C   UNL     1       0.262   8.850  21.820  0.00  0.00    +0.000 A 
ATOM     23  N   UNL     1      -0.303   9.938  21.259  0.00  0.00    +0.000 NA
ATOM     24  C   UNL     1       0.077  10.226  19.997  0.00  0.00    +0.000 A 
ATOM     25  C   UNL     1       1.002   9.478  19.280  0.00  0.00    +0.000 A 
ENDBRANCH  18  20
ENDBRANCH   4  18
TORSDOF 6
ENDMDL
MODEL 4
REMARK VINA RESULT:      -7.1      1.713      7.666
REMARK  Name = 
REMARK  8 active torsions:
REMARK  status: ('A' for Active; 'I' for Inactive)
REMARK    1  A    between atoms: C_1  and  C_2
REMARK    2  A    between atoms: C_2  and  C_3
REMARK    3  A    between atoms: C_2  and  C_19
REMARK    4  A    between atoms: C_3  and  N_4
REMARK    5  A    between atoms: N_4  and  C_5
REMARK    6  A    between atoms: N_8  and  C_9
REMARK    7  A    between atoms: C_9  and  C_10
REMARK    8  A    between atoms: C_9  and  C_11
REMARK                            x       y       z     vdW  Elec       q    Type
REMARK                         _______ _______ _______ _____ _____    ______ ____
ROOT
ATOM      1  C   UNL     1       5.941   4.738  17.658  0.00  0.00    +0.000 C 
ATOM      2  C   UNL     1       7.393   4.671  17.171  0.00  0.00    +0.000 C 
ATOM      3  C   UNL     1       7.517   5.050  15.693  0.00  0.00    +0.000 C 
ATOM      4  N   UNL     1       6.656   4.249  14.805  0.00  0.00    +0.000 NA
ATOM      5  C   UNL     1       5.257   4.243  15.272  0.00  0.00    +0.000 C 
ATOM      6  C   UNL     1       5.123   3.825  16.737  0.00  0.00    +0.000 C 
ENDROOT
BRANCH   1   7
ATOM      7  N   UNL     1       5.499   6.148  17.671  0.00  0.00    +0.000 NA
ATOM      8  H   UNL     1       6.303   6.745  17.878  0.00  0.00    +0.000 HD
BRANCH   7   9
ATOM      9  C   UNL     1       4.454   6.431  18.662  0.00  0.00    +0.000 C 
BRANCH   9  11
ATOM     10  C   UNL     1       2.246   7.583  18.105  0.00  0.00    +0.000 C 
ATOM     11  C   UNL     1       3.016   6.253  18.112  0.00  0.00    +0.000 C 
BRANCH  11  12
ATOM     12  C   UNL     1       2.264   5.110  18.780  0.00  0.00    +0.000 A 
ATOM     13  C   UNL     1       1.705   4.094  17.983  0.00  0.00    +0.000 A 
ATOM     14  C   UNL     1       0.978   3.050  18.559  0.00  0.00    +0.000 A 
ATOM     15  C   UNL     1       0.803   2.999  19.939  0.00  0.00    +0.000 A 
ATOM     16  C   UNL     1       1.370   3.982  20.746  0.00  0.00    +0.000 A 
ATOM     17  C   UNL     1       2.100   5.023  20.170  0.00  0.00    +0.000 A 
ENDBRANCH  11  12
ENDBRANCH   9  11
ENDBRANCH   7   9
ENDBRANCH   1   7
BRANCH   4  18
ATOM     18  C   UNL     1       6.747   4.664  13.375  0.00  0.00    +0.000 C 
ATOM     19  C   UNL     1       8.046   5.404  12.992  0.00  0.00    +0.000 C 
BRANCH  18  20
ATOM     20  C   UNL     1       6.441   3.511  12.416  0.00  0.00    +0.000 A 
ATOM     21  C   UNL     1       5.116   3.219  12.064  0.00  0.00    +0.000 A 
ATOM     22  C   UNL     1       4.868   2.159  11.201  0.00  0.00    +0.000 A 
ATOM     23  N   UNL     1       5.827   1.376  10.668  0.00  0.00    +0.000 NA
ATOM     24  C   UNL     1       7.098   1.664  11.019  0.00  0.00    +0.000 A 
ATOM     25  C   UNL     1       7.447   2.704  11.871  0.00  0.00    +0.000 A 
ENDBRANCH  18  20
ENDBRANCH   4  18
TORSDOF 6
ENDMDL
MODEL 5
REMARK VINA RESULT:      -7.0      1.184      1.575
REMARK  Name = 
REMARK  8 active torsions:
REMARK  status: ('A' for Active; 'I' for Inactive)
REMARK    1  A    between atoms: C_1  and  C_2
REMARK    2  A    between atoms: C_2  and  C_3
REMARK    3  A    between atoms: C_2  and  C_19
REMARK    4  A    between atoms: C_3  and  N_4
REMARK    5  A    between atoms: N_4  and  C_5
REMARK    6  A    between atoms: N_8  and  C_9
REMARK    7  A    between atoms: C_9  and  C_10
REMARK    8  A    between atoms: C_9  and  C_11
REMARK                            x       y       z     vdW  Elec       q    Type
REMARK                         _______ _______ _______ _____ _____    ______ ____
ROOT
ATOM      1  C   UNL     1       7.165   5.797  17.098  0.00  0.00    +0.000 C 
ATOM      2  C   UNL     1       6.884   5.069  18.418  0.00  0.00    +0.000 C 
ATOM      3  C   UNL     1       5.544   4.328  18.387  0.00  0.00    +0.000 C 
ATOM      4  N   UNL     1       4.401   5.191  18.041  0.00  0.00    +0.000 NA
ATOM      5  C   UNL     1       4.655   5.953  16.804  0.00  0.00    +0.000 C 
ATOM      6  C   UNL     1       5.973   6.728  16.845  0.00  0.00    +0.000 C 
ENDROOT
BRANCH   1   7
ATOM      7  N   UNL     1       7.397   4.799  16.034  0.00  0.00    +0.000 NA
ATOM      8  H   UNL     1       8.399   4.761  15.830  0.00  0.00    +0.000 HD
BRANCH   7   9
ATOM      9  C   UNL     1       6.688   5.092  14.784  0.00  0.00    +0.000 C 
BRANCH   9  11
ATOM     10  C   UNL     1       8.147   5.674  12.772  0.00  0.00    +0.000 C 
ATOM     11  C   UNL     1       7.410   4.554  13.523  0.00  0.00    +0.000 C 
BRANCH  11  12
ATOM     12  C   UNL     1       6.504   3.711  12.636  0.00  0.00    +0.000 A 
ATOM     13  C   UNL     1       5.138   4.032  12.543  0.00  0.00    +0.000 A 
ATOM     14  C   UNL     1       4.271   3.259  11.767  0.00  0.00    +0.000 A 
ATOM     15  C   UNL     1       4.755   2.158  11.066  0.00  0.00    +0.000 A 
ATOM     16  C   UNL     1       6.109   1.840  11.126  0.00  0.00    +0.000 A 
ATOM     17  C   UNL     1       6.976   2.615  11.898  0.00  0.00    +0.000 A 
ENDBRANCH  11  12
ENDBRANCH   9  11
ENDBRANCH   7   9
ENDBRANCH   1   7
BRANCH   4  18
ATOM     18  C   UNL     1       3.111   4.447  17.963  0.00  0.00    +0.000 C 
ATOM     19  C   UNL     1       3.065   3.331  16.897  0.00  0.00    +0.000 C 
BRANCH  18  20
ATOM     20  C   UNL     1       2.644   3.948  19.333  0.00  0.00    +0.000 A 
ATOM     21  C   UNL     1       2.643   4.814  20.436  0.00  0.00    +0.000 A 
ATOM     22  C   UNL     1       2.226   4.329  21.669  0.00  0.00    +0.000 A 
ATOM     23  N   UNL     1       1.815   3.064  21.886  0.00  0.00    +0.000 NA
ATOM     24  C   UNL     1       1.826   2.240  20.818  0.00  0.00    +0.000 A 
ATOM     25  C   UNL     1       2.222   2.631  19.545  0.00  0.00    +0.000 A 
ENDBRANCH  18  20
ENDBRANCH   4  18
TORSDOF 6
ENDMDL
MODEL 6
REMARK VINA RESULT:      -6.9      3.090      5.662
REMARK  Name = 
REMARK  8 active torsions:
REMARK  status: ('A' for Active; 'I' for Inactive)
REMARK    1  A    between atoms: C_1  and  C_2
REMARK    2  A    between atoms: C_2  and  C_3
REMARK    3  A    between atoms: C_2  and  C_19
REMARK    4  A    between atoms: C_3  and  N_4
REMARK    5  A    between atoms: N_4  and  C_5
REMARK    6  A    between atoms: N_8  and  C_9
REMARK    7  A    between atoms: C_9  and  C_10
REMARK    8  A    between atoms: C_9  and  C_11
REMARK                            x       y       z     vdW  Elec       q    Type
REMARK                         _______ _______ _______ _____ _____    ______ ____
ROOT
ATOM      1  C   UNL     1       2.706   3.669  18.849  0.00  0.00    +0.000 C 
ATOM      2  C   UNL     1       1.886   4.446  17.813  0.00  0.00    +0.000 C 
ATOM      3  C   UNL     1       2.150   5.953  17.891  0.00  0.00    +0.000 C 
ATOM      4  N   UNL     1       1.926   6.522  19.231  0.00  0.00    +0.000 NA
ATOM      5  C   UNL     1       2.655   5.766  20.267  0.00  0.00    +0.000 C 
ATOM      6  C   UNL     1       2.364   4.264  20.220  0.00  0.00    +0.000 C 
ENDROOT
BRANCH   1   7
ATOM      7  N   UNL     1       4.137   3.743  18.490  0.00  0.00    +0.000 NA
ATOM      8  H   UNL     1       4.461   4.705  18.620  0.00  0.00    +0.000 HD
BRANCH   7   9
ATOM      9  C   UNL     1       4.420   3.349  17.105  0.00  0.00    +0.000 C 
BRANCH   9  11
ATOM     10  C   UNL     1       5.568   3.962  14.909  0.00  0.00    +0.000 C 
ATOM     11  C   UNL     1       5.037   4.487  16.253  0.00  0.00    +0.000 C 
BRANCH  11  12
ATOM     12  C   UNL     1       6.044   5.327  17.027  0.00  0.00    +0.000 A 
ATOM     13  C   UNL     1       6.067   6.721  16.841  0.00  0.00    +0.000 A 
ATOM     14  C   UNL     1       7.001   7.518  17.507  0.00  0.00    +0.000 A 
ATOM     15  C   UNL     1       7.922   6.937  18.374  0.00  0.00    +0.000 A 
ATOM     16  C   UNL     1       7.899   5.561  18.590  0.00  0.00    +0.000 A 
ATOM     17  C   UNL     1       6.962   4.766  17.927  0.00  0.00    +0.000 A 
ENDBRANCH  11  12
ENDBRANCH   9  11
ENDBRANCH   7   9
ENDBRANCH   1   7
BRANCH   4  18
ATOM     18  C   UNL     1       2.236   7.978  19.306  0.00  0.00    +0.000 C 
ATOM     19  C   UNL     1       2.419   8.678  17.942  0.00  0.00    +0.000 C 
BRANCH  18  20
ATOM     20  C   UNL     1       1.260   8.735  20.210  0.00  0.00    +0.000 A 
ATOM     21  C   UNL     1       0.407   9.707  19.669  0.00  0.00    +0.000 A 
ATOM     22  C   UNL     1      -0.459  10.387  20.516  0.00  0.00    +0.000 A 
ATOM     23  N   UNL     1      -0.540  10.176  21.845  0.00  0.00    +0.000 NA
ATOM     24  C   UNL     1       0.290   9.242  22.354  0.00  0.00    +0.000 A 
ATOM     25  C   UNL     1       1.188   8.508  21.589  0.00  0.00    +0.000 A 
ENDBRANCH  18  20
ENDBRANCH   4  18
TORSDOF 6
ENDMDL
MODEL 7
REMARK VINA RESULT:      -6.9      2.880      5.531
REMARK  Name = 
REMARK  8 active torsions:
REMARK  status: ('A' for Active; 'I' for Inactive)
REMARK    1  A    between atoms: C_1  and  C_2
REMARK    2  A    between atoms: C_2  and  C_3
REMARK    3  A    between atoms: C_2  and  C_19
REMARK    4  A    between atoms: C_3  and  N_4
REMARK    5  A    between atoms: N_4  and  C_5
REMARK    6  A    between atoms: N_8  and  C_9
REMARK    7  A    between atoms: C_9  and  C_10
REMARK    8  A    between atoms: C_9  and  C_11
REMARK                            x       y       z     vdW  Elec       q    Type
REMARK                         _______ _______ _______ _____ _____    ______ ____
ROOT
ATOM      1  C   UNL     1       3.077   3.416  18.786  0.00  0.00    +0.000 C 
ATOM      2  C   UNL     1       2.086   4.105  17.840  0.00  0.00    +0.000 C 
ATOM      3  C   UNL     1       2.286   5.623  17.812  0.00  0.00    +0.000 C 
ATOM      4  N   UNL     1       2.220   6.251  19.143  0.00  0.00    +0.000 NA
ATOM      5  C   UNL     1       3.120   5.580  20.101  0.00  0.00    +0.000 C 
ATOM      6  C   UNL     1       2.897   4.067  20.163  0.00  0.00    +0.000 C 
ENDROOT
BRANCH   1   7
ATOM      7  N   UNL     1       4.440   3.531  18.229  0.00  0.00    +0.000 NA
ATOM      8  H   UNL     1       4.778   4.485  18.377  0.00  0.00    +0.000 HD
BRANCH   7   9
ATOM      9  C   UNL     1       4.519   3.236  16.794  0.00  0.00    +0.000 C 
BRANCH   9  11
ATOM     10  C   UNL     1       5.823   3.823  14.680  0.00  0.00    +0.000 C 
ATOM     11  C   UNL     1       5.181   4.366  15.967  0.00  0.00    +0.000 C 
BRANCH  11  12
ATOM     12  C   UNL     1       6.111   5.241  16.797  0.00  0.00    +0.000 A 
ATOM     13  C   UNL     1       7.061   4.633  17.637  0.00  0.00    +0.000 A 
ATOM     14  C   UNL     1       7.906   5.404  18.439  0.00  0.00    +0.000 A 
ATOM     15  C   UNL     1       7.820   6.793  18.411  0.00  0.00    +0.000 A 
ATOM     16  C   UNL     1       6.903   7.413  17.566  0.00  0.00    +0.000 A 
ATOM     17  C   UNL     1       6.062   6.642  16.761  0.00  0.00    +0.000 A 
ENDBRANCH  11  12
ENDBRANCH   9  11
ENDBRANCH   7   9
ENDBRANCH   1   7
BRANCH   4  18
ATOM     18  C   UNL     1       2.467   7.720  19.108  0.00  0.00    +0.000 C 
ATOM     19  C   UNL     1       2.671   8.314  17.697  0.00  0.00    +0.000 C 
BRANCH  18  20
ATOM     20  C   UNL     1       1.429   8.504  19.913  0.00  0.00    +0.000 A 
ATOM     21  C   UNL     1       1.118   8.121  21.226  0.00  0.00    +0.000 A 
ATOM     22  C   UNL     1       0.161   8.843  21.927  0.00  0.00    +0.000 A 
ATOM     23  N   UNL     1      -0.502   9.905  21.429  0.00  0.00    +0.000 NA
ATOM     24  C   UNL     1      -0.199  10.260  20.163  0.00  0.00    +0.000 A 
ATOM     25  C   UNL     1       0.744   9.604  19.383  0.00  0.00    +0.000 A 
ENDBRANCH  18  20
ENDBRANCH   4  18
TORSDOF 6
ENDMDL
MODEL 8
REMARK VINA RESULT:      -6.9      3.000      5.530
REMARK  Name = 
REMARK  8 active torsions:
REMARK  status: ('A' for Active; 'I' for Inactive)
REMARK    1  A    between atoms: C_1  and  C_2
REMARK    2  A    between atoms: C_2  and  C_3
REMARK    3  A    between atoms: C_2  and  C_19
REMARK    4  A    between atoms: C_3  and  N_4
REMARK    5  A    between atoms: N_4  and  C_5
REMARK    6  A    between atoms: N_8  and  C_9
REMARK    7  A    between atoms: C_9  and  C_10
REMARK    8  A    between atoms: C_9  and  C_11
REMARK                            x       y       z     vdW  Elec       q    Type
REMARK                         _______ _______ _______ _____ _____    ______ ____
ROOT
ATOM      1  C   UNL     1       1.863   3.249  19.592  0.00  0.00    +0.000 C 
ATOM      2  C   UNL     1       1.506   3.890  18.245  0.00  0.00    +0.000 C 
ATOM      3  C   UNL     1       2.117   5.287  18.099  0.00  0.00    +0.000 C 
ATOM      4  N   UNL     1       1.762   6.204  19.196  0.00  0.00    +0.000 NA
ATOM      5  C   UNL     1       2.038   5.601  20.514  0.00  0.00    +0.000 C 
ATOM      6  C   UNL     1       1.396   4.222  20.681  0.00  0.00    +0.000 C 
ENDROOT
BRANCH   1   7
ATOM      7  N   UNL     1       3.308   2.950  19.619  0.00  0.00    +0.000 NA
ATOM      8  H   UNL     1       3.774   3.624  20.231  0.00  0.00    +0.000 HD
BRANCH   7   9
ATOM      9  C   UNL     1       3.950   3.011  18.300  0.00  0.00    +0.000 C 
BRANCH   9  11
ATOM     10  C   UNL     1       5.309   4.925  19.303  0.00  0.00    +0.000 C 
ATOM     11  C   UNL     1       5.310   3.752  18.309  0.00  0.00    +0.000 C 
BRANCH  11  12
ATOM     12  C   UNL     1       5.789   4.130  16.913  0.00  0.00    +0.000 A 
ATOM     13  C   UNL     1       7.099   4.610  16.740  0.00  0.00    +0.000 A 
ATOM     14  C   UNL     1       7.559   4.999  15.479  0.00  0.00    +0.000 A 
ATOM     15  C   UNL     1       6.720   4.908  14.372  0.00  0.00    +0.000 A 
ATOM     16  C   UNL     1       5.428   4.411  14.520  0.00  0.00    +0.000 A 
ATOM     17  C   UNL     1       4.970   4.019  15.779  0.00  0.00    +0.000 A 
ENDBRANCH  11  12
ENDBRANCH   9  11
ENDBRANCH   7   9
ENDBRANCH   1   7
BRANCH   4  18
ATOM     18  C   UNL     1       2.405   7.543  19.069  0.00  0.00    +0.000 C 
ATOM     19  C   UNL     1       3.214   7.758  17.771  0.00  0.00    +0.000 C 
BRANCH  18  20
ATOM     20  C   UNL     1       1.421   8.687  19.325  0.00  0.00    +0.000 A 
ATOM     21  C   UNL     1       1.024   9.525  18.274  0.00  0.00    +0.000 A 
ATOM     22  C   UNL     1       0.140  10.563  18.540  0.00  0.00    +0.000 A 
ATOM     23  N   UNL     1      -0.372  10.828  19.757  0.00  0.00    +0.000 NA
ATOM     24  C   UNL     1       0.022  10.018  20.762  0.00  0.00    +0.000 A 
ATOM     25  C   UNL     1       0.899   8.953  20.596  0.00  0.00    +0.000 A 
ENDBRANCH  18  20
ENDBRANCH   4  18
TORSDOF 6
ENDMDL
MODEL 9
REMARK VINA RESULT:      -6.8      6.423      9.231
REMARK  Name = 
REMARK  8 active torsions:
REMARK  status: ('A' for Active; 'I' for Inactive)
REMARK    1  A    between atoms: C_1  and  C_2
REMARK    2  A    between atoms: C_2  and  C_3
REMARK    3  A    between atoms: C_2  and  C_19
REMARK    4  A    between atoms: C_3  and  N_4
REMARK    5  A    between atoms: N_4  and  C_5
REMARK    6  A    between atoms: N_8  and  C_9
REMARK    7  A    between atoms: C_9  and  C_10
REMARK    8  A    between atoms: C_9  and  C_11
REMARK                            x       y       z     vdW  Elec       q    Type
REMARK                         _______ _______ _______ _____ _____    ______ ____
ROOT
ATOM      1  C   UNL     1       1.086  10.296  18.507  0.00  0.00    +0.000 C 
ATOM      2  C   UNL     1       1.504  11.400  19.486  0.00  0.00    +0.000 C 
ATOM      3  C   UNL     1       0.877  11.203  20.869  0.00  0.00    +0.000 C 
ATOM      4  N   UNL     1      -0.591  11.094  20.841  0.00  0.00    +0.000 NA
ATOM      5  C   UNL     1      -1.038  10.079  19.868  0.00  0.00    +0.000 C 
ATOM      6  C   UNL     1      -0.447  10.295  18.473  0.00  0.00    +0.000 C 
ENDROOT
BRANCH   1   7
ATOM      7  N   UNL     1       1.689   9.017  18.931  0.00  0.00    +0.000 NA
ATOM      8  H   UNL     1       2.473   9.214  19.559  0.00  0.00    +0.000 HD
BRANCH   7   9
ATOM      9  C   UNL     1       2.189   8.201  17.819  0.00  0.00    +0.000 C 
BRANCH   9  11
ATOM     10  C   UNL     1       4.221   6.784  17.204  0.00  0.00    +0.000 C 
ATOM     11  C   UNL     1       3.146   7.067  18.265  0.00  0.00    +0.000 C 
BRANCH  11  12
ATOM     12  C   UNL     1       2.408   5.823  18.742  0.00  0.00    +0.000 A 
ATOM     13  C   UNL     1       2.125   5.672  20.111  0.00  0.00    +0.000 A 
ATOM     14  C   UNL     1       1.482   4.526  20.587  0.00  0.00    +0.000 A 
ATOM     15  C   UNL     1       1.106   3.518  19.704  0.00  0.00    +0.000 A 
ATOM     16  C   UNL     1       1.356   3.662  18.342  0.00  0.00    +0.000 A 
ATOM     17  C   UNL     1       1.995   4.809  17.866  0.00  0.00    +0.000 A 
ENDBRANCH  11  12
ENDBRANCH   9  11
ENDBRANCH   7   9
ENDBRANCH   1   7
BRANCH   4  18
ATOM     18  C   UNL     1      -1.184  10.850  22.187  0.00  0.00    +0.000 C 
ATOM     19  C   UNL     1      -0.307  10.015  23.145  0.00  0.00    +0.000 C 
BRANCH  18  20
ATOM     20  C   UNL     1      -1.682  12.139  22.845  0.00  0.00    +0.000 A 
ATOM     21  C   UNL     1      -2.958  12.189  23.423  0.00  0.00    +0.000 A 
ATOM     22  C   UNL     1      -3.388  13.376  24.001  0.00  0.00    +0.000 A 
ATOM     23  N   UNL     1      -2.654  14.505  24.047  0.00  0.00    +0.000 NA
ATOM     24  C   UNL     1      -1.430  14.447  23.482  0.00  0.00    +0.000 A 
ATOM     25  C   UNL     1      -0.910  13.306  22.883  0.00  0.00    +0.000 A 
ENDBRANCH  18  20
ENDBRANCH   4  18
TORSDOF 6
ENDMDL
